(PID.TID 0000.0001) 
(PID.TID 0000.0001) // ======================================================
(PID.TID 0000.0001) //                      MITgcm UV
(PID.TID 0000.0001) //                      =========
(PID.TID 0000.0001) // ======================================================
(PID.TID 0000.0001) // execution environment starting up...
(PID.TID 0000.0001) 
(PID.TID 0000.0001) // MITgcmUV version:  checkpoint67t
(PID.TID 0000.0001) // Build user:        jm_c
(PID.TID 0000.0001) // Build host:        villon
(PID.TID 0000.0001) // Build date:        Fri Dec 11 09:48:50 EST 2020
(PID.TID 0000.0001) 
(PID.TID 0000.0001) // =======================================================
(PID.TID 0000.0001) // Execution Environment parameter file "eedata"
(PID.TID 0000.0001) // =======================================================
(PID.TID 0000.0001) ># Example "eedata" file
(PID.TID 0000.0001) ># Lines beginning "#" are comments
(PID.TID 0000.0001) ># nTx - No. threads per process in X
(PID.TID 0000.0001) ># nTy - No. threads per process in Y
(PID.TID 0000.0001) > &EEPARMS
(PID.TID 0000.0001) > nTx=1,
(PID.TID 0000.0001) > nTy=1,
(PID.TID 0000.0001) > /
(PID.TID 0000.0001) ># Note: Some systems use & as the namelist terminator (as shown here).
(PID.TID 0000.0001) >#       Other systems use a / character.
(PID.TID 0000.0001) 
(PID.TID 0000.0001) // =======================================================
(PID.TID 0000.0001) // Computational Grid Specification ( see files "SIZE.h" )
(PID.TID 0000.0001) //                                  ( and "eedata"       )
(PID.TID 0000.0001) // =======================================================
(PID.TID 0000.0001)      nPx =    1 ; /* No. processes in X */
(PID.TID 0000.0001)      nPy =    1 ; /* No. processes in Y */
(PID.TID 0000.0001)      nSx =    2 ; /* No. tiles in X per process */
(PID.TID 0000.0001)      nSy =    2 ; /* No. tiles in Y per process */
(PID.TID 0000.0001)      sNx =   10 ; /* Tile size in X */
(PID.TID 0000.0001)      sNy =    8 ; /* Tile size in Y */
(PID.TID 0000.0001)      OLx =    4 ; /* Tile overlap distance in X */
(PID.TID 0000.0001)      OLy =    4 ; /* Tile overlap distance in Y */
(PID.TID 0000.0001)      nTx =    1 ; /* No. threads in X per process */
(PID.TID 0000.0001)      nTy =    1 ; /* No. threads in Y per process */
(PID.TID 0000.0001)       Nr =   23 ; /* No. levels in the vertical   */
(PID.TID 0000.0001)       Nx =   20 ; /* Total domain size in X ( = nPx*nSx*sNx ) */
(PID.TID 0000.0001)       Ny =   16 ; /* Total domain size in Y ( = nPy*nSy*sNy ) */
(PID.TID 0000.0001)   nTiles =    4 ; /* Total no. tiles per process ( = nSx*nSy ) */
(PID.TID 0000.0001)   nProcs =    1 ; /* Total no. processes ( = nPx*nPy ) */
(PID.TID 0000.0001) nThreads =    1 ; /* Total no. threads per process ( = nTx*nTy ) */
(PID.TID 0000.0001) usingMPI =    F ; /* Flag used to control whether MPI is in use */
(PID.TID 0000.0001)                   /*  note: To execute a program with MPI calls */
(PID.TID 0000.0001)                   /*  it must be launched appropriately e.g     */
(PID.TID 0000.0001)                   /*  "mpirun -np 64 ......"                    */
(PID.TID 0000.0001) useCoupler=   F ; /* Flag used to control communications with   */
(PID.TID 0000.0001)                   /*  other model components, through a coupler */
(PID.TID 0000.0001) useNest2W_parent =    F ;/* Control 2-W Nesting comm */
(PID.TID 0000.0001) useNest2W_child  =    F ;/* Control 2-W Nesting comm */
(PID.TID 0000.0001) debugMode =    F ; /* print debug msg. (sequence of S/R calls)  */
(PID.TID 0000.0001) printMapIncludesZeros=    F ; /* print zeros in Std.Output maps */
(PID.TID 0000.0001) maxLengthPrt1D=   65 /* maxLength of 1D array printed to StdOut */
(PID.TID 0000.0001) 
(PID.TID 0000.0001) // ======================================================
(PID.TID 0000.0001) // Mapping of tiles to threads
(PID.TID 0000.0001) // ======================================================
(PID.TID 0000.0001) // -o- Thread   1, tiles (   1:   2,   1:   2)
(PID.TID 0000.0001) 
(PID.TID 0000.0001) // ======================================================
(PID.TID 0000.0001) // Tile <-> Tile connectvity table
(PID.TID 0000.0001) // ======================================================
(PID.TID 0000.0001) // Tile number: 000001 (process no. = 000000)
(PID.TID 0000.0001) //        WEST: Tile = 000002, Process = 000000, Comm = put
(PID.TID 0000.0001) //                bi = 000002, bj = 000001
(PID.TID 0000.0001) //        EAST: Tile = 000002, Process = 000000, Comm = put
(PID.TID 0000.0001) //                bi = 000002, bj = 000001
(PID.TID 0000.0001) //       SOUTH: Tile = 000003, Process = 000000, Comm = put
(PID.TID 0000.0001) //                bi = 000001, bj = 000002
(PID.TID 0000.0001) //       NORTH: Tile = 000003, Process = 000000, Comm = put
(PID.TID 0000.0001) //                bi = 000001, bj = 000002
(PID.TID 0000.0001) // Tile number: 000002 (process no. = 000000)
(PID.TID 0000.0001) //        WEST: Tile = 000001, Process = 000000, Comm = put
(PID.TID 0000.0001) //                bi = 000001, bj = 000001
(PID.TID 0000.0001) //        EAST: Tile = 000001, Process = 000000, Comm = put
(PID.TID 0000.0001) //                bi = 000001, bj = 000001
(PID.TID 0000.0001) //       SOUTH: Tile = 000004, Process = 000000, Comm = put
(PID.TID 0000.0001) //                bi = 000002, bj = 000002
(PID.TID 0000.0001) //       NORTH: Tile = 000004, Process = 000000, Comm = put
(PID.TID 0000.0001) //                bi = 000002, bj = 000002
(PID.TID 0000.0001) // Tile number: 000003 (process no. = 000000)
(PID.TID 0000.0001) //        WEST: Tile = 000004, Process = 000000, Comm = put
(PID.TID 0000.0001) //                bi = 000002, bj = 000002
(PID.TID 0000.0001) //        EAST: Tile = 000004, Process = 000000, Comm = put
(PID.TID 0000.0001) //                bi = 000002, bj = 000002
(PID.TID 0000.0001) //       SOUTH: Tile = 000001, Process = 000000, Comm = put
(PID.TID 0000.0001) //                bi = 000001, bj = 000001
(PID.TID 0000.0001) //       NORTH: Tile = 000001, Process = 000000, Comm = put
(PID.TID 0000.0001) //                bi = 000001, bj = 000001
(PID.TID 0000.0001) // Tile number: 000004 (process no. = 000000)
(PID.TID 0000.0001) //        WEST: Tile = 000003, Process = 000000, Comm = put
(PID.TID 0000.0001) //                bi = 000001, bj = 000002
(PID.TID 0000.0001) //        EAST: Tile = 000003, Process = 000000, Comm = put
(PID.TID 0000.0001) //                bi = 000001, bj = 000002
(PID.TID 0000.0001) //       SOUTH: Tile = 000002, Process = 000000, Comm = put
(PID.TID 0000.0001) //                bi = 000002, bj = 000001
(PID.TID 0000.0001) //       NORTH: Tile = 000002, Process = 000000, Comm = put
(PID.TID 0000.0001) //                bi = 000002, bj = 000001
(PID.TID 0000.0001) 
(PID.TID 0000.0001)  INI_PARMS: opening model parameter file "data"
(PID.TID 0000.0001)  OPEN_COPY_DATA_FILE: opening file data
(PID.TID 0000.0001) // =======================================================
(PID.TID 0000.0001) // Parameter file "data"
(PID.TID 0000.0001) // =======================================================
(PID.TID 0000.0001) ># ====================
(PID.TID 0000.0001) ># | Model parameters |
(PID.TID 0000.0001) ># ====================
(PID.TID 0000.0001) >#
(PID.TID 0000.0001) ># Continuous equation parameters
(PID.TID 0000.0001) >#
(PID.TID 0000.0001) >#   tRef            - Reference vertical potential temperature          (deg C)
(PID.TID 0000.0001) >#   sRef            - Reference vertical salinity                         (PSU)
(PID.TID 0000.0001) >#   viscAh          - Horizontal eddy viscosity coefficient             (m^2/s)
(PID.TID 0000.0001) >#   viscAz          - Vertical eddy viscosity coefficient               (m^2/s)
(PID.TID 0000.0001) >#   diffKhT         - Horizontal temperature diffusivity                (m^2/s)
(PID.TID 0000.0001) >#   diffKzT         - Vertical temperature diffusivity                  (m^2/s)
(PID.TID 0000.0001) >#   diffKhS         - Horizontal salt diffusivity                       (m^2/s)
(PID.TID 0000.0001) >#   diffKzS         - Vertical salt diffusivity                         (m^2/s)
(PID.TID 0000.0001) >#   gravity         - Acceleration due to gravity                       (m/s^2)
(PID.TID 0000.0001) >#   rigidLid        - Set to true to use rigid lid
(PID.TID 0000.0001) >#   implicitFreeSurface - Set to true to use implicit free surface
(PID.TID 0000.0001) >#   eosType         - Flag for linear or polynomial equation of state
(PID.TID 0000.0001) >#   momAdvection    - On/Off flag for momentum self transport
(PID.TID 0000.0001) >#   momViscosity    - On/Off flag for momentum mixing
(PID.TID 0000.0001) >#
(PID.TID 0000.0001) > &PARM01
(PID.TID 0000.0001) > tRef= 24.0 , 23.0 , 22.0 , 21.0 , 20.0 ,
(PID.TID 0000.0001) >       19.0 , 18.0 , 17.0 , 16.0 , 15.0 ,
(PID.TID 0000.0001) >       14.0 , 13.0 , 12.0 , 11.0 , 10.0 ,
(PID.TID 0000.0001) >        9.0 ,  8.0 ,  7.0 ,  6.0,   5.0 ,
(PID.TID 0000.0001) >        4.0 ,  3.0 ,  2.0 ,
(PID.TID 0000.0001) > sRef= 34.65, 34.75, 34.82, 34.87, 34.90,
(PID.TID 0000.0001) >       34.90, 34.86, 34.78, 34.69, 34.60,
(PID.TID 0000.0001) >       34.58, 34.62, 34.68, 34.72, 34.73,
(PID.TID 0000.0001) >       34.74, 34.73, 34.73, 34.72, 34.72,
(PID.TID 0000.0001) >       34.71, 34.70, 34.69,
(PID.TID 0000.0001) > no_slip_sides=.FALSE.,
(PID.TID 0000.0001) > no_slip_bottom=.TRUE.,
(PID.TID 0000.0001) > viscAz=1.93e-5,
(PID.TID 0000.0001) > viscAh=5.E4,
(PID.TID 0000.0001) > diffKhT=0.0,
(PID.TID 0000.0001) > diffKzT=1.46e-5,
(PID.TID 0000.0001) > diffKhS=0.0,
(PID.TID 0000.0001) > diffKzS=1.46e-5,
(PID.TID 0000.0001) > rigidLid=.FALSE.,
(PID.TID 0000.0001) > implicitFreeSurface=.TRUE.,
(PID.TID 0000.0001) > eosType='JMD95Z',
(PID.TID 0000.0001) > saltStepping=.TRUE.,
(PID.TID 0000.0001) > tempStepping=.TRUE.,
(PID.TID 0000.0001) > momStepping=.TRUE.,
(PID.TID 0000.0001) > implicitDiffusion=.TRUE.,
(PID.TID 0000.0001) > implicitViscosity=.TRUE.,
(PID.TID 0000.0001) > allowFreezing=.FALSE.,
(PID.TID 0000.0001) >#- set wrong celsius2K to reproduce old results:
(PID.TID 0000.0001) > celsius2K=273.16,
(PID.TID 0000.0001) > HeatCapacity_Cp = 3986.D0,
(PID.TID 0000.0001) > gravity         = 9.8156,
(PID.TID 0000.0001) > rhoConst        = 1027.D0,
(PID.TID 0000.0001) > rhoConstFresh   = 999.8,
(PID.TID 0000.0001) > useCDscheme=.TRUE.,
(PID.TID 0000.0001) > useSingleCpuIO=.TRUE.,
(PID.TID 0000.0001) > readBinaryPrec=32,
(PID.TID 0000.0001) > writeBinaryPrec=32,
(PID.TID 0000.0001) > /
(PID.TID 0000.0001) >
(PID.TID 0000.0001) ># Elliptic solver parameters
(PID.TID 0000.0001) >#
(PID.TID 0000.0001) >#   cg2dMaxIters       - Maximum number of 2d solver iterations
(PID.TID 0000.0001) >#   cg2dTargetResidual - Solver target residual
(PID.TID 0000.0001) >#
(PID.TID 0000.0001) > &PARM02
(PID.TID 0000.0001) > cg2dMaxIters=500,
(PID.TID 0000.0001) > cg2dTargetResidual=1.E-12,
(PID.TID 0000.0001) > /
(PID.TID 0000.0001) >
(PID.TID 0000.0001) ># Time stepping parameters
(PID.TID 0000.0001) >#
(PID.TID 0000.0001) >#   startTime         - Integration starting time                (s)
(PID.TID 0000.0001) >#   endTime           - Integration ending time                  (s)
(PID.TID 0000.0001) >#   tauCD             - CD scheme coupling timescale             (s)
(PID.TID 0000.0001) >#   deltaTMom         - Timestep for momemtum equations          (s)
(PID.TID 0000.0001) >#   deltaTtracer      - Tracer timestep                          (s)
(PID.TID 0000.0001) >#   deltaTClock       - Timestep used as model "clock"           (s)
(PID.TID 0000.0001) >#   abEps             - Adams-Bashforth stabilising factor
(PID.TID 0000.0001) >#   pChkPtFreq        - Frequency of permanent check pointing    (s)
(PID.TID 0000.0001) >#   chkPtFreq         - Frequency of rolling check pointing      (s)
(PID.TID 0000.0001) >#   dumpFreq          - Frequency at which model state is stored (s)
(PID.TID 0000.0001) >#   tauThetaClimRelax - Relaxation to climatology time scale     (s)
(PID.TID 0000.0001) >#   tauSaltClimRelax  - Relaxation to climatology time scale     (s)
(PID.TID 0000.0001) >#
(PID.TID 0000.0001) > &PARM03
(PID.TID 0000.0001) > tauCD=172800.,
(PID.TID 0000.0001) > startTime=3600.0,
(PID.TID 0000.0001) > endTime=36000.,
(PID.TID 0000.0001) > deltaTmom=3600.0,
(PID.TID 0000.0001) > deltaTtracer=3600.0,
(PID.TID 0000.0001) > deltaTClock =3600.0,
(PID.TID 0000.0001) > cAdjFreq=0.,
(PID.TID 0000.0001) > abEps=0.1,
(PID.TID 0000.0001) > forcing_In_AB = .FALSE.,
(PID.TID 0000.0001) > pChkptFreq=36000.,
(PID.TID 0000.0001) > chkptFreq= 0.,
(PID.TID 0000.0001) > dumpFreq = 0.,
(PID.TID 0000.0001) > taveFreq = 36000.,
(PID.TID 0000.0001) > monitorFreq=1.,
(PID.TID 0000.0001) > pickupStrictlyMatch=.FALSE.,
(PID.TID 0000.0001) > /
(PID.TID 0000.0001) >
(PID.TID 0000.0001) ># Gridding parameters
(PID.TID 0000.0001) >#
(PID.TID 0000.0001) >#   usingSphericalPolarGrid - On/Off flag for spherical polar coordinates
(PID.TID 0000.0001) >#   delX                    - Zonal grid spacing         (degrees)
(PID.TID 0000.0001) >#   delY                    - Meridional grid spacing    (degrees)
(PID.TID 0000.0001) >#   delZ                    - Vertical grid spacing      (m)
(PID.TID 0000.0001) >#   ygOrigin                - Southern boundary latitude (degrees)
(PID.TID 0000.0001) >#
(PID.TID 0000.0001) > &PARM04
(PID.TID 0000.0001) > usingSphericalPolarGrid=.TRUE.,
(PID.TID 0000.0001) > delX=20*2.E0,
(PID.TID 0000.0001) > delY=16*2.E0,
(PID.TID 0000.0001) > delZ= 10., 10., 15., 20., 20., 25., 35., 50., 75.,
(PID.TID 0000.0001) >       100., 150., 200., 275., 350., 415., 450.,
(PID.TID 0000.0001) >       500., 500., 500., 500., 500., 500., 500.,
(PID.TID 0000.0001) > ygOrigin=46.,
(PID.TID 0000.0001) > xgOrigin=280.,
(PID.TID 0000.0001) > rSphere = 6371.D3,
(PID.TID 0000.0001) > /
(PID.TID 0000.0001) >
(PID.TID 0000.0001) ># Input datasets
(PID.TID 0000.0001) >#
(PID.TID 0000.0001) >#   bathyFile       - File containing bathymetry
(PID.TID 0000.0001) >#   hydrogThetaFile - File containing initial potential temperature data
(PID.TID 0000.0001) >#   hydrogSaltFile  - File containing initial salinity data
(PID.TID 0000.0001) >#   zonalWindFile   - File containing zonal wind data
(PID.TID 0000.0001) >#   meridWindFile   - File containing meridional wind data
(PID.TID 0000.0001) >#   thetaClimFile   - File containing theta climatology used for relaxation
(PID.TID 0000.0001) >#   saltClimFile    - File containing salt climatology used for relaxation
(PID.TID 0000.0001) >#
(PID.TID 0000.0001) > &PARM05
(PID.TID 0000.0001) > bathyFile       = 'bathy.labsea1979',
(PID.TID 0000.0001) > hydrogThetaFile = 'LevCli_temp.labsea1979',
(PID.TID 0000.0001) > hydrogSaltFile  = 'LevCli_salt.labsea1979',
(PID.TID 0000.0001) > /
(PID.TID 0000.0001) 
(PID.TID 0000.0001)  INI_PARMS ; starts to read PARM01
(PID.TID 0000.0001)  INI_PARMS ; read PARM01 : OK
(PID.TID 0000.0001)  INI_PARMS ; starts to read PARM02
(PID.TID 0000.0001)  INI_PARMS ; read PARM02 : OK
(PID.TID 0000.0001)  INI_PARMS ; starts to read PARM03
(PID.TID 0000.0001)  INI_PARMS ; read PARM03 : OK
(PID.TID 0000.0001)  INI_PARMS ; starts to read PARM04
(PID.TID 0000.0001)  INI_PARMS ; read PARM04 : OK
(PID.TID 0000.0001)  INI_PARMS ; starts to read PARM05
(PID.TID 0000.0001)  INI_PARMS ; read PARM05 : OK
(PID.TID 0000.0001)  INI_PARMS: finished reading file "data"
(PID.TID 0000.0001)  PACKAGES_BOOT: opening data.pkg
(PID.TID 0000.0001)  OPEN_COPY_DATA_FILE: opening file data.pkg
(PID.TID 0000.0001) // =======================================================
(PID.TID 0000.0001) // Parameter file "data.pkg"
(PID.TID 0000.0001) // =======================================================
(PID.TID 0000.0001) ># Packages
(PID.TID 0000.0001) > &PACKAGES
(PID.TID 0000.0001) >  useGMRedi = .TRUE.,
(PID.TID 0000.0001) >  useKPP    = .TRUE.,
(PID.TID 0000.0001) >  useEXF    = .TRUE.,
(PID.TID 0000.0001) >  useCAL    = .TRUE.,
(PID.TID 0000.0001) >  useSEAICE = .TRUE.,
(PID.TID 0000.0001) >  useDiagnostics = .TRUE.,
(PID.TID 0000.0001) >  useMNC    = .TRUE.,
(PID.TID 0000.0001) > /
(PID.TID 0000.0001) 
(PID.TID 0000.0001)  PACKAGES_BOOT: finished reading data.pkg
(PID.TID 0000.0001)  PACKAGES_BOOT: On/Off package Summary
 --------  pkgs with a standard "usePKG" On/Off switch in "data.pkg":  --------
 pkg/kpp                  compiled   and   used ( useKPP                   = T )
 pkg/gmredi               compiled   and   used ( useGMRedi                = T )
 pkg/cal                  compiled   and   used ( useCAL                   = T )
 pkg/exf                  compiled   and   used ( useEXF                   = T )
 pkg/seaice               compiled   and   used ( useSEAICE                = T )
 pkg/salt_plume           compiled but not used ( useSALT_PLUME            = F )
 pkg/diagnostics          compiled   and   used ( useDiagnostics           = T )
 pkg/mnc                  compiled   and   used ( useMNC                   = T )
 -------- pkgs without standard "usePKG" On/Off switch in "data.pkg":  --------
 pkg/generic_advdiff      compiled   and   used ( useGAD                   = T )
 pkg/mom_common           compiled   and   used ( momStepping              = T )
 pkg/mom_vecinv           compiled but not used ( +vectorInvariantMomentum = F )
 pkg/mom_fluxform         compiled   and   used ( & not vectorInvariantMom = T )
 pkg/cd_code              compiled   and   used ( useCDscheme              = T )
 pkg/monitor              compiled   and   used ( monitorFreq > 0.         = T )
 pkg/timeave              compiled   and   used ( taveFreq > 0.            = T )
 pkg/debug                compiled but not used ( debugMode                = F )
 pkg/rw                   compiled   and   used
 pkg/mdsio                compiled   and   used
(PID.TID 0000.0001)  PACKAGES_BOOT: End of package Summary
(PID.TID 0000.0001) 
(PID.TID 0000.0001)  MNC_READPARMS: opening file 'data.mnc'
(PID.TID 0000.0001)  OPEN_COPY_DATA_FILE: opening file data.mnc
(PID.TID 0000.0001) // =======================================================
(PID.TID 0000.0001) // Parameter file "data.mnc"
(PID.TID 0000.0001) // =======================================================
(PID.TID 0000.0001) ># Example "data.mnc" file
(PID.TID 0000.0001) ># Lines beginning "#" are comments
(PID.TID 0000.0001) > &MNC_01
(PID.TID 0000.0001) ># mnc_echo_gvtypes=.FALSE.,
(PID.TID 0000.0001) ># mnc_use_indir=.FALSE.,
(PID.TID 0000.0001) > mnc_use_outdir=.TRUE.,
(PID.TID 0000.0001) > mnc_outdir_str='mnc_test_',
(PID.TID 0000.0001) >#mnc_outdir_date=.TRUE.,
(PID.TID 0000.0001) > monitor_mnc=.FALSE.,
(PID.TID 0000.0001) >#snapshot_mnc=.FALSE.,
(PID.TID 0000.0001) >#timeave_mnc=.FALSE.,
(PID.TID 0000.0001) > pickup_write_mnc=.FALSE.,
(PID.TID 0000.0001) > pickup_read_mnc=.FALSE.,
(PID.TID 0000.0001) > /
(PID.TID 0000.0001) ># Note: Some systems use & as the
(PID.TID 0000.0001) ># namelist terminator. Other systems
(PID.TID 0000.0001) ># use a / character (as shown here).
(PID.TID 0000.0001) 
(PID.TID 0000.0001)  MNC_READPARMS: finished reading data.mnc
(PID.TID 0000.0001) CAL_READPARMS: opening data.cal
(PID.TID 0000.0001)  OPEN_COPY_DATA_FILE: opening file data.cal
(PID.TID 0000.0001) // =======================================================
(PID.TID 0000.0001) // Parameter file "data.cal"
(PID.TID 0000.0001) // =======================================================
(PID.TID 0000.0001) >#
(PID.TID 0000.0001) ># *******************
(PID.TID 0000.0001) ># Calendar Parameters
(PID.TID 0000.0001) ># *******************
(PID.TID 0000.0001) > &CAL_NML
(PID.TID 0000.0001) > TheCalendar='gregorian',
(PID.TID 0000.0001) > startDate_1=19790101,
(PID.TID 0000.0001) > startDate_2=000000,
(PID.TID 0000.0001) > /
(PID.TID 0000.0001) 
(PID.TID 0000.0001) CAL_READPARMS: finished reading data.cal
(PID.TID 0000.0001) EXF_READPARMS: opening data.exf
(PID.TID 0000.0001)  OPEN_COPY_DATA_FILE: opening file data.exf
(PID.TID 0000.0001) // =======================================================
(PID.TID 0000.0001) // Parameter file "data.exf"
(PID.TID 0000.0001) // =======================================================
(PID.TID 0000.0001) >#
(PID.TID 0000.0001) ># *********************
(PID.TID 0000.0001) ># External Forcing Data
(PID.TID 0000.0001) ># *********************
(PID.TID 0000.0001) > &EXF_NML_01
(PID.TID 0000.0001) >#
(PID.TID 0000.0001) > useExfCheckRange  = .TRUE.,
(PID.TID 0000.0001) > repeatPeriod      = 31622400.0,
(PID.TID 0000.0001) > exf_iprec         = 32,
(PID.TID 0000.0001) >#
(PID.TID 0000.0001) > /
(PID.TID 0000.0001) >
(PID.TID 0000.0001) ># *********************
(PID.TID 0000.0001) > &EXF_NML_02
(PID.TID 0000.0001) >#
(PID.TID 0000.0001) > hfluxstartdate1   = 19781216,
(PID.TID 0000.0001) > hfluxstartdate2   = 180000,
(PID.TID 0000.0001) > hfluxperiod       = 2635200.0,
(PID.TID 0000.0001) >#
(PID.TID 0000.0001) > sfluxstartdate1   = 19781216,
(PID.TID 0000.0001) > sfluxstartdate2   = 180000,
(PID.TID 0000.0001) > sfluxperiod       = 2635200.0,
(PID.TID 0000.0001) >#
(PID.TID 0000.0001) > ustressstartdate1 = 19781216,
(PID.TID 0000.0001) > ustressstartdate2 = 180000,
(PID.TID 0000.0001) > ustressperiod     = 2635200.0,
(PID.TID 0000.0001) >#
(PID.TID 0000.0001) > vstressstartdate1 = 19781216,
(PID.TID 0000.0001) > vstressstartdate2 = 180000,
(PID.TID 0000.0001) > vstressperiod     = 2635200.0,
(PID.TID 0000.0001) >#
(PID.TID 0000.0001) > atempstartdate1   = 19781216,
(PID.TID 0000.0001) > atempstartdate2   = 180000,
(PID.TID 0000.0001) > atempperiod       = 2635200.0,
(PID.TID 0000.0001) >#
(PID.TID 0000.0001) > aqhstartdate1     = 19781216,
(PID.TID 0000.0001) > aqhstartdate2     = 180000,
(PID.TID 0000.0001) > aqhperiod         = 2635200.0,
(PID.TID 0000.0001) >#
(PID.TID 0000.0001) >#evapstartdate1    = 19781216,
(PID.TID 0000.0001) >#evapstartdate2    = 180000,
(PID.TID 0000.0001) >#evapperiod        = 2635200.0,
(PID.TID 0000.0001) >#
(PID.TID 0000.0001) > precipstartdate1  = 19781216,
(PID.TID 0000.0001) > precipstartdate2  = 180000,
(PID.TID 0000.0001) > precipperiod      = 2635200.0,
(PID.TID 0000.0001) >#
(PID.TID 0000.0001) > uwindstartdate1   = 19781216,
(PID.TID 0000.0001) > uwindstartdate2   = 180000,
(PID.TID 0000.0001) > uwindperiod       = 2635200.0,
(PID.TID 0000.0001) >#
(PID.TID 0000.0001) > vwindstartdate1   = 19781216,
(PID.TID 0000.0001) > vwindstartdate2   = 180000,
(PID.TID 0000.0001) > vwindperiod       = 2635200.0,
(PID.TID 0000.0001) >#
(PID.TID 0000.0001) > swfluxstartdate1  = 19781216,
(PID.TID 0000.0001) > swfluxstartdate2  = 180000,
(PID.TID 0000.0001) > swfluxperiod      = 2635200.0,
(PID.TID 0000.0001) >#
(PID.TID 0000.0001) > lwfluxstartdate1  = 19781216,
(PID.TID 0000.0001) > lwfluxstartdate2  = 180000,
(PID.TID 0000.0001) > lwfluxperiod      = 2635200.0,
(PID.TID 0000.0001) >#
(PID.TID 0000.0001) > swdownstartdate1  = 19781216,
(PID.TID 0000.0001) > swdownstartdate2  = 180000,
(PID.TID 0000.0001) > swdownperiod      = 2635200.0,
(PID.TID 0000.0001) >#
(PID.TID 0000.0001) > lwdownstartdate1  = 19781216,
(PID.TID 0000.0001) > lwdownstartdate2  = 180000,
(PID.TID 0000.0001) > lwdownperiod      = 2635200.0,
(PID.TID 0000.0001) >#
(PID.TID 0000.0001) > climsststartdate1  = 19781216,
(PID.TID 0000.0001) > climsststartdate2  = 180000,
(PID.TID 0000.0001) > climsstperiod      = 2635200.0,
(PID.TID 0000.0001) > climsstTauRelax    = 0.0,
(PID.TID 0000.0001) >#
(PID.TID 0000.0001) > climsssstartdate1  = 19781216,
(PID.TID 0000.0001) > climsssstartdate2  = 180000,
(PID.TID 0000.0001) > climsssperiod      = 2635200.0,
(PID.TID 0000.0001) > climsssTauRelax    = 4142330.0,
(PID.TID 0000.0001) >#
(PID.TID 0000.0001) > hfluxfile         = ' ',
(PID.TID 0000.0001) > sfluxfile         = ' ',
(PID.TID 0000.0001) > ustressfile       = ' ',
(PID.TID 0000.0001) > vstressfile       = ' ',
(PID.TID 0000.0001) > atempfile         = 'tair.labsea1979',
(PID.TID 0000.0001) > aqhfile           = 'qa.labsea1979',
(PID.TID 0000.0001) > uwindfile         = 'u10m.labsea1979',
(PID.TID 0000.0001) > vwindfile         = 'v10m.labsea1979',
(PID.TID 0000.0001) >#evapfile          = 'evap.labsea1979',
(PID.TID 0000.0001) > precipfile        = 'prate.labsea1979',
(PID.TID 0000.0001) > lwfluxfile        = ' ',
(PID.TID 0000.0001) > swfluxfile        = ' ',
(PID.TID 0000.0001) > lwdownfile        = 'flo.labsea1979',
(PID.TID 0000.0001) > swdownfile        = 'fsh.labsea1979',
(PID.TID 0000.0001) > runoffFile        = ' '
(PID.TID 0000.0001) > climsstfile       = ' ',
(PID.TID 0000.0001) > climsssfile       = 'SSS_monthly.labsea1979',
(PID.TID 0000.0001) >#
(PID.TID 0000.0001) > /
(PID.TID 0000.0001) >
(PID.TID 0000.0001) ># *********************
(PID.TID 0000.0001) > &EXF_NML_03
(PID.TID 0000.0001) > /
(PID.TID 0000.0001) >
(PID.TID 0000.0001) ># *********************
(PID.TID 0000.0001) > &EXF_NML_04
(PID.TID 0000.0001) > /
(PID.TID 0000.0001) 
(PID.TID 0000.0001) EXF_READPARMS: reading EXF_NML_01
(PID.TID 0000.0001) EXF_READPARMS: reading EXF_NML_02
(PID.TID 0000.0001) EXF_READPARMS: reading EXF_NML_03
(PID.TID 0000.0001) EXF_READPARMS: finished reading data.exf
(PID.TID 0000.0001)  KPP_READPARMS: opening data.kpp
(PID.TID 0000.0001)  OPEN_COPY_DATA_FILE: opening file data.kpp
(PID.TID 0000.0001) // =======================================================
(PID.TID 0000.0001) // Parameter file "data.kpp"
(PID.TID 0000.0001) // =======================================================
(PID.TID 0000.0001) ># KPP parameters
(PID.TID 0000.0001) > &KPP_PARM01
(PID.TID 0000.0001) > KPPmixingMaps   = .FALSE.,
(PID.TID 0000.0001) > KPPwriteState   = .TRUE.,
(PID.TID 0000.0001) > KPP_ghatUseTotalDiffus=.TRUE.,
(PID.TID 0000.0001) > /
(PID.TID 0000.0001) 
(PID.TID 0000.0001)  KPP_READPARMS ; starts to read KPP_PARM01
(PID.TID 0000.0001)  KPP_READPARMS ; read KPP_PARM01 : OK
(PID.TID 0000.0001)  KPP_READPARMS: finished reading data.kpp
(PID.TID 0000.0001)  GM_READPARMS: opening data.gmredi
(PID.TID 0000.0001)  OPEN_COPY_DATA_FILE: opening file data.gmredi
(PID.TID 0000.0001) // =======================================================
(PID.TID 0000.0001) // Parameter file "data.gmredi"
(PID.TID 0000.0001) // =======================================================
(PID.TID 0000.0001) ># GMREDI parameters
(PID.TID 0000.0001) > &GM_PARM01
(PID.TID 0000.0001) >  GM_background_K = 571.0
(PID.TID 0000.0001) >  GM_taper_scheme = 'ldd97'
(PID.TID 0000.0001) > /
(PID.TID 0000.0001) 
(PID.TID 0000.0001)  GM_READPARMS: finished reading data.gmredi
(PID.TID 0000.0001) 
(PID.TID 0000.0001)  SEAICE_READPARMS: opening data.seaice
(PID.TID 0000.0001)  OPEN_COPY_DATA_FILE: opening file data.seaice
(PID.TID 0000.0001) // =======================================================
(PID.TID 0000.0001) // Parameter file "data.seaice"
(PID.TID 0000.0001) // =======================================================
(PID.TID 0000.0001) ># SEAICE parameters
(PID.TID 0000.0001) > &SEAICE_PARM01
(PID.TID 0000.0001) >#- seaice dynamics params:
(PID.TID 0000.0001) ># LSR_ERROR          = 1.E-12,
(PID.TID 0000.0001) >  SEAICE_no_slip     = .TRUE.,
(PID.TID 0000.0001) ># Depending on vertical resolution this angle should have a value > 0
(PID.TID 0000.0001) >#  (e.g., 25deg for drF(1)=10m)
(PID.TID 0000.0001) ># SEAICE_waterTurnAngle = 0.0,
(PID.TID 0000.0001) >#- seaice state & transport params:
(PID.TID 0000.0001) >  SEAICE_salt0       = 4.0,
(PID.TID 0000.0001) >  SEAICEadvScheme    = 7,
(PID.TID 0000.0001) ># for adjoint simulations you will need
(PID.TID 0000.0001) ># SEAICEadvScheme    = 30,
(PID.TID 0000.0001) >#- seaice thermodyn params:
(PID.TID 0000.0001) >  SEAICE_multDim     = 7,
(PID.TID 0000.0001) >  SEAICE_wetAlbTemp  = 0.0,
(PID.TID 0000.0001) ># this value should be default for the McPhee parameterization
(PID.TID 0000.0001) >  SEAICE_mcPheeTaper = 0.92,
(PID.TID 0000.0001) >#- seaice I/O params:
(PID.TID 0000.0001) >  SEAICEwriteState   = .TRUE.,
(PID.TID 0000.0001) ># old defaults
(PID.TID 0000.0001) > SEAICEscaleSurfStress = .FALSE.,
(PID.TID 0000.0001) > SEAICEaddSnowMass     = .FALSE.,
(PID.TID 0000.0001) > SEAICE_useMultDimSnow = .FALSE.,
(PID.TID 0000.0001) > SEAICE_Olx = 0,
(PID.TID 0000.0001) > SEAICE_Oly = 0,
(PID.TID 0000.0001) > SEAICEetaZmethod = 0,
(PID.TID 0000.0001) > SEAICE_waterDrag  = 0.005355404089581304,
(PID.TID 0000.0001) > /
(PID.TID 0000.0001) >
(PID.TID 0000.0001) > &SEAICE_PARM03
(PID.TID 0000.0001) >  SItrNumInUse       = 2,
(PID.TID 0000.0001) >  SItrName(1)        = 'age',
(PID.TID 0000.0001) >  SItrMate(1)        = 'AREA',
(PID.TID 0000.0001) >  SItrUnit(1)        = 's',
(PID.TID 0000.0001) >  SItrName(2)        = 'one',
(PID.TID 0000.0001) > /
(PID.TID 0000.0001) 
(PID.TID 0000.0001)  SEAICE_READPARMS: finished reading data.seaice
(PID.TID 0000.0001)  DIAGNOSTICS_READPARMS: opening data.diagnostics
(PID.TID 0000.0001)  OPEN_COPY_DATA_FILE: opening file data.diagnostics
(PID.TID 0000.0001) // =======================================================
(PID.TID 0000.0001) // Parameter file "data.diagnostics"
(PID.TID 0000.0001) // =======================================================
(PID.TID 0000.0001) ># Diagnostic Package Choices
(PID.TID 0000.0001) >#--------------------
(PID.TID 0000.0001) >#  dumpAtLast (logical): always write output at the end of simulation (default=F)
(PID.TID 0000.0001) >#  diag_mnc   (logical): write to NetCDF files (default=useMNC)
(PID.TID 0000.0001) >#--for each output-stream:
(PID.TID 0000.0001) >#  fileName(n) : prefix of the output file name (max 80c long) for outp.stream n
(PID.TID 0000.0001) >#  frequency(n):< 0 : write snap-shot output every |frequency| seconds
(PID.TID 0000.0001) >#               > 0 : write time-average output every frequency seconds
(PID.TID 0000.0001) >#  timePhase(n)     : write at time = timePhase + multiple of |frequency|
(PID.TID 0000.0001) >#    averagingFreq  : frequency (in s) for periodic averaging interval
(PID.TID 0000.0001) >#    averagingPhase : phase     (in s) for periodic averaging interval
(PID.TID 0000.0001) >#    repeatCycle    : number of averaging intervals in 1 cycle
(PID.TID 0000.0001) >#  levels(:,n) : list of levels to write to file (Notes: declared as REAL)
(PID.TID 0000.0001) >#                when this entry is missing, select all common levels of this list
(PID.TID 0000.0001) >#  fields(:,n) : list of selected diagnostics fields (8.c) in outp.stream n
(PID.TID 0000.0001) >#                (see "available_diagnostics.log" file for the full list of diags)
(PID.TID 0000.0001) >#  missing_value(n) : missing value for real-type fields in output file "n"
(PID.TID 0000.0001) >#  fileFlags(n)     : specific code (8c string) for output file "n"
(PID.TID 0000.0001) >#--------------------
(PID.TID 0000.0001) ># This example dumps EXF diagnostics as snapshot after 10 time-steps
(PID.TID 0000.0001) ># Note: EXF air-sea fluxes over Sea-Ice are wrong
(PID.TID 0000.0001) > &DIAGNOSTICS_LIST
(PID.TID 0000.0001) >   dumpAtLast  = .TRUE.,
(PID.TID 0000.0001) >#--
(PID.TID 0000.0001) >  fields(1:11,1) = 'EXFtaux ','EXFtauy ','EXFqnet ','EXFempmr',
(PID.TID 0000.0001) >                   'EXFhl   ','EXFhs   ','EXFswnet','EXFlwnet',
(PID.TID 0000.0001) >                   'EXFuwind','EXFvwind','EXFatemp',
(PID.TID 0000.0001) >   fileName(1) = 'diagsEXF',
(PID.TID 0000.0001) >  frequency(1) = -36000.,
(PID.TID 0000.0001) >
(PID.TID 0000.0001) >  fields(1:5,2)  = 'SIarea  ','SIheff  ','SIhsnow ',
(PID.TID 0000.0001) >                   'SIuice  ','SIvice  ',
(PID.TID 0000.0001) >   fileName(2) = 'diagsSI',
(PID.TID 0000.0001) >  frequency(2) =  36000.,
(PID.TID 0000.0001) >
(PID.TID 0000.0001) >  fields(1:2,3)  = 'MXLDEPTH','KPPhbl  ',
(PID.TID 0000.0001) >   fileName(3) = 'diagsKPP',
(PID.TID 0000.0001) >  frequency(3) =  36000.,
(PID.TID 0000.0001) >  fields(1,4)  = 'KPPghatK',
(PID.TID 0000.0001) >   fileName(4) = 'KPPghatK',
(PID.TID 0000.0001) >  frequency(4) =  36000.,
(PID.TID 0000.0001) > /
(PID.TID 0000.0001) >
(PID.TID 0000.0001) >#--------------------
(PID.TID 0000.0001) ># Parameter for Diagnostics of per level statistics:
(PID.TID 0000.0001) >#--------------------
(PID.TID 0000.0001) >#  diagSt_mnc (logical): write stat-diags to NetCDF files (default=diag_mnc)
(PID.TID 0000.0001) >#  diagSt_regMaskFile : file containing the region-mask to read-in
(PID.TID 0000.0001) >#  nSetRegMskFile   : number of region-mask sets within the region-mask file
(PID.TID 0000.0001) >#  set_regMask(i)   : region-mask set-index that identifies the region "i"
(PID.TID 0000.0001) >#  val_regMask(i)   : region "i" identifier value in the region mask
(PID.TID 0000.0001) >#--for each output-stream:
(PID.TID 0000.0001) >#  stat_fName(n) : prefix of the output file name (max 80c long) for outp.stream n
(PID.TID 0000.0001) >#  stat_freq(n):< 0 : write snap-shot output every |stat_freq| seconds
(PID.TID 0000.0001) >#               > 0 : write time-average output every stat_freq seconds
(PID.TID 0000.0001) >#  stat_phase(n)    : write at time = stat_phase + multiple of |stat_freq|
(PID.TID 0000.0001) >#  stat_region(:,n) : list of "regions" (default: 1 region only=global)
(PID.TID 0000.0001) >#  stat_fields(:,n) : list of selected diagnostics fields (8.c) in outp.stream n
(PID.TID 0000.0001) >#                (see "available_diagnostics.log" file for the full list of diags)
(PID.TID 0000.0001) >#--------------------
(PID.TID 0000.0001) > &DIAG_STATIS_PARMS
(PID.TID 0000.0001) >#stat_fields(1:5,1)  = 'ETAN    ','UVEL    ','VVEL    ','WVEL    ', 'THETA   ',
(PID.TID 0000.0001) ># stat_fName(1) = 'dynStDiag',
(PID.TID 0000.0001) >#  stat_freq(1) = -36000.,
(PID.TID 0000.0001) ># stat_phase(1) = 0.,
(PID.TID 0000.0001) > /
(PID.TID 0000.0001) >
(PID.TID 0000.0001) 
(PID.TID 0000.0001) S/R DIAGNOSTICS_READPARMS, read namelist "diagnostics_list": start
(PID.TID 0000.0001) S/R DIAGNOSTICS_READPARMS, read namelist "diagnostics_list": OK
(PID.TID 0000.0001) S/R DIAGNOSTICS_READPARMS, read namelist "DIAG_STATIS_PARMS": start
(PID.TID 0000.0001) S/R DIAGNOSTICS_READPARMS, read namelist "DIAG_STATIS_PARMS": OK
(PID.TID 0000.0001)  DIAGNOSTICS_READPARMS: global parameter summary:
(PID.TID 0000.0001)  dumpAtLast = /* always write time-ave diags at the end */
(PID.TID 0000.0001)                   T
(PID.TID 0000.0001)     ;
(PID.TID 0000.0001)  diag_mnc =   /* write NetCDF output files */
(PID.TID 0000.0001)                   T
(PID.TID 0000.0001)     ;
(PID.TID 0000.0001)  useMissingValue = /* put MissingValue where mask = 0 */
(PID.TID 0000.0001)                   F
(PID.TID 0000.0001)     ;
(PID.TID 0000.0001)  diagCG_maxIters = /* max number of iters in diag_cg2d */
(PID.TID 0000.0001)                     500
(PID.TID 0000.0001)     ;
(PID.TID 0000.0001)  diagCG_resTarget = /* residual target for diag_cg2d */
(PID.TID 0000.0001)                 1.000000000000000E-12
(PID.TID 0000.0001)     ;
(PID.TID 0000.0001)  diagCG_pcOffDFac = /* preconditioner off-diagonal factor */
(PID.TID 0000.0001)                 9.611687812379854E-01
(PID.TID 0000.0001)     ;
(PID.TID 0000.0001) -----------------------------------------------------
(PID.TID 0000.0001)  DIAGNOSTICS_READPARMS: active diagnostics summary:
(PID.TID 0000.0001) -----------------------------------------------------
(PID.TID 0000.0001) Creating Output Stream: diagsEXF
(PID.TID 0000.0001) Output Frequency:     -36000.000000 ; Phase:       18000.000000
(PID.TID 0000.0001)  Averaging Freq.:          0.000000 , Phase:           0.000000 , Cycle:   1
(PID.TID 0000.0001)  missing value: -9.990000000000E+02
(PID.TID 0000.0001)  Levels:    will be set later
(PID.TID 0000.0001)  Fields:    EXFtaux  EXFtauy  EXFqnet  EXFempmr EXFhl    EXFhs    EXFswnet EXFlwnet EXFuwind EXFvwind
(PID.TID 0000.0001)  Fields:    EXFatemp
(PID.TID 0000.0001) Creating Output Stream: diagsSI
(PID.TID 0000.0001) Output Frequency:      36000.000000 ; Phase:           0.000000
(PID.TID 0000.0001)  Averaging Freq.:      36000.000000 , Phase:           0.000000 , Cycle:   1
(PID.TID 0000.0001)  missing value: -9.990000000000E+02
(PID.TID 0000.0001)  Levels:    will be set later
(PID.TID 0000.0001)  Fields:    SIarea   SIheff   SIhsnow  SIuice   SIvice
(PID.TID 0000.0001) Creating Output Stream: diagsKPP
(PID.TID 0000.0001) Output Frequency:      36000.000000 ; Phase:           0.000000
(PID.TID 0000.0001)  Averaging Freq.:      36000.000000 , Phase:           0.000000 , Cycle:   1
(PID.TID 0000.0001)  missing value: -9.990000000000E+02
(PID.TID 0000.0001)  Levels:    will be set later
(PID.TID 0000.0001)  Fields:    MXLDEPTH KPPhbl
(PID.TID 0000.0001) Creating Output Stream: KPPghatK
(PID.TID 0000.0001) Output Frequency:      36000.000000 ; Phase:           0.000000
(PID.TID 0000.0001)  Averaging Freq.:      36000.000000 , Phase:           0.000000 , Cycle:   1
(PID.TID 0000.0001)  missing value: -9.990000000000E+02
(PID.TID 0000.0001)  Levels:    will be set later
(PID.TID 0000.0001)  Fields:    KPPghatK
(PID.TID 0000.0001) -----------------------------------------------------
(PID.TID 0000.0001)  DIAGNOSTICS_READPARMS: statistics diags. summary:
(PID.TID 0000.0001) -----------------------------------------------------
(PID.TID 0000.0001) 
(PID.TID 0000.0001) SET_PARMS: done
(PID.TID 0000.0001) Enter INI_VERTICAL_GRID: setInterFDr=    T ; setCenterDr=    F
(PID.TID 0000.0001) %MON XC_max                       =   3.1900000000000E+02
(PID.TID 0000.0001) %MON XC_min                       =   2.8100000000000E+02
(PID.TID 0000.0001) %MON XC_mean                      =   3.0000000000000E+02
(PID.TID 0000.0001) %MON XC_sd                        =   1.1532562594671E+01
(PID.TID 0000.0001) %MON XG_max                       =   3.1800000000000E+02
(PID.TID 0000.0001) %MON XG_min                       =   2.8000000000000E+02
(PID.TID 0000.0001) %MON XG_mean                      =   2.9900000000000E+02
(PID.TID 0000.0001) %MON XG_sd                        =   1.1532562594671E+01
(PID.TID 0000.0001) %MON DXC_max                      =   1.5166951523772E+05
(PID.TID 0000.0001) %MON DXC_min                      =   5.0026831972764E+04
(PID.TID 0000.0001) %MON DXC_mean                     =   1.0305926321463E+05
(PID.TID 0000.0001) %MON DXC_sd                       =   3.1375805318756E+04
(PID.TID 0000.0001) %MON DXF_max                      =   1.5166951523772E+05
(PID.TID 0000.0001) %MON DXF_min                      =   5.0026831972764E+04
(PID.TID 0000.0001) %MON DXF_mean                     =   1.0305926321463E+05
(PID.TID 0000.0001) %MON DXF_sd                       =   3.1375805318756E+04
(PID.TID 0000.0001) %MON DXG_max                      =   1.5448497309243E+05
(PID.TID 0000.0001) %MON DXG_min                      =   5.3800974869835E+04
(PID.TID 0000.0001) %MON DXG_mean                     =   1.0642630187324E+05
(PID.TID 0000.0001) %MON DXG_sd                       =   3.1081829200899E+04
(PID.TID 0000.0001) %MON DXV_max                      =   1.5448497309243E+05
(PID.TID 0000.0001) %MON DXV_min                      =   5.3800974869835E+04
(PID.TID 0000.0001) %MON DXV_mean                     =   1.0642630187324E+05
(PID.TID 0000.0001) %MON DXV_sd                       =   3.1081829200899E+04
(PID.TID 0000.0001) %MON YC_max                       =   7.7000000000000E+01
(PID.TID 0000.0001) %MON YC_min                       =   4.7000000000000E+01
(PID.TID 0000.0001) %MON YC_mean                      =   6.2000000000000E+01
(PID.TID 0000.0001) %MON YC_sd                        =   9.2195444572929E+00
(PID.TID 0000.0001) %MON YG_max                       =   7.6000000000000E+01
(PID.TID 0000.0001) %MON YG_min                       =   4.6000000000000E+01
(PID.TID 0000.0001) %MON YG_mean                      =   6.1000000000000E+01
(PID.TID 0000.0001) %MON YG_sd                        =   9.2195444572929E+00
(PID.TID 0000.0001) %MON DYC_max                      =   2.2238985328912E+05
(PID.TID 0000.0001) %MON DYC_min                      =   2.2238985328912E+05
(PID.TID 0000.0001) %MON DYC_mean                     =   2.2238985328912E+05
(PID.TID 0000.0001) %MON DYC_sd                       =   1.4551915228367E-10
(PID.TID 0000.0001) %MON DYF_max                      =   2.2238985328912E+05
(PID.TID 0000.0001) %MON DYF_min                      =   2.2238985328912E+05
(PID.TID 0000.0001) %MON DYF_mean                     =   2.2238985328912E+05
(PID.TID 0000.0001) %MON DYF_sd                       =   1.4551915228367E-10
(PID.TID 0000.0001) %MON DYG_max                      =   2.2238985328912E+05
(PID.TID 0000.0001) %MON DYG_min                      =   2.2238985328912E+05
(PID.TID 0000.0001) %MON DYG_mean                     =   2.2238985328912E+05
(PID.TID 0000.0001) %MON DYG_sd                       =   1.4551915228367E-10
(PID.TID 0000.0001) %MON DYU_max                      =   2.2238985328912E+05
(PID.TID 0000.0001) %MON DYU_min                      =   2.2238985328912E+05
(PID.TID 0000.0001) %MON DYU_mean                     =   2.2238985328912E+05
(PID.TID 0000.0001) %MON DYU_sd                       =   1.4551915228367E-10
(PID.TID 0000.0001) %MON RA_max                       =   3.3728048822756E+10
(PID.TID 0000.0001) %MON RA_min                       =   1.1124894996734E+10
(PID.TID 0000.0001) %MON RA_mean                      =   2.2918170839356E+10
(PID.TID 0000.0001) %MON RA_sd                        =   6.9773064942263E+09
(PID.TID 0000.0001) %MON RAW_max                      =   3.3728048822756E+10
(PID.TID 0000.0001) %MON RAW_min                      =   1.1124894996734E+10
(PID.TID 0000.0001) %MON RAW_mean                     =   2.2918170839356E+10
(PID.TID 0000.0001) %MON RAW_sd                       =   6.9773064942263E+09
(PID.TID 0000.0001) %MON RAS_max                      =   3.4354146294179E+10
(PID.TID 0000.0001) %MON RAS_min                      =   1.1964183470077E+10
(PID.TID 0000.0001) %MON RAS_mean                     =   2.3666928057229E+10
(PID.TID 0000.0001) %MON RAS_sd                       =   6.9119325076329E+09
(PID.TID 0000.0001) %MON RAZ_max                      =   3.4354146294179E+10
(PID.TID 0000.0001) %MON RAZ_min                      =   1.1964183470077E+10
(PID.TID 0000.0001) %MON RAZ_mean                     =   2.3666928057229E+10
(PID.TID 0000.0001) %MON RAZ_sd                       =   6.9119325076329E+09
(PID.TID 0000.0001) %MON AngleCS_max                  =   1.0000000000000E+00
(PID.TID 0000.0001) %MON AngleCS_min                  =   1.0000000000000E+00
(PID.TID 0000.0001) %MON AngleCS_mean                 =   1.0000000000000E+00
(PID.TID 0000.0001) %MON AngleCS_sd                   =   0.0000000000000E+00
(PID.TID 0000.0001) %MON AngleSN_max                  =   0.0000000000000E+00
(PID.TID 0000.0001) %MON AngleSN_min                  =   0.0000000000000E+00
(PID.TID 0000.0001) %MON AngleSN_mean                 =   0.0000000000000E+00
(PID.TID 0000.0001) %MON AngleSN_sd                   =   0.0000000000000E+00
(PID.TID 0000.0001)  MDS_READ_FIELD: opening global file: bathy.labsea1979
(PID.TID 0000.0001) // =======================================================
(PID.TID 0000.0001) // Field Model R_low (ini_masks_etc)
(PID.TID 0000.0001) // CMIN =         -4.200000000000000E+03
(PID.TID 0000.0001) // CMAX =         -5.500000000000000E+01
(PID.TID 0000.0001) // CINT =          1.535185185185185E+02
(PID.TID 0000.0001) // SYMBOLS (CMIN->CMAX): -abcdefghijklmnopqrstuvwxyz+
(PID.TID 0000.0001) //                  0.0: .
(PID.TID 0000.0001) // RANGE I (Lo:Hi:Step):(    -3:    24:     1)
(PID.TID 0000.0001) // RANGE J (Lo:Hi:Step):(    20:    -3:    -1)
(PID.TID 0000.0001) // RANGE K (Lo:Hi:Step):(   1:   1:   1)
(PID.TID 0000.0001) // =======================================================
(PID.TID 0000.0001) K =   1
(PID.TID 0000.0001) //                I=6       I=8       I=18
(PID.TID 0000.0001) // |--J--|321012345|789012347|901234567|901234
(PID.TID 0000.0001) //     20 cccg............zz......zzmgcccg....
(PID.TID 0000.0001) //     19 gcc-..........+.zz....+.zzxmgcc-....
(PID.TID 0000.0001) //     18 mjc-.......+zzz..z.+zzz..zzsmjc-....
(PID.TID 0000.0001) //     17 wwc-........++z+++..++z+++z+wwc-....
(PID.TID 0000.0001) //     16 .....zyyz........................zyy
(PID.TID 0000.0001) //     15 ....yxwwuspxyxz...pxyxz.........yxww
(PID.TID 0000.0001) //     14 .....+wwspppsxzz..ppsxzz.........+ww
(PID.TID 0000.0001) //     13 ........zwsppsyz..sppsyz............
(PID.TID 0000.0001) //     12 ..........+ypswzz++ypswzz+..........
(PID.TID 0000.0001) //     11 ............+wwy+...+wwy+...........
(PID.TID 0000.0001) //     10 ...........zzzywy+.zzzywy+..........
(PID.TID 0000.0001) //      9 ...z.......+zxsmmm.+zxsmmm+....z....
(PID.TID 0000.0001) //      8 z..s.....zzzxumjjjzzxumjjjjuz..s....
(PID.TID 0000.0001) //      7 jpmj......z.+zmjggz.+zmjggggjpmj....
(PID.TID 0000.0001) //      6 gggg.........zxmjg...zxmjggggggg....
(PID.TID 0000.0001) //      5 gggg..........zzsj....zzsjgggggg....
(PID.TID 0000.0001) //     12 ..........+ypswzz++ypswzz+..........
(PID.TID 0000.0001) //     11 ............+wwy+...+wwy+...........
(PID.TID 0000.0001) //     10 ...........zzzywy+.zzzywy+..........
(PID.TID 0000.0001) //      9 ...z.......+zxsmmm.+zxsmmm+....z....
(PID.TID 0000.0001) //      8 z..s.....zzzxumjjjzzxumjjjjuz..s....
(PID.TID 0000.0001) //      7 jpmj......z.+zmjggz.+zmjggggjpmj....
(PID.TID 0000.0001) //      6 gggg.........zxmjg...zxmjggggggg....
(PID.TID 0000.0001) //      5 gggg..........zzsj....zzsjgggggg....
(PID.TID 0000.0001) //      4 cccg............zz......zzmgcccg....
(PID.TID 0000.0001) //      3 gcc-..........+.zz....+.zzxmgcc-....
(PID.TID 0000.0001) //      2 mjc-.......+zzz..z.+zzz..zzsmjc-....
(PID.TID 0000.0001) //      1 wwc-........++z+++..++z+++z+wwc-....
(PID.TID 0000.0001) //      0 .....zyyz........................zyy
(PID.TID 0000.0001) //     -1 ....yxwwuspxyxz...pxyxz.........yxww
(PID.TID 0000.0001) //     -2 .....+wwspppsxzz..ppsxzz.........+ww
(PID.TID 0000.0001) //     -3 ........zwsppsyz..sppsyz............
(PID.TID 0000.0001) // =======================================================
(PID.TID 0000.0001) // END OF FIELD                                          =
(PID.TID 0000.0001) // =======================================================
(PID.TID 0000.0001) 
(PID.TID 0000.0001) // =======================================================
(PID.TID 0000.0001) // Field Model Ro_surf (ini_masks_etc)
(PID.TID 0000.0001) // CMIN =          1.000000000000000E+32
(PID.TID 0000.0001) // CMAX =         -1.000000000000000E+32
(PID.TID 0000.0001) // CINT =          0.000000000000000E+00
(PID.TID 0000.0001) // SYMBOLS (CMIN->CMAX): -abcdefghijklmnopqrstuvwxyz+
(PID.TID 0000.0001) //                  0.0: .
(PID.TID 0000.0001) // RANGE I (Lo:Hi:Step):(    -3:    24:     1)
(PID.TID 0000.0001) // RANGE J (Lo:Hi:Step):(    20:    -3:    -1)
(PID.TID 0000.0001) // RANGE K (Lo:Hi:Step):(   1:   1:   1)
(PID.TID 0000.0001) // =======================================================
(PID.TID 0000.0001) // =======================================================
(PID.TID 0000.0001) // END OF FIELD                                          =
(PID.TID 0000.0001) // =======================================================
(PID.TID 0000.0001) 
(PID.TID 0000.0001) // =======================================================
(PID.TID 0000.0001) // Field hFacC at iteration          0
(PID.TID 0000.0001) // CMIN =          1.000000000000000E+00
(PID.TID 0000.0001) // CMAX =          1.000000000000000E+00
(PID.TID 0000.0001) // CINT =          0.000000000000000E+00
(PID.TID 0000.0001) // SYMBOLS (CMIN->CMAX): -abcdefghijklmnopqrstuvwxyz+
(PID.TID 0000.0001) //                  0.0: .
(PID.TID 0000.0001) // RANGE I (Lo:Hi:Step):(    -3:    24:     1)
(PID.TID 0000.0001) // RANGE J (Lo:Hi:Step):(    20:    -3:    -1)
(PID.TID 0000.0001) // RANGE K (Lo:Hi:Step):(   1:   1:   1)
(PID.TID 0000.0001) // =======================================================
(PID.TID 0000.0001) // =======================================================
(PID.TID 0000.0001) // END OF FIELD                                          =
(PID.TID 0000.0001) // =======================================================
(PID.TID 0000.0001) 
(PID.TID 0000.0001) // =======================================================
(PID.TID 0000.0001) // Field hFacW at iteration          0
(PID.TID 0000.0001) // CMIN =          1.000000000000000E+00
(PID.TID 0000.0001) // CMAX =          1.000000000000000E+00
(PID.TID 0000.0001) // CINT =          0.000000000000000E+00
(PID.TID 0000.0001) // SYMBOLS (CMIN->CMAX): -abcdefghijklmnopqrstuvwxyz+
(PID.TID 0000.0001) //                  0.0: .
(PID.TID 0000.0001) // RANGE I (Lo:Hi:Step):(    -3:    24:     1)
(PID.TID 0000.0001) // RANGE J (Lo:Hi:Step):(    20:    -3:    -1)
(PID.TID 0000.0001) // RANGE K (Lo:Hi:Step):(   1:   1:   1)
(PID.TID 0000.0001) // =======================================================
(PID.TID 0000.0001) // =======================================================
(PID.TID 0000.0001) // END OF FIELD                                          =
(PID.TID 0000.0001) // =======================================================
(PID.TID 0000.0001) 
(PID.TID 0000.0001) // =======================================================
(PID.TID 0000.0001) // Field hFacS at iteration          0
(PID.TID 0000.0001) // CMIN =          1.000000000000000E+00
(PID.TID 0000.0001) // CMAX =          1.000000000000000E+00
(PID.TID 0000.0001) // CINT =          0.000000000000000E+00
(PID.TID 0000.0001) // SYMBOLS (CMIN->CMAX): -abcdefghijklmnopqrstuvwxyz+
(PID.TID 0000.0001) //                  0.0: .
(PID.TID 0000.0001) // RANGE I (Lo:Hi:Step):(    -3:    24:     1)
(PID.TID 0000.0001) // RANGE J (Lo:Hi:Step):(    20:    -3:    -1)
(PID.TID 0000.0001) // RANGE K (Lo:Hi:Step):(   1:   1:   1)
(PID.TID 0000.0001) // =======================================================
(PID.TID 0000.0001) // =======================================================
(PID.TID 0000.0001) // END OF FIELD                                          =
(PID.TID 0000.0001) // =======================================================
(PID.TID 0000.0001) 
(PID.TID 0000.0001) 
(PID.TID 0000.0001) // =======================================================
(PID.TID 0000.0001) // Calendar configuration >>> START <<<
(PID.TID 0000.0001) // =======================================================
(PID.TID 0000.0001) 
(PID.TID 0000.0001) modelstart = /* Start time of the model integration [s] */
(PID.TID 0000.0001)                 3.600000000000000E+03
(PID.TID 0000.0001)     ;
(PID.TID 0000.0001) modelend  = /* End time of the model integration [s] */
(PID.TID 0000.0001)                 3.600000000000000E+04
(PID.TID 0000.0001)     ;
(PID.TID 0000.0001) modelStep = /* Time interval for a model forward step [s] */
(PID.TID 0000.0001)                 3.600000000000000E+03
(PID.TID 0000.0001)     ;
(PID.TID 0000.0001) usingGregorianCalendar= /* Calendar Type: Gregorian Calendar */
(PID.TID 0000.0001)                   T
(PID.TID 0000.0001)     ;
(PID.TID 0000.0001) usingJulianCalendar = /* Calendar Type: Julian Calendar */
(PID.TID 0000.0001)                   F
(PID.TID 0000.0001)     ;
(PID.TID 0000.0001) usingNoLeapYearCal  = /* Calendar Type: without Leap Year */
(PID.TID 0000.0001)                   F
(PID.TID 0000.0001)     ;
(PID.TID 0000.0001) usingModelCalendar  = /* Calendar Type: Model Calendar */
(PID.TID 0000.0001)                   F
(PID.TID 0000.0001)     ;
(PID.TID 0000.0001) modelStartDate YYYYMMDD = /* Model start date YYYY-MM-DD */
(PID.TID 0000.0001)                19790101
(PID.TID 0000.0001)     ;
(PID.TID 0000.0001)   modelStartDate HHMMSS = /* Model start date HH-MM-SS  */
(PID.TID 0000.0001)                   10000
(PID.TID 0000.0001)     ;
(PID.TID 0000.0001) modelEndDate   YYYYMMDD = /* Model end date YYYY-MM-DD */
(PID.TID 0000.0001)                19790101
(PID.TID 0000.0001)     ;
(PID.TID 0000.0001)   modelEndDate   HHMMSS = /* Model end date HH-MM-SS  */
(PID.TID 0000.0001)                  100000
(PID.TID 0000.0001)     ;
(PID.TID 0000.0001) intyears = /* Number of calendar years affected by the integration */
(PID.TID 0000.0001)                       1
(PID.TID 0000.0001)     ;
(PID.TID 0000.0001) intmonths= /* Number of calendar months affected by the integration */
(PID.TID 0000.0001)                       1
(PID.TID 0000.0001)     ;
(PID.TID 0000.0001) intdays = /* Number of calendar days affected by the integration */
(PID.TID 0000.0001)                       1
(PID.TID 0000.0001)     ;
(PID.TID 0000.0001) modelIter0 = /* Base timestep number  */
(PID.TID 0000.0001)                       1
(PID.TID 0000.0001)     ;
(PID.TID 0000.0001) modelIterEnd = /* Final timestep number  */
(PID.TID 0000.0001)                      10
(PID.TID 0000.0001)     ;
(PID.TID 0000.0001) modelIntSteps= /* Number of model timesteps  */
(PID.TID 0000.0001)                       9
(PID.TID 0000.0001)     ;
(PID.TID 0000.0001) 
(PID.TID 0000.0001) // =======================================================
(PID.TID 0000.0001) // Calendar configuration  >>> END <<<
(PID.TID 0000.0001) // =======================================================
(PID.TID 0000.0001) 
(PID.TID 0000.0001) GAD_INIT_FIXED: GAD_OlMinSize=  1  0  1
(PID.TID 0000.0001) 
(PID.TID 0000.0001) // ===================================
(PID.TID 0000.0001) // GAD parameters :
(PID.TID 0000.0001) // ===================================
(PID.TID 0000.0001) tempAdvScheme =   /* Temp. Horiz.Advection scheme selector */
(PID.TID 0000.0001)                       2
(PID.TID 0000.0001)     ;
(PID.TID 0000.0001) tempVertAdvScheme =   /* Temp. Vert. Advection scheme selector */
(PID.TID 0000.0001)                       2
(PID.TID 0000.0001)     ;
(PID.TID 0000.0001) tempMultiDimAdvec =   /* use Muti-Dim Advec method for Temp */
(PID.TID 0000.0001)                   F
(PID.TID 0000.0001)     ;
(PID.TID 0000.0001) tempSOM_Advection = /* use 2nd Order Moment Advection for Temp */
(PID.TID 0000.0001)                   F
(PID.TID 0000.0001)     ;
(PID.TID 0000.0001) AdamsBashforthGt = /* apply Adams-Bashforth extrapolation on Gt */
(PID.TID 0000.0001)                   T
(PID.TID 0000.0001)     ;
(PID.TID 0000.0001) AdamsBashforth_T = /* apply Adams-Bashforth extrapolation on Temp */
(PID.TID 0000.0001)                   F
(PID.TID 0000.0001)     ;
(PID.TID 0000.0001) saltAdvScheme =   /* Salt. Horiz.advection scheme selector */
(PID.TID 0000.0001)                       2
(PID.TID 0000.0001)     ;
(PID.TID 0000.0001) saltVertAdvScheme =   /* Salt. Vert. Advection scheme selector */
(PID.TID 0000.0001)                       2
(PID.TID 0000.0001)     ;
(PID.TID 0000.0001) saltMultiDimAdvec =   /* use Muti-Dim Advec method for Salt */
(PID.TID 0000.0001)                   F
(PID.TID 0000.0001)     ;
(PID.TID 0000.0001) saltSOM_Advection = /* use 2nd Order Moment Advection for Salt */
(PID.TID 0000.0001)                   F
(PID.TID 0000.0001)     ;
(PID.TID 0000.0001) AdamsBashforthGs = /* apply Adams-Bashforth extrapolation on Gs */
(PID.TID 0000.0001)                   T
(PID.TID 0000.0001)     ;
(PID.TID 0000.0001) AdamsBashforth_S = /* apply Adams-Bashforth extrapolation on Salt */
(PID.TID 0000.0001)                   F
(PID.TID 0000.0001)     ;
(PID.TID 0000.0001) // ===================================
(PID.TID 0000.0001) 
(PID.TID 0000.0001) // =======================================================
(PID.TID 0000.0001) // External forcing (EXF) configuration >>> START <<<
(PID.TID 0000.0001) // =======================================================
(PID.TID 0000.0001) 
(PID.TID 0000.0001)  EXF general parameters:
(PID.TID 0000.0001) 
(PID.TID 0000.0001) exf_iprec = /* exf file precision */
(PID.TID 0000.0001)                      32
(PID.TID 0000.0001)     ;
(PID.TID 0000.0001) useExfYearlyFields = /* add extension _YEAR to input file names */
(PID.TID 0000.0001)                   F
(PID.TID 0000.0001)     ;
(PID.TID 0000.0001) twoDigitYear = /* use 2-digit year extension */
(PID.TID 0000.0001)                   F
(PID.TID 0000.0001)     ;
(PID.TID 0000.0001) useExfCheckRange = /* check for fields range */
(PID.TID 0000.0001)                   T
(PID.TID 0000.0001)     ;
(PID.TID 0000.0001) diags_opOceWeighted = /* weight flux diags by open-ocean fraction */
(PID.TID 0000.0001)                   T
(PID.TID 0000.0001)     ;
(PID.TID 0000.0001) exf_debugLev = /* select EXF-debug printing level */
(PID.TID 0000.0001)                       2
(PID.TID 0000.0001)     ;
(PID.TID 0000.0001) exf_monFreq  = /* EXF monitor frequency [ s ] */
(PID.TID 0000.0001)                 1.000000000000000E+00
(PID.TID 0000.0001)     ;
(PID.TID 0000.0001) repeatPeriod = /* period for cycling forcing dataset [ s ] */
(PID.TID 0000.0001)                 3.162240000000000E+07
(PID.TID 0000.0001)     ;
(PID.TID 0000.0001) climTempFreeze= /* Minimum climatological temperature [deg.C] */
(PID.TID 0000.0001)                -1.900000000000000E+00
(PID.TID 0000.0001)     ;
(PID.TID 0000.0001) windStressMax = /* Maximum absolute windstress [ Pa ] */
(PID.TID 0000.0001)                 2.000000000000000E+00
(PID.TID 0000.0001)     ;
(PID.TID 0000.0001) stressIsOnCgrid = /* set u,v_stress on Arakawa C-grid */
(PID.TID 0000.0001)                   F
(PID.TID 0000.0001)     ;
(PID.TID 0000.0001) rotateStressOnAgrid = /* rotate u,v_stress on Arakawa A-grid */
(PID.TID 0000.0001)                   F
(PID.TID 0000.0001)     ;
(PID.TID 0000.0001) cen2kel = /* conversion of deg. Centigrade to Kelvin [K] */
(PID.TID 0000.0001)                 2.731500000000000E+02
(PID.TID 0000.0001)     ;
(PID.TID 0000.0001) gravity_mks= /* gravitational acceleration [m/s^2] */
(PID.TID 0000.0001)                 9.810000000000000E+00
(PID.TID 0000.0001)     ;
(PID.TID 0000.0001) atmrho =  /* mean atmospheric density [kg/m^3] */
(PID.TID 0000.0001)                 1.200000000000000E+00
(PID.TID 0000.0001)     ;
(PID.TID 0000.0001) atmcp =  /* mean atmospheric specific heat [J/kg/K] */
(PID.TID 0000.0001)                 1.005000000000000E+03
(PID.TID 0000.0001)     ;
(PID.TID 0000.0001) flamb =  /* latent heat of evaporation [J/kg] */
(PID.TID 0000.0001)                 2.500000000000000E+06
(PID.TID 0000.0001)     ;
(PID.TID 0000.0001) flami =  /* latent heat of pure-ice melting [J/kg] */
(PID.TID 0000.0001)                 3.340000000000000E+05
(PID.TID 0000.0001)     ;
(PID.TID 0000.0001) cvapor_fac = /* const. for Saturation calculation [?] */
(PID.TID 0000.0001)                 6.403800000000000E+05
(PID.TID 0000.0001)     ;
(PID.TID 0000.0001) cvapor_exp = /* const. for Saturation calculation [?] */
(PID.TID 0000.0001)                 5.107400000000000E+03
(PID.TID 0000.0001)     ;
(PID.TID 0000.0001) cvapor_fac_ice= /* const. for Saturation calculation [?] */
(PID.TID 0000.0001)                 1.163780000000000E+07
(PID.TID 0000.0001)     ;
(PID.TID 0000.0001) cvapor_exp_ice= /* const. for Saturation calculation [?] */
(PID.TID 0000.0001)                 5.897800000000000E+03
(PID.TID 0000.0001)     ;
(PID.TID 0000.0001) humid_fac = /* humidity coef. in virtual temp. [(kg/kg)^-1] */
(PID.TID 0000.0001)                 6.060000000000000E-01
(PID.TID 0000.0001)     ;
(PID.TID 0000.0001) gamma_blk = /* adiabatic lapse rate [?] */
(PID.TID 0000.0001)                 1.000000000000000E-02
(PID.TID 0000.0001)     ;
(PID.TID 0000.0001) saltsat = /* reduction of Qsat over salty water [-] */
(PID.TID 0000.0001)                 9.800000000000000E-01
(PID.TID 0000.0001)     ;
(PID.TID 0000.0001) noNegativeEvap = /* prevent negative Evaporation */
(PID.TID 0000.0001)                   F
(PID.TID 0000.0001)     ;
(PID.TID 0000.0001) sstExtrapol = /* extrapolation coeff from lev. 1 & 2 to surf [-] */
(PID.TID 0000.0001)                 0.000000000000000E+00
(PID.TID 0000.0001)     ;
(PID.TID 0000.0001) cDrag_1 = /* coef used in drag calculation [?] */
(PID.TID 0000.0001)                 2.700000000000000E-03
(PID.TID 0000.0001)     ;
(PID.TID 0000.0001) cDrag_2 = /* coef used in drag calculation [?] */
(PID.TID 0000.0001)                 1.420000000000000E-04
(PID.TID 0000.0001)     ;
(PID.TID 0000.0001) cDrag_3 = /* coef used in drag calculation [?] */
(PID.TID 0000.0001)                 7.640000000000000E-05
(PID.TID 0000.0001)     ;
(PID.TID 0000.0001) cStanton_1 = /* coef used in Stanton number calculation [?] */
(PID.TID 0000.0001)                 3.270000000000000E-02
(PID.TID 0000.0001)     ;
(PID.TID 0000.0001) cStanton_2 = /* coef used in Stanton number calculation [?] */
(PID.TID 0000.0001)                 1.800000000000000E-02
(PID.TID 0000.0001)     ;
(PID.TID 0000.0001) cDalton = /* coef used in Dalton number calculation [?] */
(PID.TID 0000.0001)                 3.460000000000000E-02
(PID.TID 0000.0001)     ;
(PID.TID 0000.0001) exf_scal_BulkCdn= /* Drag coefficient scaling factor [-] */
(PID.TID 0000.0001)                 1.000000000000000E+00
(PID.TID 0000.0001)     ;
(PID.TID 0000.0001) zolmin = /* minimum stability parameter [?] */
(PID.TID 0000.0001)                -1.000000000000000E+02
(PID.TID 0000.0001)     ;
(PID.TID 0000.0001) psim_fac = /* coef used in turbulent fluxes calculation [-] */
(PID.TID 0000.0001)                 5.000000000000000E+00
(PID.TID 0000.0001)     ;
(PID.TID 0000.0001) zref =  /* reference height [ m ] */
(PID.TID 0000.0001)                 1.000000000000000E+01
(PID.TID 0000.0001)     ;
(PID.TID 0000.0001) hu =  /* height of mean wind [ m ] */
(PID.TID 0000.0001)                 1.000000000000000E+01
(PID.TID 0000.0001)     ;
(PID.TID 0000.0001) ht =  /* height of mean temperature [ m ] */
(PID.TID 0000.0001)                 2.000000000000000E+00
(PID.TID 0000.0001)     ;
(PID.TID 0000.0001) hq =  /* height of mean spec.humidity [ m ] */
(PID.TID 0000.0001)                 2.000000000000000E+00
(PID.TID 0000.0001)     ;
(PID.TID 0000.0001) uMin = /* minimum wind speed [m/s] */
(PID.TID 0000.0001)                 5.000000000000000E-01
(PID.TID 0000.0001)     ;
(PID.TID 0000.0001) useStabilityFct_overIce= /* transfert Coeffs over sea-ice depend on stability */
(PID.TID 0000.0001)                   F
(PID.TID 0000.0001)     ;
(PID.TID 0000.0001) exf_iceCd = /* drag coefficient over sea-ice (fixed) [-] */
(PID.TID 0000.0001)                 1.630000000000000E-03
(PID.TID 0000.0001)     ;
(PID.TID 0000.0001) exf_iceCe = /* transfert coeff. over sea-ice, for Evap (fixed) [-] */
(PID.TID 0000.0001)                 1.630000000000000E-03
(PID.TID 0000.0001)     ;
(PID.TID 0000.0001) exf_iceCh = /* transfert coeff. over sea-ice, Sens.Heat.(fixed)[-] */
(PID.TID 0000.0001)                 1.630000000000000E-03
(PID.TID 0000.0001)     ;
(PID.TID 0000.0001) exf_albedo =  /* Sea-water albedo [-] */
(PID.TID 0000.0001)                 1.000000000000000E-01
(PID.TID 0000.0001)     ;
(PID.TID 0000.0001) useExfZenAlbedo = /* Sea-water albedo varies with zenith angle */
(PID.TID 0000.0001)                   F
(PID.TID 0000.0001)     ;
(PID.TID 0000.0001) select_ZenAlbedo = /* Sea-water albedo computation method */
(PID.TID 0000.0001)                       0
(PID.TID 0000.0001)     ;
(PID.TID 0000.0001) useExfZenIncoming = /* compute incoming solar radiation */
(PID.TID 0000.0001)                   F
(PID.TID 0000.0001)     ;
(PID.TID 0000.0001) ocean_emissivity = /* longwave ocean-surface emissivity [-] */
(PID.TID 0000.0001)                 9.700176366843034E-01
(PID.TID 0000.0001)     ;
(PID.TID 0000.0001) ice_emissivity = /* longwave seaice emissivity [-] */
(PID.TID 0000.0001)                 9.500000000000000E-01
(PID.TID 0000.0001)     ;
(PID.TID 0000.0001) snow_emissivity = /* longwave snow  emissivity [-] */
(PID.TID 0000.0001)                 9.500000000000000E-01
(PID.TID 0000.0001)     ;
(PID.TID 0000.0001) 
(PID.TID 0000.0001)  EXF main CPP flags:
(PID.TID 0000.0001) 
(PID.TID 0000.0001) // USE_EXF_INTERPOLATION:          NOT defined
(PID.TID 0000.0001) // ALLOW_ATM_TEMP:                     defined
(PID.TID 0000.0001) // ALLOW_ATM_WIND (useAtmWind):        defined
(PID.TID 0000.0001) // ALLOW_DOWNWARD_RADIATION:           defined
(PID.TID 0000.0001) // ALLOW_BULKFORMULAE:                 defined
(PID.TID 0000.0001) 
(PID.TID 0000.0001)    Zonal wind forcing starts at                   -1317600.
(PID.TID 0000.0001)    Zonal wind forcing period is                    2635200.
(PID.TID 0000.0001)    Zonal wind forcing repeat-cycle is             31622400.
(PID.TID 0000.0001)    Zonal wind forcing is read from file:
(PID.TID 0000.0001)    >> u10m.labsea1979 <<
(PID.TID 0000.0001) 
(PID.TID 0000.0001)    Meridional wind forcing starts at              -1317600.
(PID.TID 0000.0001)    Meridional wind forcing period is               2635200.
(PID.TID 0000.0001)    Meridional wind forcing repeat-cycle is        31622400.
(PID.TID 0000.0001)    Meridional wind forcing is read from file:
(PID.TID 0000.0001)    >> v10m.labsea1979 <<
(PID.TID 0000.0001) 
(PID.TID 0000.0001)    Atmospheric temperature starts at              -1317600.
(PID.TID 0000.0001)    Atmospheric temperature period is               2635200.
(PID.TID 0000.0001)    Atmospheric temperature repeat-cycle is        31622400.
(PID.TID 0000.0001)    Atmospheric temperature is read from file:
(PID.TID 0000.0001)    >> tair.labsea1979 <<
(PID.TID 0000.0001) 
(PID.TID 0000.0001)    Atmospheric specific humidity starts at        -1317600.
(PID.TID 0000.0001)    Atmospheric specific humidity period is         2635200.
(PID.TID 0000.0001)    Atmospheric specific humidity rep-cycle is     31622400.
(PID.TID 0000.0001)    Atmospheric specific humidity is read from file:
(PID.TID 0000.0001)    >> qa.labsea1979 <<
(PID.TID 0000.0001) 
(PID.TID 0000.0001) // ALLOW_READ_TURBFLUXES:          NOT defined
(PID.TID 0000.0001) // EXF_READ_EVAP:                  NOT defined
(PID.TID 0000.0001) 
(PID.TID 0000.0001)    Precipitation data starts at                   -1317600.
(PID.TID 0000.0001)    Precipitation data period is                    2635200.
(PID.TID 0000.0001)    Precipitation data repeat-cycle is             31622400.
(PID.TID 0000.0001)    Precipitation data is read from file:
(PID.TID 0000.0001)    >> prate.labsea1979 <<
(PID.TID 0000.0001) 
(PID.TID 0000.0001) // ALLOW_RUNOFF:                       defined
(PID.TID 0000.0001) // ALLOW_RUNOFTEMP:                NOT defined
(PID.TID 0000.0001) // ALLOW_SALTFLX:                      defined
(PID.TID 0000.0001) 
(PID.TID 0000.0001)    Downward shortwave flux starts at              -1317600.
(PID.TID 0000.0001)    Downward shortwave flux period is               2635200.
(PID.TID 0000.0001)    Downward shortwave flux repeat-cycle is        31622400.
(PID.TID 0000.0001)    Downward shortwave flux is read from file:
(PID.TID 0000.0001)    >> fsh.labsea1979 <<
(PID.TID 0000.0001) 
(PID.TID 0000.0001)    Downward longwave flux starts at               -1317600.
(PID.TID 0000.0001)    Downward longwave flux period is                2635200.
(PID.TID 0000.0001)    Downward longwave flux repeat-cycle is         31622400.
(PID.TID 0000.0001)    Downward longwave flux is read from file:
(PID.TID 0000.0001)    >> flo.labsea1979 <<
(PID.TID 0000.0001) 
(PID.TID 0000.0001) // =======================================================
(PID.TID 0000.0001) // External forcing (EXF) climatology configuration :
(PID.TID 0000.0001) // =======================================================
(PID.TID 0000.0001) 
(PID.TID 0000.0001) // ALLOW_CLIMSST_RELAXATION:           defined
(PID.TID 0000.0001)    climsst relaxation is NOT used
(PID.TID 0000.0001) 
(PID.TID 0000.0001) // ALLOW_CLIMSSS_RELAXATION:           defined
(PID.TID 0000.0001)    Climatological SSS starts at                   -1317600.
(PID.TID 0000.0001)    Climatological SSS period is                    2635200.
(PID.TID 0000.0001)    Climatological SSS repeat-cycle is             31622400.
(PID.TID 0000.0001)    Climatological SSS is read from file:
(PID.TID 0000.0001)    >> SSS_monthly.labsea1979 <<
(PID.TID 0000.0001) 
(PID.TID 0000.0001) // =======================================================
(PID.TID 0000.0001) // External forcing (EXF) configuration  >>> END <<<
(PID.TID 0000.0001) // =======================================================
(PID.TID 0000.0001) 
(PID.TID 0000.0001) // =======================================================
(PID.TID 0000.0001) // Seaice configuration (SEAICE_PARM01) >>> START <<<
(PID.TID 0000.0001) // =======================================================
(PID.TID 0000.0001) 
(PID.TID 0000.0001)    Seaice time stepping configuration   > START <
(PID.TID 0000.0001)    ----------------------------------------------
(PID.TID 0000.0001) SEAICE_deltaTtherm= /* thermodynamic timestep */
(PID.TID 0000.0001)                 3.600000000000000E+03
(PID.TID 0000.0001)     ;
(PID.TID 0000.0001) SEAICE_deltaTdyn  = /* dynamic timestep */
(PID.TID 0000.0001)                 3.600000000000000E+03
(PID.TID 0000.0001)     ;
(PID.TID 0000.0001) SEAICE_deltaTevp  = /* EVP timestep */
(PID.TID 0000.0001)                 1.234567000000000E+05
(PID.TID 0000.0001)     ;
(PID.TID 0000.0001) SEAICEuseBDF2  = /* use backw. differencing for mom. eq. */
(PID.TID 0000.0001)                   F
(PID.TID 0000.0001)     ;
(PID.TID 0000.0001) SEAICEupdateOceanStress= /* update Ocean surf. stress */
(PID.TID 0000.0001)                   T
(PID.TID 0000.0001)     ;
(PID.TID 0000.0001) SEAICErestoreUnderIce  = /* restore T and S under ice */
(PID.TID 0000.0001)                   F
(PID.TID 0000.0001)     ;
(PID.TID 0000.0001) 
(PID.TID 0000.0001)    Seaice dynamics configuration   > START <
(PID.TID 0000.0001)    ------------------------------------------
(PID.TID 0000.0001) SEAICEuseDYNAMICS = /* use dynamics */
(PID.TID 0000.0001)                   T
(PID.TID 0000.0001)     ;
(PID.TID 0000.0001) model grid type   = /* type of sea ice model grid */
(PID.TID 0000.0001)               'C-GRID'
(PID.TID 0000.0001)     ;
(PID.TID 0000.0001) SEAICEuseStrImpCpl = /* use strongly implicit coupling */
(PID.TID 0000.0001)                   F
(PID.TID 0000.0001)     ;
(PID.TID 0000.0001) SEAICEusePicardAsPrecon = /* Picard as preconditioner */
(PID.TID 0000.0001)                   F
(PID.TID 0000.0001)     ;
(PID.TID 0000.0001) SEAICEuseLSR      = /* use default Picard-LSR solver */
(PID.TID 0000.0001)                   T
(PID.TID 0000.0001)     ;
(PID.TID 0000.0001) SEAICEuseKrylov   = /* use Picard-Krylov solver */
(PID.TID 0000.0001)                   F
(PID.TID 0000.0001)     ;
(PID.TID 0000.0001) SEAICEuseEVP      = /* use EVP solver rather than LSR */
(PID.TID 0000.0001)                   F
(PID.TID 0000.0001)     ;
(PID.TID 0000.0001) SEAICEuseJFNK     = /* use JFNK solver */
(PID.TID 0000.0001)                   F
(PID.TID 0000.0001)     ;
(PID.TID 0000.0001) SEAICEuseFREEDRIFT = /* use free drift solution */
(PID.TID 0000.0001)                   F
(PID.TID 0000.0001)     ;
(PID.TID 0000.0001) OCEAN_drag        = /* air-ocean drag coefficient */
(PID.TID 0000.0001)                 1.000000000000000E-03
(PID.TID 0000.0001)     ;
(PID.TID 0000.0001) SEAICE_drag       = /* air-ice drag coefficient */
(PID.TID 0000.0001)                 1.000000000000000E-03
(PID.TID 0000.0001)     ;
(PID.TID 0000.0001) SEAICE_drag_south      = /* Southern Ocean SEAICE_drag */
(PID.TID 0000.0001)                 1.000000000000000E-03
(PID.TID 0000.0001)     ;
(PID.TID 0000.0001) SEAICE_waterDrag  = /* water-ice drag (no units) */
(PID.TID 0000.0001)                 5.355404089581304E-03
(PID.TID 0000.0001)     ;
(PID.TID 0000.0001) SEAICE_waterDrag_south = /* Southern Ocean waterDrag (no units) */
(PID.TID 0000.0001)                 5.355404089581304E-03
(PID.TID 0000.0001)     ;
(PID.TID 0000.0001) SEAICEdWatMin = /* minimum linear water-ice drag (in m/s) */
(PID.TID 0000.0001)                 2.500000000000000E-01
(PID.TID 0000.0001)     ;
(PID.TID 0000.0001) SEAICEbasalDragK2 = /* Basal drag parameter */
(PID.TID 0000.0001)                 0.000000000000000E+00
(PID.TID 0000.0001)     ;
(PID.TID 0000.0001) SEAICEuseTilt     = /* include surface tilt in dyna. */
(PID.TID 0000.0001)                   T
(PID.TID 0000.0001)     ;
(PID.TID 0000.0001) SEAICEuseTEM      = /* use truncated ellipse rheology */
(PID.TID 0000.0001)                   F
(PID.TID 0000.0001)     ;
(PID.TID 0000.0001) SEAICE_strength   = /* sea-ice strength Pstar */
(PID.TID 0000.0001)                 2.750000000000000E+04
(PID.TID 0000.0001)     ;
(PID.TID 0000.0001) SEAICE_cStar      = /* sea-ice strength parameter cStar */
(PID.TID 0000.0001)                 2.000000000000000E+01
(PID.TID 0000.0001)     ;
(PID.TID 0000.0001) SEAICEpressReplFac= /* press. replacement method factor */
(PID.TID 0000.0001)                 1.000000000000000E+00
(PID.TID 0000.0001)     ;
(PID.TID 0000.0001) SEAICE_tensilFac  = /* sea-ice tensile strength factor */
(PID.TID 0000.0001)                 0.000000000000000E+00
(PID.TID 0000.0001)     ;
(PID.TID 0000.0001) SEAICE_tensilDepth= /* crit. depth for tensile strength */
(PID.TID 0000.0001)                 0.000000000000000E+00
(PID.TID 0000.0001)     ;
(PID.TID 0000.0001) SEAICEpresH0   = /* sea-ice strength Heff threshold */
(PID.TID 0000.0001)                 1.000000000000000E+00
(PID.TID 0000.0001)     ;
(PID.TID 0000.0001) SEAICEpresPow0 = /* exponent for Heff<SEAICEpresH0 */
(PID.TID 0000.0001)                       1
(PID.TID 0000.0001)     ;
(PID.TID 0000.0001) SEAICEpresPow1 = /* exponent for Heff>SEAICEpresH0 */
(PID.TID 0000.0001)                       1
(PID.TID 0000.0001)     ;
(PID.TID 0000.0001) SEAICEetaZmethod = /* method computing eta at Z-point */
(PID.TID 0000.0001)                       0
(PID.TID 0000.0001)     ;
(PID.TID 0000.0001) SEAICE_zetaMaxFac = /* factor for upper viscosity bound */
(PID.TID 0000.0001)                 2.500000000000000E+08
(PID.TID 0000.0001)     ;
(PID.TID 0000.0001) SEAICE_zetaMin    = /* lower bound for viscosity */
(PID.TID 0000.0001)                 0.000000000000000E+00
(PID.TID 0000.0001)     ;
(PID.TID 0000.0001) SEAICE_eccen    = /* elliptical yield curve eccent */
(PID.TID 0000.0001)                 2.000000000000000E+00
(PID.TID 0000.0001)     ;
(PID.TID 0000.0001) SEAICEstressFactor    = /* wind stress scaling factor */
(PID.TID 0000.0001)                 1.000000000000000E+00
(PID.TID 0000.0001)     ;
(PID.TID 0000.0001) SEAICE_airTurnAngle    = /* air-ice turning angle */
(PID.TID 0000.0001)                 0.000000000000000E+00
(PID.TID 0000.0001)     ;
(PID.TID 0000.0001) SEAICE_waterTurnAngle  = /* ice-water turning angle */
(PID.TID 0000.0001)                 0.000000000000000E+00
(PID.TID 0000.0001)     ;
(PID.TID 0000.0001) SEAICEuseMetricTerms = /* use metric terms */
(PID.TID 0000.0001)                   T
(PID.TID 0000.0001)     ;
(PID.TID 0000.0001) SEAICE_no_slip    = /* no slip boundary conditions */
(PID.TID 0000.0001)                   T
(PID.TID 0000.0001)     ;
(PID.TID 0000.0001) SEAICE_2ndOrderBC = /* 2nd order no slip boundary conditions */
(PID.TID 0000.0001)                   F
(PID.TID 0000.0001)     ;
(PID.TID 0000.0001) SEAICE_clipVeloctities = /* impose max. vels. */
(PID.TID 0000.0001)                   F
(PID.TID 0000.0001)     ;
(PID.TID 0000.0001) useHB87stressCoupling  = /* altern. ice-ocean stress */
(PID.TID 0000.0001)                   F
(PID.TID 0000.0001)     ;
(PID.TID 0000.0001) SEAICEscaleSurfStress  = /* scale atm. and ocean-surface stress with AREA */
(PID.TID 0000.0001)                   F
(PID.TID 0000.0001)     ;
(PID.TID 0000.0001) SEAICE_maskRHS    = /* mask RHS of solver */
(PID.TID 0000.0001)                   F
(PID.TID 0000.0001)     ;
(PID.TID 0000.0001) SEAICEaddSnowMass = /* add snow mass to seaiceMassC/U/V */
(PID.TID 0000.0001)                   F
(PID.TID 0000.0001)     ;
(PID.TID 0000.0001) LSR_mixIniGuess = /* mix free-drift sol. into LSR initial Guess */
(PID.TID 0000.0001)                       0
(PID.TID 0000.0001)     ;
(PID.TID 0000.0001) SEAICE_LSRrelaxU  = /* LSR solver: relaxation parameter */
(PID.TID 0000.0001)                 9.500000000000000E-01
(PID.TID 0000.0001)     ;
(PID.TID 0000.0001) SEAICE_LSRrelaxV  = /* LSR solver: relaxation parameter */
(PID.TID 0000.0001)                 9.500000000000000E-01
(PID.TID 0000.0001)     ;
(PID.TID 0000.0001) LSR_ERROR         = /* sets accuracy of LSR solver */
(PID.TID 0000.0001)                 1.000000000000000E-04
(PID.TID 0000.0001)     ;
(PID.TID 0000.0001) SOLV_NCHECK       = /* test interval for LSR solver */
(PID.TID 0000.0001)                       2
(PID.TID 0000.0001)     ;
(PID.TID 0000.0001) SEAICEuseMultiTileSolver = /* use full domain tri-diag solver */
(PID.TID 0000.0001)                   F
(PID.TID 0000.0001)     ;
(PID.TID 0000.0001) SEAICE_OLx = /* overlap for LSR/preconditioner */
(PID.TID 0000.0001)                       0
(PID.TID 0000.0001)     ;
(PID.TID 0000.0001) SEAICE_OLy = /* overlap for LSR/preconditioner */
(PID.TID 0000.0001)                       0
(PID.TID 0000.0001)     ;
(PID.TID 0000.0001) SEAICEnonLinIterMax = /* max. number of nonlinear solver steps */
(PID.TID 0000.0001)                       2
(PID.TID 0000.0001)     ;
(PID.TID 0000.0001) SEAICElinearIterMax = /* max. number of linear solver steps */
(PID.TID 0000.0001)                    1500
(PID.TID 0000.0001)     ;
(PID.TID 0000.0001) SEAICEnonLinTol     = /* non-linear solver tolerance */
(PID.TID 0000.0001)                 0.000000000000000E+00
(PID.TID 0000.0001)     ;
(PID.TID 0000.0001) 
(PID.TID 0000.0001)    Seaice advection diffusion config,   > START <
(PID.TID 0000.0001)    -----------------------------------------------
(PID.TID 0000.0001) SEAICEmomAdvection = /* advect sea ice momentum */
(PID.TID 0000.0001)                   F
(PID.TID 0000.0001)     ;
(PID.TID 0000.0001) SEAICEadvHeff = /* advect effective ice thickness */
(PID.TID 0000.0001)                   T
(PID.TID 0000.0001)     ;
(PID.TID 0000.0001) SEAICEadvArea = /* advect fractional ice area */
(PID.TID 0000.0001)                   T
(PID.TID 0000.0001)     ;
(PID.TID 0000.0001) SEAICEadvSnow = /* advect snow layer together with ice */
(PID.TID 0000.0001)                   T
(PID.TID 0000.0001)     ;
(PID.TID 0000.0001) SEAICEadvScheme   = /* advection scheme for ice */
(PID.TID 0000.0001)                       7
(PID.TID 0000.0001)     ;
(PID.TID 0000.0001) SEAICEadvSchArea   = /* advection scheme for area */
(PID.TID 0000.0001)                       7
(PID.TID 0000.0001)     ;
(PID.TID 0000.0001) SEAICEadvSchHeff   = /* advection scheme for thickness */
(PID.TID 0000.0001)                       7
(PID.TID 0000.0001)     ;
(PID.TID 0000.0001) SEAICEadvSchSnow   = /* advection scheme for snow */
(PID.TID 0000.0001)                       7
(PID.TID 0000.0001)     ;
(PID.TID 0000.0001) SEAICEdiffKhArea   = /* diffusivity (m^2/s) for area */
(PID.TID 0000.0001)                 0.000000000000000E+00
(PID.TID 0000.0001)     ;
(PID.TID 0000.0001) SEAICEdiffKhHeff   = /* diffusivity (m^2/s) for heff */
(PID.TID 0000.0001)                 0.000000000000000E+00
(PID.TID 0000.0001)     ;
(PID.TID 0000.0001) SEAICEdiffKhSnow   = /* diffusivity (m^2/s) for snow */
(PID.TID 0000.0001)                 0.000000000000000E+00
(PID.TID 0000.0001)     ;
(PID.TID 0000.0001) DIFF1             = /* parameter used in advect.F [m/s] */
(PID.TID 0000.0001)                 0.000000000000000E+00
(PID.TID 0000.0001)     ;
(PID.TID 0000.0001) 
(PID.TID 0000.0001)    Seaice thermodynamics configuration   > START <
(PID.TID 0000.0001)    -----------------------------------------------
(PID.TID 0000.0001) SEAICE_rhoIce     = /* density of sea ice (kg/m3) */
(PID.TID 0000.0001)                 9.100000000000000E+02
(PID.TID 0000.0001)     ;
(PID.TID 0000.0001) SEAICE_rhoSnow    = /* density of snow (kg/m3) */
(PID.TID 0000.0001)                 3.300000000000000E+02
(PID.TID 0000.0001)     ;
(PID.TID 0000.0001) SEAICE_rhoAir     = /* density of air (kg/m3) */
(PID.TID 0000.0001)                 1.200000000000000E+00
(PID.TID 0000.0001)     ;
(PID.TID 0000.0001) usePW79thermodynamics  = /* default 0-layer TD */
(PID.TID 0000.0001)                   T
(PID.TID 0000.0001)     ;
(PID.TID 0000.0001) SEAICE_lhEvap     = /* latent heat of evaporation */
(PID.TID 0000.0001)                 2.500000000000000E+06
(PID.TID 0000.0001)     ;
(PID.TID 0000.0001) SEAICE_lhFusion   = /* latent heat of fusion */
(PID.TID 0000.0001)                 3.340000000000000E+05
(PID.TID 0000.0001)     ;
(PID.TID 0000.0001) SEAICE_mcPheePiston = /* turbulent flux "piston velocity" a la McPhee (m/s) */
(PID.TID 0000.0001)                 8.749999999999999E-04
(PID.TID 0000.0001)     ;
(PID.TID 0000.0001) SEAICE_mcPheeTaper = /* tapering of turbulent flux (0.< <1.) for AREA=1. */
(PID.TID 0000.0001)                 9.200000000000000E-01
(PID.TID 0000.0001)     ;
(PID.TID 0000.0001) SEAICE_mcPheeStepFunc = /* replace linear tapering with step funct. */
(PID.TID 0000.0001)                   F
(PID.TID 0000.0001)     ;
(PID.TID 0000.0001) SEAICE_frazilFrac = /* frazil (T<tempFrz) to seaice conversion rate (0.< <1.) */
(PID.TID 0000.0001)                 1.000000000000000E+00
(PID.TID 0000.0001)     ;
(PID.TID 0000.0001) SEAICE_tempFrz0   = /* freezing temp. of sea water (intercept) */
(PID.TID 0000.0001)                 9.010000000000000E-02
(PID.TID 0000.0001)     ;
(PID.TID 0000.0001) SEAICE_dTempFrz_dS= /* freezing temp. of sea water (slope) */
(PID.TID 0000.0001)                -5.750000000000000E-02
(PID.TID 0000.0001)     ;
(PID.TID 0000.0001) SEAICE_growMeltByConv  = /* grow,melt by vert. conv. */
(PID.TID 0000.0001)                   F
(PID.TID 0000.0001)     ;
(PID.TID 0000.0001) SEAICE_doOpenWaterGrowth = /* grow by open water */
(PID.TID 0000.0001)                   T
(PID.TID 0000.0001)     ;
(PID.TID 0000.0001) SEAICE_doOpenWaterMelt = /* melt by open water */
(PID.TID 0000.0001)                   F
(PID.TID 0000.0001)     ;
(PID.TID 0000.0001) SEAICE_areaGainFormula = /* ice cover gain formula (1,2)*/
(PID.TID 0000.0001)                       1
(PID.TID 0000.0001)     1=from growth by ATM
(PID.TID 0000.0001)     2=from predicted growth by ATM
(PID.TID 0000.0001)     ;
(PID.TID 0000.0001) SEAICE_areaLossFormula = /* ice cover loss formula (1,2)*/
(PID.TID 0000.0001)                       1
(PID.TID 0000.0001)     1=from all but only melt conributions by ATM and OCN
(PID.TID 0000.0001)     2=from net melt-grow>0 by ATM and OCN
(PID.TID 0000.0001)     3=from predicted melt by ATM
(PID.TID 0000.0001)     ;
(PID.TID 0000.0001) HO                = /* nominal thickness of new ice */
(PID.TID 0000.0001)                 5.000000000000000E-01
(PID.TID 0000.0001)     ;
(PID.TID 0000.0001) HO_south               = /* Southern Ocean HO */
(PID.TID 0000.0001)                 5.000000000000000E-01
(PID.TID 0000.0001)     ;
(PID.TID 0000.0001) SEAICE_area_max        = /* set to les than 1. to mimic open leads */
(PID.TID 0000.0001)                 1.000000000000000E+00
(PID.TID 0000.0001)     ;
(PID.TID 0000.0001) SEAICE_salt0   = /* constant sea ice salinity */
(PID.TID 0000.0001)                 4.000000000000000E+00
(PID.TID 0000.0001)     ;
(PID.TID 0000.0001) SEAICE_salinityTracer = /* test SITR varia. salinity */
(PID.TID 0000.0001)                   F
(PID.TID 0000.0001)     ;
(PID.TID 0000.0001) SEAICEuseFlooding = /* turn submerged snow into ice */
(PID.TID 0000.0001)                   T
(PID.TID 0000.0001)     ;
(PID.TID 0000.0001) 
(PID.TID 0000.0001)    Seaice air-sea fluxes configuration,   > START <
(PID.TID 0000.0001)    -----------------------------------------------
(PID.TID 0000.0001) SEAICEheatConsFix  = /* accound for ocn<->seaice advect. heat flux */
(PID.TID 0000.0001)                   F
(PID.TID 0000.0001)     ;
(PID.TID 0000.0001) SEAICE_multDim    = /* number of ice categories (1 or 7) */
(PID.TID 0000.0001)                       7
(PID.TID 0000.0001)     ;
(PID.TID 0000.0001) SEAICE_PDF        = /* sea-ice distribution (-) */
(PID.TID 0000.0001)     7 @  1.428571428571428E-01              /* K =  1:  7 */
(PID.TID 0000.0001)     ;
(PID.TID 0000.0001) IMAX_TICE         = /* iterations for ice surface temp */
(PID.TID 0000.0001)                      10
(PID.TID 0000.0001)     ;
(PID.TID 0000.0001) postSolvTempIter= /* flux calculation after surf. temp iter */
(PID.TID 0000.0001)                       2
(PID.TID 0000.0001)     ;
(PID.TID 0000.0001) SEAICE_dryIceAlb  = /* winter albedo */
(PID.TID 0000.0001)                 7.500000000000000E-01
(PID.TID 0000.0001)     ;
(PID.TID 0000.0001) SEAICE_wetIceAlb  = /* summer albedo */
(PID.TID 0000.0001)                 6.600000000000000E-01
(PID.TID 0000.0001)     ;
(PID.TID 0000.0001) SEAICE_drySnowAlb = /* dry snow albedo */
(PID.TID 0000.0001)                 8.400000000000000E-01
(PID.TID 0000.0001)     ;
(PID.TID 0000.0001) SEAICE_wetSnowAlb = /* wet snow albedo */
(PID.TID 0000.0001)                 7.000000000000000E-01
(PID.TID 0000.0001)     ;
(PID.TID 0000.0001) SEAICE_dryIceAlb_south = /* Southern Ocean dryIceAlb */
(PID.TID 0000.0001)                 7.500000000000000E-01
(PID.TID 0000.0001)     ;
(PID.TID 0000.0001) SEAICE_wetIceAlb_south = /* Southern Ocean wetIceAlb */
(PID.TID 0000.0001)                 6.600000000000000E-01
(PID.TID 0000.0001)     ;
(PID.TID 0000.0001) SEAICE_drySnowAlb_south= /* Southern Ocean drySnowAlb */
(PID.TID 0000.0001)                 8.400000000000000E-01
(PID.TID 0000.0001)     ;
(PID.TID 0000.0001) SEAICE_wetSnowAlb_south= /* Southern Ocean wetSnowAlb */
(PID.TID 0000.0001)                 7.000000000000000E-01
(PID.TID 0000.0001)     ;
(PID.TID 0000.0001) SEAICE_wetAlbTemp= /* Temp (o.C) threshold for wet-albedo */
(PID.TID 0000.0001)                 0.000000000000000E+00
(PID.TID 0000.0001)     ;
(PID.TID 0000.0001) SEAICE_snow_emiss = /* snow emissivity */
(PID.TID 0000.0001)                 9.500000000000000E-01
(PID.TID 0000.0001)     ;
(PID.TID 0000.0001) SEAICE_ice_emiss = /* seaice emissivity */
(PID.TID 0000.0001)                 9.500000000000000E-01
(PID.TID 0000.0001)     ;
(PID.TID 0000.0001) SEAICE_cpAir      = /* heat capacity of air */
(PID.TID 0000.0001)                 1.005000000000000E+03
(PID.TID 0000.0001)     ;
(PID.TID 0000.0001) SEAICE_dalton     = /* constant dalton number */
(PID.TID 0000.0001)                 1.750000000000000E-03
(PID.TID 0000.0001)     ;
(PID.TID 0000.0001) SEAICE_iceConduct = /* sea-ice conductivity */
(PID.TID 0000.0001)                 2.165600000000000E+00
(PID.TID 0000.0001)     ;
(PID.TID 0000.0001) SEAICE_snowConduct= /* snow conductivity */
(PID.TID 0000.0001)                 3.100000000000000E-01
(PID.TID 0000.0001)     ;
(PID.TID 0000.0001) SEAICE_snowThick  = /* cutoff snow thickness (for albedo) */
(PID.TID 0000.0001)                 1.500000000000000E-01
(PID.TID 0000.0001)     ;
(PID.TID 0000.0001) SEAICE_shortwave  = /* penetration shortwave radiation */
(PID.TID 0000.0001)                 3.000000000000000E-01
(PID.TID 0000.0001)     ;
(PID.TID 0000.0001) useMaykutSatVapPoly = /* use Maykut Polynomial for Sat.Vap.Pr */
(PID.TID 0000.0001)                   F
(PID.TID 0000.0001)     ;
(PID.TID 0000.0001) MIN_ATEMP         = /* minimum air temperature */
(PID.TID 0000.0001)                -5.000000000000000E+01
(PID.TID 0000.0001)     ;
(PID.TID 0000.0001) MIN_LWDOWN        = /* minimum downward longwave */
(PID.TID 0000.0001)                 6.000000000000000E+01
(PID.TID 0000.0001)     ;
(PID.TID 0000.0001) MIN_TICE          = /* minimum ice temperature */
(PID.TID 0000.0001)                -5.000000000000000E+01
(PID.TID 0000.0001)     ;
(PID.TID 0000.0001) 
(PID.TID 0000.0001)    Seaice initialization and IO config.,   > START <
(PID.TID 0000.0001)    -------------------------------------------------
(PID.TID 0000.0001) SEAICE_initialHEFF= /* initial sea-ice thickness */
(PID.TID 0000.0001)                 0.000000000000000E+00
(PID.TID 0000.0001)     ;
(PID.TID 0000.0001) AreaFile = /* Initial ice concentration File */
(PID.TID 0000.0001)               ''
(PID.TID 0000.0001)     ;
(PID.TID 0000.0001) HeffFile = /* Initial effective ice thickness File */
(PID.TID 0000.0001)               ''
(PID.TID 0000.0001)     ;
(PID.TID 0000.0001) HsnowFile = /* Initial snow thickness File */
(PID.TID 0000.0001)               ''
(PID.TID 0000.0001)     ;
(PID.TID 0000.0001) uIceFile = /* Initial U-ice velocity File */
(PID.TID 0000.0001)               ''
(PID.TID 0000.0001)     ;
(PID.TID 0000.0001) vIceFile = /* Initial V-ice velocity File */
(PID.TID 0000.0001)               ''
(PID.TID 0000.0001)     ;
(PID.TID 0000.0001) SEAICEwriteState  = /* write sea ice state to file */
(PID.TID 0000.0001)                   T
(PID.TID 0000.0001)     ;
(PID.TID 0000.0001) SEAICE_monFreq  = /* monitor frequency */
(PID.TID 0000.0001)                 1.000000000000000E+00
(PID.TID 0000.0001)     ;
(PID.TID 0000.0001) SEAICE_dumpFreq   = /* dump frequency */
(PID.TID 0000.0001)                 0.000000000000000E+00
(PID.TID 0000.0001)     ;
(PID.TID 0000.0001) SEAICE_taveFreq   = /* time-averaging frequency */
(PID.TID 0000.0001)                 3.600000000000000E+04
(PID.TID 0000.0001)     ;
(PID.TID 0000.0001) SEAICE_mon_stdio  = /* write monitor to std-outp */
(PID.TID 0000.0001)                   T
(PID.TID 0000.0001)     ;
(PID.TID 0000.0001) SEAICE_dump_mdsio = /* write snap-shot   using MDSIO */
(PID.TID 0000.0001)                   F
(PID.TID 0000.0001)     ;
(PID.TID 0000.0001) SEAICE_tave_mdsio = /* write TimeAverage using MDSIO */
(PID.TID 0000.0001)                   F
(PID.TID 0000.0001)     ;
(PID.TID 0000.0001) SEAICE_mon_mnc    = /* write monitor to netcdf file */
(PID.TID 0000.0001)                   F
(PID.TID 0000.0001)     ;
(PID.TID 0000.0001) SEAICE_dump_mnc   = /* write snap-shot   using MNC */
(PID.TID 0000.0001)                   T
(PID.TID 0000.0001)     ;
(PID.TID 0000.0001) SEAICE_tave_mnc   = /* write TimeAverage using MNC */
(PID.TID 0000.0001)                   T
(PID.TID 0000.0001)     ;
(PID.TID 0000.0001) SItrNumInUse = /* number of tracers that are in use (<SItrMaxNum) */
(PID.TID 0000.0001)                       2
(PID.TID 0000.0001)     ;
(PID.TID 0000.0001) == SItracer no.   1 is in use and defined as
(PID.TID 0000.0001)   -- SItrMate = /* tracer of HEFF or AREA */
(PID.TID 0000.0001)               'AREA'
(PID.TID 0000.0001)     ;
(PID.TID 0000.0001)   -- SItrName = /* tracer name*/
(PID.TID 0000.0001)               'age'
(PID.TID 0000.0001)     ;
(PID.TID 0000.0001)   -- SItrNameLong = /* tracer long name*/
(PID.TID 0000.0001)               ''
(PID.TID 0000.0001)     ;
(PID.TID 0000.0001)   -- SItrFile = /* tracer initial condition file */
(PID.TID 0000.0001)               ''
(PID.TID 0000.0001)     ;
(PID.TID 0000.0001)   -- SItrUnit = /* tracer unit */
(PID.TID 0000.0001)               's'
(PID.TID 0000.0001)     ;
(PID.TID 0000.0001)   -- SItrFromOcean0 = /* for new ice from freeze */
(PID.TID 0000.0001)                 0.000000000000000E+00
(PID.TID 0000.0001)     ;
(PID.TID 0000.0001)   -- SItrFromOceanFrac = /* for new ice from freeze */
(PID.TID 0000.0001)                 0.000000000000000E+00
(PID.TID 0000.0001)     ;
(PID.TID 0000.0001)   -- SItrFromFlood0 = /* for new ice from freeze */
(PID.TID 0000.0001)                 0.000000000000000E+00
(PID.TID 0000.0001)     ;
(PID.TID 0000.0001)   -- SItrFromFloodFrac = /* for new ice from freeze */
(PID.TID 0000.0001)                 0.000000000000000E+00
(PID.TID 0000.0001)     ;
(PID.TID 0000.0001)   -- SItrExpand0 = /* for ice cover thermo. expans. */
(PID.TID 0000.0001)                 0.000000000000000E+00
(PID.TID 0000.0001)     ;
(PID.TID 0000.0001) == SItracer no.   2 is in use and defined as
(PID.TID 0000.0001)   -- SItrMate = /* tracer of HEFF or AREA */
(PID.TID 0000.0001)               'HEFF'
(PID.TID 0000.0001)     ;
(PID.TID 0000.0001)   -- SItrName = /* tracer name*/
(PID.TID 0000.0001)               'one'
(PID.TID 0000.0001)     ;
(PID.TID 0000.0001)   -- SItrNameLong = /* tracer long name*/
(PID.TID 0000.0001)               ''
(PID.TID 0000.0001)     ;
(PID.TID 0000.0001)   -- SItrFile = /* tracer initial condition file */
(PID.TID 0000.0001)               ''
(PID.TID 0000.0001)     ;
(PID.TID 0000.0001)   -- SItrUnit = /* tracer unit */
(PID.TID 0000.0001)               ''
(PID.TID 0000.0001)     ;
(PID.TID 0000.0001)   -- SItrFromOcean0 = /* for new ice from freeze */
(PID.TID 0000.0001)                 1.000000000000000E+00
(PID.TID 0000.0001)     ;
(PID.TID 0000.0001)   -- SItrFromOceanFrac = /* for new ice from freeze */
(PID.TID 0000.0001)                 0.000000000000000E+00
(PID.TID 0000.0001)     ;
(PID.TID 0000.0001)   -- SItrFromFlood0 = /* for new ice from freeze */
(PID.TID 0000.0001)                 1.000000000000000E+00
(PID.TID 0000.0001)     ;
(PID.TID 0000.0001)   -- SItrFromFloodFrac = /* for new ice from freeze */
(PID.TID 0000.0001)                 0.000000000000000E+00
(PID.TID 0000.0001)     ;
(PID.TID 0000.0001)   -- SItrExpand0 = /* for ice cover thermo. expans. */
(PID.TID 0000.0001)                 1.000000000000000E+00
(PID.TID 0000.0001)     ;
(PID.TID 0000.0001) 
(PID.TID 0000.0001)    Seaice regularization numbers,   > START <
(PID.TID 0000.0001)    -----------------------------------------------
(PID.TID 0000.0001) SEAICE_deltaMin   = /* reduce singularities in Delta */
(PID.TID 0000.0001)                 1.000000000000000E-10
(PID.TID 0000.0001)     ;
(PID.TID 0000.0001) SEAICE_EPS        = /* small number */
(PID.TID 0000.0001)                 1.000000000000000E-10
(PID.TID 0000.0001)     ;
(PID.TID 0000.0001) SEAICE_EPS_SQ     = /* small number squared */
(PID.TID 0000.0001)                 1.000000000000000E-20
(PID.TID 0000.0001)     ;
(PID.TID 0000.0001) SEAICE_area_reg   = /* reduce derivative singularities */
(PID.TID 0000.0001)                 1.000000000000000E-05
(PID.TID 0000.0001)     ;
(PID.TID 0000.0001) SEAICE_hice_reg   = /* reduce derivative singularities */
(PID.TID 0000.0001)                 5.000000000000000E-02
(PID.TID 0000.0001)     ;
(PID.TID 0000.0001) SEAICE_area_floor = /* reduce derivative singularities */
(PID.TID 0000.0001)                 1.000000000000000E-05
(PID.TID 0000.0001)     ;
(PID.TID 0000.0001) 
(PID.TID 0000.0001) // =======================================================
(PID.TID 0000.0001) // Seaice configuration (SEAICE_PARM01) >>> END <<<
(PID.TID 0000.0001) // =======================================================
(PID.TID 0000.0001) 
(PID.TID 0000.0001) ------------------------------------------------------------
(PID.TID 0000.0001) DIAGNOSTICS_SET_LEVELS: done
(PID.TID 0000.0001)  Total Nb of available Diagnostics: ndiagt=   333
(PID.TID 0000.0001)  write list of available Diagnostics to file: available_diagnostics.log
(PID.TID 0000.0001) SETDIAG: Allocate  1 x  1 Levels for Diagnostic #   197 EXFtaux
(PID.TID 0000.0001) SETDIAG: Allocate  1 x  1 Levels for Diagnostic #   198 EXFtauy
(PID.TID 0000.0001) SETDIAG: Allocate  1 x  1 Levels for Diagnostic #   196 EXFqnet
(PID.TID 0000.0001) SETDIAG: Allocate  1 x  1 Levels for Diagnostic #   207 EXFempmr
(PID.TID 0000.0001) SETDIAG: Allocate  1 x  1 Levels for Diagnostic #   191 EXFhl
(PID.TID 0000.0001) SETDIAG: Allocate  1 x  1 Levels for Diagnostic #   190 EXFhs
(PID.TID 0000.0001) SETDIAG: Allocate  1 x  1 Levels for Diagnostic #   193 EXFswnet
(PID.TID 0000.0001) SETDIAG: Allocate  1 x  1 Levels for Diagnostic #   192 EXFlwnet
(PID.TID 0000.0001) SETDIAG: Allocate  1 x  1 Levels for Diagnostic #   199 EXFuwind
(PID.TID 0000.0001) SETDIAG: Allocate  1 x  1 Levels for Diagnostic #   200 EXFvwind
(PID.TID 0000.0001) SETDIAG: Allocate  1 x  1 Levels for Diagnostic #   202 EXFatemp
(PID.TID 0000.0001) SETDIAG: Allocate  1 x  1 Levels for Diagnostic #   251 SIarea
(PID.TID 0000.0001) SETDIAG: Allocate  1 x  1 Levels for Diagnostic #   254 SIheff
(PID.TID 0000.0001) SETDIAG: Allocate  1 x  1 Levels for Diagnostic #   256 SIhsnow
(PID.TID 0000.0001) SETDIAG: Allocate  1 x  1 Levels for Diagnostic #   272 SIuice
(PID.TID 0000.0001) SETDIAG: Allocate  1 x  1 Levels for Diagnostic #   273 SIvice
(PID.TID 0000.0001) SETDIAG: Allocate  1 x  1 Levels for Diagnostic #    76 MXLDEPTH
(PID.TID 0000.0001) SETDIAG: Allocate  1 x  1 Levels for Diagnostic #   216 KPPhbl
(PID.TID 0000.0001) SETDIAG: Allocate 23 x  1 Levels for Diagnostic #   215 KPPghatK
(PID.TID 0000.0001)   space allocated for all diagnostics:      41 levels
(PID.TID 0000.0001)   set mate pointer for diag #   272  SIuice   , Parms: UU      M1 , mate:   273
(PID.TID 0000.0001)   set mate pointer for diag #   273  SIvice   , Parms: VV      M1 , mate:   272
(PID.TID 0000.0001) DIAGNOSTICS_SET_POINTERS: Set levels for Outp.Stream: diagsEXF
(PID.TID 0000.0001)  Levels:       1.
(PID.TID 0000.0001) DIAGNOSTICS_SET_POINTERS: Set levels for Outp.Stream: diagsSI
(PID.TID 0000.0001)  Levels:       1.
(PID.TID 0000.0001) DIAGNOSTICS_SET_POINTERS: Set levels for Outp.Stream: diagsKPP
(PID.TID 0000.0001)  Levels:       1.
(PID.TID 0000.0001) DIAGNOSTICS_SET_POINTERS: Set levels for Outp.Stream: KPPghatK
(PID.TID 0000.0001)  Levels:       1.   2.   3.   4.   5.   6.   7.   8.   9.  10.  11.  12.  13.  14.  15.  16.  17.  18.  19.  20.
(PID.TID 0000.0001)  Levels:      21.  22.  23.
(PID.TID 0000.0001) DIAGNOSTICS_SET_POINTERS: done
(PID.TID 0000.0001) ------------------------------------------------------------
(PID.TID 0000.0001) DIAGSTATS_SET_REGIONS: define no region
(PID.TID 0000.0001) ------------------------------------------------------------
(PID.TID 0000.0001)   space allocated for all stats-diags:       0 levels
(PID.TID 0000.0001) DIAGSTATS_SET_POINTERS: done
(PID.TID 0000.0001) ------------------------------------------------------------
(PID.TID 0000.0001) %MON fCori_max                    =   1.4210453727344E-04
(PID.TID 0000.0001) %MON fCori_min                    =   1.0666243053630E-04
(PID.TID 0000.0001) %MON fCori_mean                   =   1.2711058365303E-04
(PID.TID 0000.0001) %MON fCori_sd                     =   1.1031533875266E-05
(PID.TID 0000.0001) %MON fCoriG_max                   =   1.4151032568025E-04
(PID.TID 0000.0001) %MON fCoriG_min                   =   1.0491029349513E-04
(PID.TID 0000.0001) %MON fCoriG_mean                  =   1.2591168756569E-04
(PID.TID 0000.0001) %MON fCoriG_sd                    =   1.1383815633153E-05
(PID.TID 0000.0001) %MON fCoriCos_max                 =   9.9464325599212E-05
(PID.TID 0000.0001) %MON fCoriCos_min                 =   3.2807417471054E-05
(PID.TID 0000.0001) %MON fCoriCos_mean                =   6.7585896192312E-05
(PID.TID 0000.0001) %MON fCoriCos_sd                  =   2.0576140902612E-05
(PID.TID 0000.0001) INI_CG2D: CG2D normalisation factor =  1.6094939840939192E-04
(PID.TID 0000.0001) 
(PID.TID 0000.0001) // =======================================================
(PID.TID 0000.0001) // Model configuration
(PID.TID 0000.0001) // =======================================================
(PID.TID 0000.0001) //
(PID.TID 0000.0001) // "Physical" paramters ( PARM01 in namelist )
(PID.TID 0000.0001) //
(PID.TID 0000.0001) buoyancyRelation = /* Type of relation to get Buoyancy */
(PID.TID 0000.0001)               'OCEANIC'
(PID.TID 0000.0001)     ;
(PID.TID 0000.0001) fluidIsAir   =  /* fluid major constituent is Air */
(PID.TID 0000.0001)                   F
(PID.TID 0000.0001)     ;
(PID.TID 0000.0001) fluidIsWater =  /* fluid major constituent is Water */
(PID.TID 0000.0001)                   T
(PID.TID 0000.0001)     ;
(PID.TID 0000.0001) usingPCoords =  /* use p (or p*) vertical coordinate */
(PID.TID 0000.0001)                   F
(PID.TID 0000.0001)     ;
(PID.TID 0000.0001) usingZCoords =  /* use z (or z*) vertical coordinate */
(PID.TID 0000.0001)                   T
(PID.TID 0000.0001)     ;
(PID.TID 0000.0001) tRef =   /* Reference temperature profile ( oC or K ) */
(PID.TID 0000.0001)                 2.400000000000000E+01,      /* K =  1 */
(PID.TID 0000.0001)                 2.300000000000000E+01,      /* K =  2 */
(PID.TID 0000.0001)                 2.200000000000000E+01,      /* K =  3 */
(PID.TID 0000.0001)                 2.100000000000000E+01,      /* K =  4 */
(PID.TID 0000.0001)                 2.000000000000000E+01,      /* K =  5 */
(PID.TID 0000.0001)                 1.900000000000000E+01,      /* K =  6 */
(PID.TID 0000.0001)                 1.800000000000000E+01,      /* K =  7 */
(PID.TID 0000.0001)                 1.700000000000000E+01,      /* K =  8 */
(PID.TID 0000.0001)                 1.600000000000000E+01,      /* K =  9 */
(PID.TID 0000.0001)                 1.500000000000000E+01,      /* K = 10 */
(PID.TID 0000.0001)                 1.400000000000000E+01,      /* K = 11 */
(PID.TID 0000.0001)                 1.300000000000000E+01,      /* K = 12 */
(PID.TID 0000.0001)                 1.200000000000000E+01,      /* K = 13 */
(PID.TID 0000.0001)                 1.100000000000000E+01,      /* K = 14 */
(PID.TID 0000.0001)                 1.000000000000000E+01,      /* K = 15 */
(PID.TID 0000.0001)                 9.000000000000000E+00,      /* K = 16 */
(PID.TID 0000.0001)                 8.000000000000000E+00,      /* K = 17 */
(PID.TID 0000.0001)                 7.000000000000000E+00,      /* K = 18 */
(PID.TID 0000.0001)                 6.000000000000000E+00,      /* K = 19 */
(PID.TID 0000.0001)                 5.000000000000000E+00,      /* K = 20 */
(PID.TID 0000.0001)                 4.000000000000000E+00,      /* K = 21 */
(PID.TID 0000.0001)                 3.000000000000000E+00,      /* K = 22 */
(PID.TID 0000.0001)                 2.000000000000000E+00       /* K = 23 */
(PID.TID 0000.0001)     ;
(PID.TID 0000.0001) sRef =   /* Reference salinity profile ( psu ) */
(PID.TID 0000.0001)                 3.465000000000000E+01,      /* K =  1 */
(PID.TID 0000.0001)                 3.475000000000000E+01,      /* K =  2 */
(PID.TID 0000.0001)                 3.482000000000000E+01,      /* K =  3 */
(PID.TID 0000.0001)                 3.487000000000000E+01,      /* K =  4 */
(PID.TID 0000.0001)     2 @  3.490000000000000E+01,             /* K =  5:  6 */
(PID.TID 0000.0001)                 3.486000000000000E+01,      /* K =  7 */
(PID.TID 0000.0001)                 3.478000000000000E+01,      /* K =  8 */
(PID.TID 0000.0001)                 3.469000000000000E+01,      /* K =  9 */
(PID.TID 0000.0001)                 3.460000000000000E+01,      /* K = 10 */
(PID.TID 0000.0001)                 3.458000000000000E+01,      /* K = 11 */
(PID.TID 0000.0001)                 3.462000000000000E+01,      /* K = 12 */
(PID.TID 0000.0001)                 3.468000000000000E+01,      /* K = 13 */
(PID.TID 0000.0001)                 3.472000000000000E+01,      /* K = 14 */
(PID.TID 0000.0001)                 3.473000000000000E+01,      /* K = 15 */
(PID.TID 0000.0001)                 3.474000000000000E+01,      /* K = 16 */
(PID.TID 0000.0001)     2 @  3.473000000000000E+01,             /* K = 17: 18 */
(PID.TID 0000.0001)     2 @  3.472000000000000E+01,             /* K = 19: 20 */
(PID.TID 0000.0001)                 3.471000000000000E+01,      /* K = 21 */
(PID.TID 0000.0001)                 3.470000000000000E+01,      /* K = 22 */
(PID.TID 0000.0001)                 3.469000000000000E+01       /* K = 23 */
(PID.TID 0000.0001)     ;
(PID.TID 0000.0001) useStrainTensionVisc= /* Use StrainTension Form of Viscous Operator */
(PID.TID 0000.0001)                   F
(PID.TID 0000.0001)     ;
(PID.TID 0000.0001) useVariableVisc = /* Use variable horizontal viscosity */
(PID.TID 0000.0001)                   F
(PID.TID 0000.0001)     ;
(PID.TID 0000.0001) useHarmonicVisc = /* Use harmonic horizontal viscosity */
(PID.TID 0000.0001)                   T
(PID.TID 0000.0001)     ;
(PID.TID 0000.0001) useBiharmonicVisc= /* Use biharmonic horiz.  viscosity */
(PID.TID 0000.0001)                   F
(PID.TID 0000.0001)     ;
(PID.TID 0000.0001) useSmag3D = /* Use isotropic 3-D Smagorinsky viscosity */
(PID.TID 0000.0001)                   F
(PID.TID 0000.0001)     ;
(PID.TID 0000.0001) viscAh  =   /* Lateral harmonic viscosity ( m^2/s ) */
(PID.TID 0000.0001)                 5.000000000000000E+04
(PID.TID 0000.0001)     ;
(PID.TID 0000.0001) viscA4  =   /* Lateral biharmonic viscosity ( m^4/s ) */
(PID.TID 0000.0001)                 0.000000000000000E+00
(PID.TID 0000.0001)     ;
(PID.TID 0000.0001) no_slip_sides =  /* Viscous BCs: No-slip sides */
(PID.TID 0000.0001)                   F
(PID.TID 0000.0001)     ;
(PID.TID 0000.0001) sideDragFactor = /* side-drag scaling factor (non-dim) */
(PID.TID 0000.0001)                 2.000000000000000E+00
(PID.TID 0000.0001)     ;
(PID.TID 0000.0001) viscArNr = /* vertical profile of vertical viscosity ( m^2/s )*/
(PID.TID 0000.0001)    23 @  1.930000000000000E-05              /* K =  1: 23 */
(PID.TID 0000.0001)     ;
(PID.TID 0000.0001) no_slip_bottom =  /* Viscous BCs: No-slip bottom */
(PID.TID 0000.0001)                   T
(PID.TID 0000.0001)     ;
(PID.TID 0000.0001) bottomVisc_pCell = /* Partial-cell in bottom Visc. BC */
(PID.TID 0000.0001)                   F
(PID.TID 0000.0001)     ;
(PID.TID 0000.0001) bottomDragLinear = /* linear bottom-drag coefficient ( m/s ) */
(PID.TID 0000.0001)                 0.000000000000000E+00
(PID.TID 0000.0001)     ;
(PID.TID 0000.0001) bottomDragQuadratic = /* quadratic bottom-drag coefficient (-) */
(PID.TID 0000.0001)                 0.000000000000000E+00
(PID.TID 0000.0001)     ;
(PID.TID 0000.0001) selectBotDragQuadr = /* select quadratic bottom drag options */
(PID.TID 0000.0001)                      -1
(PID.TID 0000.0001)     ;
(PID.TID 0000.0001) diffKhT =   /* Laplacian diffusion of heat laterally ( m^2/s ) */
(PID.TID 0000.0001)                 0.000000000000000E+00
(PID.TID 0000.0001)     ;
(PID.TID 0000.0001) diffK4T =   /* Biharmonic diffusion of heat laterally ( m^4/s ) */
(PID.TID 0000.0001)                 0.000000000000000E+00
(PID.TID 0000.0001)     ;
(PID.TID 0000.0001) diffKhS =   /* Laplacian diffusion of salt laterally ( m^2/s ) */
(PID.TID 0000.0001)                 0.000000000000000E+00
(PID.TID 0000.0001)     ;
(PID.TID 0000.0001) diffK4S =   /* Biharmonic diffusion of salt laterally ( m^4/s ) */
(PID.TID 0000.0001)                 0.000000000000000E+00
(PID.TID 0000.0001)     ;
(PID.TID 0000.0001) diffKrNrT = /* vertical profile of vertical diffusion of Temp ( m^2/s )*/
(PID.TID 0000.0001)    23 @  1.460000000000000E-05              /* K =  1: 23 */
(PID.TID 0000.0001)     ;
(PID.TID 0000.0001) diffKrNrS = /* vertical profile of vertical diffusion of Salt ( m^2/s )*/
(PID.TID 0000.0001)    23 @  1.460000000000000E-05              /* K =  1: 23 */
(PID.TID 0000.0001)     ;
(PID.TID 0000.0001) diffKrBL79surf = /* Surface diffusion for Bryan and Lewis 79 ( m^2/s ) */
(PID.TID 0000.0001)                 0.000000000000000E+00
(PID.TID 0000.0001)     ;
(PID.TID 0000.0001) diffKrBL79deep = /* Deep diffusion for Bryan and Lewis 1979 ( m^2/s ) */
(PID.TID 0000.0001)                 0.000000000000000E+00
(PID.TID 0000.0001)     ;
(PID.TID 0000.0001) diffKrBL79scl = /* Depth scale for Bryan and Lewis 1979 ( m ) */
(PID.TID 0000.0001)                 2.000000000000000E+02
(PID.TID 0000.0001)     ;
(PID.TID 0000.0001) diffKrBL79Ho = /* Turning depth for Bryan and Lewis 1979 ( m ) */
(PID.TID 0000.0001)                -2.000000000000000E+03
(PID.TID 0000.0001)     ;
(PID.TID 0000.0001) ivdc_kappa = /* Implicit Vertical Diffusivity for Convection ( m^2/s) */
(PID.TID 0000.0001)                 0.000000000000000E+00
(PID.TID 0000.0001)     ;
(PID.TID 0000.0001) hMixCriteria=  /* Criteria for mixed-layer diagnostic */
(PID.TID 0000.0001)                -8.000000000000000E-01
(PID.TID 0000.0001)     ;
(PID.TID 0000.0001) dRhoSmall =  /* Parameter for mixed-layer diagnostic */
(PID.TID 0000.0001)                 1.000000000000000E-06
(PID.TID 0000.0001)     ;
(PID.TID 0000.0001) hMixSmooth=  /* Smoothing parameter for mixed-layer diagnostic */
(PID.TID 0000.0001)                 0.000000000000000E+00
(PID.TID 0000.0001)     ;
(PID.TID 0000.0001) eosType =  /* Type of Equation of State */
(PID.TID 0000.0001)               'JMD95Z'
(PID.TID 0000.0001)     ;
(PID.TID 0000.0001) eosRefP0 = /* Reference atmospheric pressure for EOS ( Pa ) */
(PID.TID 0000.0001)                 1.013250000000000E+05
(PID.TID 0000.0001)     ;
(PID.TID 0000.0001) selectP_inEOS_Zc = /* select pressure to use in EOS (0,1,2,3) */
(PID.TID 0000.0001)                       0
(PID.TID 0000.0001)     0= -g*rhoConst*z ; 1= pRef (from tRef,sRef); 2= Hyd P ; 3= Hyd+NH P
(PID.TID 0000.0001)     ;
(PID.TID 0000.0001) surf_pRef = /* Surface reference pressure ( Pa ) */
(PID.TID 0000.0001)                 1.013250000000000E+05
(PID.TID 0000.0001)     ;
(PID.TID 0000.0001) HeatCapacity_Cp =  /* Specific heat capacity ( J/kg/K ) */
(PID.TID 0000.0001)                 3.986000000000000E+03
(PID.TID 0000.0001)     ;
(PID.TID 0000.0001) celsius2K = /* 0 degree Celsius converted to Kelvin ( K ) */
(PID.TID 0000.0001)                 2.731600000000000E+02
(PID.TID 0000.0001)     ;
(PID.TID 0000.0001) rhoConst  = /* Reference density (Boussinesq)  ( kg/m^3 ) */
(PID.TID 0000.0001)                 1.027000000000000E+03
(PID.TID 0000.0001)     ;
(PID.TID 0000.0001) rhoFacC = /* normalized Reference density @ cell-Center (-) */
(PID.TID 0000.0001)    23 @  1.000000000000000E+00              /* K =  1: 23 */
(PID.TID 0000.0001)     ;
(PID.TID 0000.0001) rhoFacF = /* normalized Reference density @ W-Interface (-) */
(PID.TID 0000.0001)    24 @  1.000000000000000E+00              /* K =  1: 24 */
(PID.TID 0000.0001)     ;
(PID.TID 0000.0001) rhoConstFresh = /* Fresh-water reference density ( kg/m^3 ) */
(PID.TID 0000.0001)                 9.998000000000000E+02
(PID.TID 0000.0001)     ;
(PID.TID 0000.0001) gravity =   /* Gravitational acceleration ( m/s^2 ) */
(PID.TID 0000.0001)                 9.815600000000000E+00
(PID.TID 0000.0001)     ;
(PID.TID 0000.0001) gBaro =   /* Barotropic gravity ( m/s^2 ) */
(PID.TID 0000.0001)                 9.815600000000000E+00
(PID.TID 0000.0001)     ;
(PID.TID 0000.0001) gravFacC = /* gravity factor (vs surf.) @ cell-Center (-) */
(PID.TID 0000.0001)    23 @  1.000000000000000E+00              /* K =  1: 23 */
(PID.TID 0000.0001)     ;
(PID.TID 0000.0001) gravFacF = /* gravity factor (vs surf.) @ W-Interface (-) */
(PID.TID 0000.0001)    24 @  1.000000000000000E+00              /* K =  1: 24 */
(PID.TID 0000.0001)     ;
(PID.TID 0000.0001) rotationPeriod =   /* Rotation Period ( s ) */
(PID.TID 0000.0001)                 8.616400000000000E+04
(PID.TID 0000.0001)     ;
(PID.TID 0000.0001) omega =   /* Angular velocity ( rad/s ) */
(PID.TID 0000.0001)                 7.292123516990375E-05
(PID.TID 0000.0001)     ;
(PID.TID 0000.0001) f0 =   /* Reference coriolis parameter ( 1/s ) */
(PID.TID 0000.0001)                 1.000000000000000E-04
(PID.TID 0000.0001)     ;
(PID.TID 0000.0001) beta =   /* Beta ( 1/(m.s) ) */
(PID.TID 0000.0001)                 9.999999999999999E-12
(PID.TID 0000.0001)     ;
(PID.TID 0000.0001) fPrime =   /* Second coriolis parameter ( 1/s ) */
(PID.TID 0000.0001)                 0.000000000000000E+00
(PID.TID 0000.0001)     ;
(PID.TID 0000.0001) rigidLid =   /* Rigid lid on/off flag */
(PID.TID 0000.0001)                   F
(PID.TID 0000.0001)     ;
(PID.TID 0000.0001) implicitFreeSurface =   /* Implicit free surface on/off flag */
(PID.TID 0000.0001)                   T
(PID.TID 0000.0001)     ;
(PID.TID 0000.0001) freeSurfFac =   /* Implicit free surface factor */
(PID.TID 0000.0001)                 1.000000000000000E+00
(PID.TID 0000.0001)     ;
(PID.TID 0000.0001) implicSurfPress =  /* Surface Pressure implicit factor (0-1)*/
(PID.TID 0000.0001)                 1.000000000000000E+00
(PID.TID 0000.0001)     ;
(PID.TID 0000.0001) implicDiv2DFlow =  /* Barot. Flow Div. implicit factor (0-1)*/
(PID.TID 0000.0001)                 1.000000000000000E+00
(PID.TID 0000.0001)     ;
(PID.TID 0000.0001) uniformLin_PhiSurf = /* use uniform Bo_surf on/off flag*/
(PID.TID 0000.0001)                   T
(PID.TID 0000.0001)     ;
(PID.TID 0000.0001) uniformFreeSurfLev = /* free-surface level-index is uniform */
(PID.TID 0000.0001)                   T
(PID.TID 0000.0001)     ;
(PID.TID 0000.0001) hFacMin =   /* minimum partial cell factor (hFac) */
(PID.TID 0000.0001)                 1.000000000000000E+00
(PID.TID 0000.0001)     ;
(PID.TID 0000.0001) hFacMinDr = /* minimum partial cell thickness ( m) */
(PID.TID 0000.0001)                 0.000000000000000E+00
(PID.TID 0000.0001)     ;
(PID.TID 0000.0001) exactConserv =  /* Exact Volume Conservation on/off flag*/
(PID.TID 0000.0001)                   F
(PID.TID 0000.0001)     ;
(PID.TID 0000.0001) linFSConserveTr = /* Tracer correction for Lin Free Surface on/off flag*/
(PID.TID 0000.0001)                   F
(PID.TID 0000.0001)     ;
(PID.TID 0000.0001) nonlinFreeSurf = /* Non-linear Free Surf. options (-1,0,1,2,3)*/
(PID.TID 0000.0001)                       0
(PID.TID 0000.0001)      -1,0= Off ; 1,2,3= On, 2=+rescale gU,gV, 3=+update cg2d solv.
(PID.TID 0000.0001)     ;
(PID.TID 0000.0001) hFacInf =   /* lower threshold for hFac (nonlinFreeSurf only)*/
(PID.TID 0000.0001)                 2.000000000000000E-01
(PID.TID 0000.0001)     ;
(PID.TID 0000.0001) hFacSup =   /* upper threshold for hFac (nonlinFreeSurf only)*/
(PID.TID 0000.0001)                 2.000000000000000E+00
(PID.TID 0000.0001)     ;
(PID.TID 0000.0001) select_rStar = /* r* Vertical coord. options (=0 r coord.; >0 uses r*)*/
(PID.TID 0000.0001)                       0
(PID.TID 0000.0001)     ;
(PID.TID 0000.0001) useRealFreshWaterFlux = /* Real Fresh Water Flux on/off flag*/
(PID.TID 0000.0001)                   F
(PID.TID 0000.0001)     ;
(PID.TID 0000.0001) temp_EvPrRn = /* Temp. of Evap/Prec/R (UNSET=use local T)(oC)*/
(PID.TID 0000.0001)                 1.234567000000000E+05
(PID.TID 0000.0001)     ;
(PID.TID 0000.0001) salt_EvPrRn = /* Salin. of Evap/Prec/R (UNSET=use local S)(psu)*/
(PID.TID 0000.0001)                 0.000000000000000E+00
(PID.TID 0000.0001)     ;
(PID.TID 0000.0001) selectAddFluid = /* option for mass source/sink of fluid (=0: off) */
(PID.TID 0000.0001)                       0
(PID.TID 0000.0001)     ;
(PID.TID 0000.0001) temp_addMass = /* Temp. of addMass array (UNSET=use local T)(oC)*/
(PID.TID 0000.0001)                 1.234567000000000E+05
(PID.TID 0000.0001)     ;
(PID.TID 0000.0001) salt_addMass = /* Salin. of addMass array (UNSET=use local S)(psu)*/
(PID.TID 0000.0001)                 0.000000000000000E+00
(PID.TID 0000.0001)     ;
(PID.TID 0000.0001) convertFW2Salt = /* convert F.W. Flux to Salt Flux (-1=use local S)(psu)*/
(PID.TID 0000.0001)                 3.500000000000000E+01
(PID.TID 0000.0001)     ;
(PID.TID 0000.0001) use3Dsolver = /* use 3-D pressure solver on/off flag */
(PID.TID 0000.0001)                   F
(PID.TID 0000.0001)     ;
(PID.TID 0000.0001) nonHydrostatic =  /* Non-Hydrostatic on/off flag */
(PID.TID 0000.0001)                   F
(PID.TID 0000.0001)     ;
(PID.TID 0000.0001) nh_Am2 = /* Non-Hydrostatic terms scaling factor */
(PID.TID 0000.0001)                 1.000000000000000E+00
(PID.TID 0000.0001)     ;
(PID.TID 0000.0001) implicitNHPress = /* Non-Hyd Pressure implicit factor (0-1)*/
(PID.TID 0000.0001)                 1.000000000000000E+00
(PID.TID 0000.0001)     ;
(PID.TID 0000.0001) selectNHfreeSurf = /* Non-Hyd (free-)Surface option */
(PID.TID 0000.0001)                       0
(PID.TID 0000.0001)     ;
(PID.TID 0000.0001) quasiHydrostatic = /* Quasi-Hydrostatic on/off flag */
(PID.TID 0000.0001)                   F
(PID.TID 0000.0001)     ;
(PID.TID 0000.0001) calc_wVelocity = /* vertical velocity calculation on/off flag */
(PID.TID 0000.0001)                   T
(PID.TID 0000.0001)     ;
(PID.TID 0000.0001) momStepping =  /* Momentum equation on/off flag */
(PID.TID 0000.0001)                   T
(PID.TID 0000.0001)     ;
(PID.TID 0000.0001) vectorInvariantMomentum= /* Vector-Invariant Momentum on/off */
(PID.TID 0000.0001)                   F
(PID.TID 0000.0001)     ;
(PID.TID 0000.0001) momAdvection =  /* Momentum advection on/off flag */
(PID.TID 0000.0001)                   T
(PID.TID 0000.0001)     ;
(PID.TID 0000.0001) momViscosity =  /* Momentum viscosity on/off flag */
(PID.TID 0000.0001)                   T
(PID.TID 0000.0001)     ;
(PID.TID 0000.0001) momImplVertAdv= /* Momentum implicit vert. advection on/off*/
(PID.TID 0000.0001)                   F
(PID.TID 0000.0001)     ;
(PID.TID 0000.0001) implicitViscosity = /* Implicit viscosity on/off flag */
(PID.TID 0000.0001)                   T
(PID.TID 0000.0001)     ;
(PID.TID 0000.0001) selectImplicitDrag= /* Implicit bot Drag options (0,1,2)*/
(PID.TID 0000.0001)                       0
(PID.TID 0000.0001)     0= Expl. ; 1= Impl. on provis. Vel ; 2= Fully Impl (with surf.P)
(PID.TID 0000.0001)     ;
(PID.TID 0000.0001) metricTerms =  /* metric-Terms on/off flag */
(PID.TID 0000.0001)                   T
(PID.TID 0000.0001)     ;
(PID.TID 0000.0001) useNHMTerms = /* Non-Hydrostatic Metric-Terms on/off */
(PID.TID 0000.0001)                   F
(PID.TID 0000.0001)     ;
(PID.TID 0000.0001) selectCoriMap = /* Coriolis Map options (0,1,2,3)*/
(PID.TID 0000.0001)                       2
(PID.TID 0000.0001)     0= f-Plane ; 1= Beta-Plane ; 2= Spherical ; 3= read from file
(PID.TID 0000.0001)     ;
(PID.TID 0000.0001) use3dCoriolis = /* 3-D Coriolis on/off flag */
(PID.TID 0000.0001)                   F
(PID.TID 0000.0001)     ;
(PID.TID 0000.0001) useCoriolis =  /* Coriolis on/off flag */
(PID.TID 0000.0001)                   T
(PID.TID 0000.0001)     ;
(PID.TID 0000.0001) useCDscheme =  /* CD scheme on/off flag */
(PID.TID 0000.0001)                   T
(PID.TID 0000.0001)     ;
(PID.TID 0000.0001) selectCoriScheme= /* Scheme selector for Coriolis-Term */
(PID.TID 0000.0001)                       0
(PID.TID 0000.0001)    = 0 : original discretization (simple averaging, no hFac)
(PID.TID 0000.0001)    = 1 : Wet-point averaging (Jamar & Ozer 1986)
(PID.TID 0000.0001)    = 2 : energy conserving scheme (no hFac weight)
(PID.TID 0000.0001)    = 3 : energy conserving scheme using Wet-point averaging
(PID.TID 0000.0001)     ;
(PID.TID 0000.0001) momForcing =  /* Momentum forcing on/off flag */
(PID.TID 0000.0001)                   T
(PID.TID 0000.0001)     ;
(PID.TID 0000.0001) momTidalForcing = /* Momentum Tidal forcing on/off flag */
(PID.TID 0000.0001)                   T
(PID.TID 0000.0001)     ;
(PID.TID 0000.0001) momPressureForcing =  /* Momentum pressure term on/off flag */
(PID.TID 0000.0001)                   T
(PID.TID 0000.0001)     ;
(PID.TID 0000.0001) implicitIntGravWave= /* Implicit Internal Gravity Wave flag */
(PID.TID 0000.0001)                   F
(PID.TID 0000.0001)     ;
(PID.TID 0000.0001) staggerTimeStep =    /* Stagger time stepping on/off flag */
(PID.TID 0000.0001)                   F
(PID.TID 0000.0001)     ;
(PID.TID 0000.0001) doResetHFactors = /* reset thickness factors @ each time-step */
(PID.TID 0000.0001)                   F
(PID.TID 0000.0001)     ;
(PID.TID 0000.0001) multiDimAdvection =  /* enable/disable Multi-Dim Advection */
(PID.TID 0000.0001)                   T
(PID.TID 0000.0001)     ;
(PID.TID 0000.0001) useMultiDimAdvec =   /* Multi-Dim Advection is/is-not used */
(PID.TID 0000.0001)                   F
(PID.TID 0000.0001)     ;
(PID.TID 0000.0001) implicitDiffusion = /* Implicit Diffusion on/off flag */
(PID.TID 0000.0001)                   T
(PID.TID 0000.0001)     ;
(PID.TID 0000.0001) tempStepping =  /* Temperature equation on/off flag */
(PID.TID 0000.0001)                   T
(PID.TID 0000.0001)     ;
(PID.TID 0000.0001) tempAdvection = /* Temperature advection on/off flag */
(PID.TID 0000.0001)                   T
(PID.TID 0000.0001)     ;
(PID.TID 0000.0001) tempImplVertAdv = /* Temp. implicit vert. advection on/off */
(PID.TID 0000.0001)                   F
(PID.TID 0000.0001)     ;
(PID.TID 0000.0001) tempForcing  =  /* Temperature forcing on/off flag */
(PID.TID 0000.0001)                   T
(PID.TID 0000.0001)     ;
(PID.TID 0000.0001) doThetaClimRelax = /* apply SST relaxation on/off flag */
(PID.TID 0000.0001)                   F
(PID.TID 0000.0001)     ;
(PID.TID 0000.0001) tempIsActiveTr = /* Temp. is a dynamically Active Tracer */
(PID.TID 0000.0001)                   T
(PID.TID 0000.0001)     ;
(PID.TID 0000.0001) saltStepping =  /* Salinity equation on/off flag */
(PID.TID 0000.0001)                   T
(PID.TID 0000.0001)     ;
(PID.TID 0000.0001) saltAdvection = /* Salinity advection on/off flag */
(PID.TID 0000.0001)                   T
(PID.TID 0000.0001)     ;
(PID.TID 0000.0001) saltImplVertAdv = /* Sali. implicit vert. advection on/off */
(PID.TID 0000.0001)                   F
(PID.TID 0000.0001)     ;
(PID.TID 0000.0001) saltForcing  =  /* Salinity forcing on/off flag */
(PID.TID 0000.0001)                   T
(PID.TID 0000.0001)     ;
(PID.TID 0000.0001) doSaltClimRelax = /* apply SSS relaxation on/off flag */
(PID.TID 0000.0001)                   T
(PID.TID 0000.0001)     ;
(PID.TID 0000.0001) saltIsActiveTr = /* Salt  is a dynamically Active Tracer */
(PID.TID 0000.0001)                   T
(PID.TID 0000.0001)     ;
(PID.TID 0000.0001)  readBinaryPrec = /* Precision used for reading binary files */
(PID.TID 0000.0001)                      32
(PID.TID 0000.0001)     ;
(PID.TID 0000.0001) writeBinaryPrec = /* Precision used for writing binary files */
(PID.TID 0000.0001)                      32
(PID.TID 0000.0001)     ;
(PID.TID 0000.0001)  rwSuffixType =   /* select format of mds file suffix */
(PID.TID 0000.0001)                       0
(PID.TID 0000.0001)    = 0 : myIter (I10.10) ;   = 1 : 100*myTime (100th sec) ;
(PID.TID 0000.0001)    = 2 : myTime (seconds);   = 3 : myTime/360 (10th of hr);
(PID.TID 0000.0001)    = 4 : myTime/3600 (hours)
(PID.TID 0000.0001)     ;
(PID.TID 0000.0001)  globalFiles = /* write "global" (=not per tile) files */
(PID.TID 0000.0001)                   F
(PID.TID 0000.0001)     ;
(PID.TID 0000.0001)  useSingleCpuIO = /* only master MPI process does I/O */
(PID.TID 0000.0001)                   T
(PID.TID 0000.0001)     ;
(PID.TID 0000.0001)  useSingleCpuInput = /* only master process reads input */
(PID.TID 0000.0001)                   T
(PID.TID 0000.0001)     ;
(PID.TID 0000.0001) /* debLev[*]  : level of debug & auxiliary message printing */
(PID.TID 0000.0001) debLevZero =  0 ; /* level of disabled aux. msg printing */
(PID.TID 0000.0001)    debLevA =  1 ; /* level of minimum  aux. msg printing */
(PID.TID 0000.0001)    debLevB =  2 ; /* level of low aux. print (report read-file opening)*/
(PID.TID 0000.0001)    debLevC =  3 ; /* level of moderate debug prt (most pkgs debug msg) */
(PID.TID 0000.0001)    debLevD =  4 ; /* level of enhanced debug prt (add DEBUG_STATS prt) */
(PID.TID 0000.0001)    debLevE =  5 ; /* level of extensive debug printing */
(PID.TID 0000.0001) debugLevel =  /* select debug printing level */
(PID.TID 0000.0001)                       2
(PID.TID 0000.0001)     ;
(PID.TID 0000.0001)  plotLevel =  /* select PLOT_FIELD printing level */
(PID.TID 0000.0001)                       2
(PID.TID 0000.0001)     ;
(PID.TID 0000.0001) //
(PID.TID 0000.0001) // Elliptic solver(s) paramters ( PARM02 in namelist )
(PID.TID 0000.0001) //
(PID.TID 0000.0001) cg2dMaxIters =   /* Upper limit on 2d con. grad iterations  */
(PID.TID 0000.0001)                     500
(PID.TID 0000.0001)     ;
(PID.TID 0000.0001) cg2dChkResFreq =   /* 2d con. grad convergence test frequency */
(PID.TID 0000.0001)                       1
(PID.TID 0000.0001)     ;
(PID.TID 0000.0001) cg2dUseMinResSol= /* use cg2d last-iter(=0) / min-resid.(=1) solution */
(PID.TID 0000.0001)                       0
(PID.TID 0000.0001)     ;
(PID.TID 0000.0001) cg2dTargetResidual =   /* 2d con. grad target residual  */
(PID.TID 0000.0001)                 1.000000000000000E-12
(PID.TID 0000.0001)     ;
(PID.TID 0000.0001) cg2dTargetResWunit =   /* CG2d target residual [W units] */
(PID.TID 0000.0001)                -1.000000000000000E+00
(PID.TID 0000.0001)     ;
(PID.TID 0000.0001) cg2dPreCondFreq =   /* Freq. for updating cg2d preconditioner */
(PID.TID 0000.0001)                       1
(PID.TID 0000.0001)     ;
(PID.TID 0000.0001) useSRCGSolver =  /* use single reduction CG solver(s) */
(PID.TID 0000.0001)                   F
(PID.TID 0000.0001)     ;
(PID.TID 0000.0001) printResidualFreq = /* Freq. for printing CG residual */
(PID.TID 0000.0001)                       0
(PID.TID 0000.0001)     ;
(PID.TID 0000.0001) //
(PID.TID 0000.0001) // Time stepping paramters ( PARM03 in namelist )
(PID.TID 0000.0001) //
(PID.TID 0000.0001) deltaTMom =   /* Momentum equation timestep ( s ) */
(PID.TID 0000.0001)                 3.600000000000000E+03
(PID.TID 0000.0001)     ;
(PID.TID 0000.0001) deltaTFreeSurf = /* FreeSurface equation timestep ( s ) */
(PID.TID 0000.0001)                 3.600000000000000E+03
(PID.TID 0000.0001)     ;
(PID.TID 0000.0001) dTtracerLev =  /* Tracer equation timestep ( s ) */
(PID.TID 0000.0001)    23 @  3.600000000000000E+03              /* K =  1: 23 */
(PID.TID 0000.0001)     ;
(PID.TID 0000.0001) deltaTClock  =   /* Model clock timestep ( s ) */
(PID.TID 0000.0001)                 3.600000000000000E+03
(PID.TID 0000.0001)     ;
(PID.TID 0000.0001) cAdjFreq =   /* Convective adjustment interval ( s ) */
(PID.TID 0000.0001)                 0.000000000000000E+00
(PID.TID 0000.0001)     ;
(PID.TID 0000.0001) momForcingOutAB = /* =1: take Momentum Forcing out of Adams-Bash. stepping */
(PID.TID 0000.0001)                       1
(PID.TID 0000.0001)     ;
(PID.TID 0000.0001) tracForcingOutAB = /* =1: take T,S,pTr Forcing out of Adams-Bash. stepping */
(PID.TID 0000.0001)                       1
(PID.TID 0000.0001)     ;
(PID.TID 0000.0001) momDissip_In_AB = /* put Dissipation Tendency in Adams-Bash. stepping */
(PID.TID 0000.0001)                   T
(PID.TID 0000.0001)     ;
(PID.TID 0000.0001) doAB_onGtGs = /* apply AB on Tendencies (rather than on T,S)*/
(PID.TID 0000.0001)                   T
(PID.TID 0000.0001)     ;
(PID.TID 0000.0001) abEps =   /* Adams-Bashforth-2 stabilizing weight */
(PID.TID 0000.0001)                 1.000000000000000E-01
(PID.TID 0000.0001)     ;
(PID.TID 0000.0001) applyExchUV_early = /* Apply EXCH to U,V earlier in time-step */
(PID.TID 0000.0001)                   F
(PID.TID 0000.0001)     ;
(PID.TID 0000.0001) tauCD =   /* CD coupling time-scale ( s ) */
(PID.TID 0000.0001)                 1.728000000000000E+05
(PID.TID 0000.0001)     ;
(PID.TID 0000.0001) rCD =   /* Normalised CD coupling parameter */
(PID.TID 0000.0001)                 9.791666666666666E-01
(PID.TID 0000.0001)     ;
(PID.TID 0000.0001) epsAB_CD = /* AB-2 stabilizing weight for CD-scheme*/
(PID.TID 0000.0001)                 1.000000000000000E-01
(PID.TID 0000.0001)     ;
(PID.TID 0000.0001) pickupStrictlyMatch= /* stop if pickup do not strictly match */
(PID.TID 0000.0001)                   F
(PID.TID 0000.0001)     ;
(PID.TID 0000.0001) nIter0   =   /* Run starting timestep number */
(PID.TID 0000.0001)                       1
(PID.TID 0000.0001)     ;
(PID.TID 0000.0001) nTimeSteps = /* Number of timesteps */
(PID.TID 0000.0001)                       9
(PID.TID 0000.0001)     ;
(PID.TID 0000.0001) nEndIter =   /* Run ending timestep number */
(PID.TID 0000.0001)                      10
(PID.TID 0000.0001)     ;
(PID.TID 0000.0001) baseTime =   /* Model base time ( s ) */
(PID.TID 0000.0001)                 0.000000000000000E+00
(PID.TID 0000.0001)     ;
(PID.TID 0000.0001) startTime =  /* Run start time ( s ) */
(PID.TID 0000.0001)                 3.600000000000000E+03
(PID.TID 0000.0001)     ;
(PID.TID 0000.0001) endTime  =   /* Integration ending time ( s ) */
(PID.TID 0000.0001)                 3.600000000000000E+04
(PID.TID 0000.0001)     ;
(PID.TID 0000.0001) pChkPtFreq = /* Permanent restart/pickup file interval ( s ) */
(PID.TID 0000.0001)                 3.600000000000000E+04
(PID.TID 0000.0001)     ;
(PID.TID 0000.0001) chkPtFreq  = /* Rolling restart/pickup file interval ( s ) */
(PID.TID 0000.0001)                 0.000000000000000E+00
(PID.TID 0000.0001)     ;
(PID.TID 0000.0001) pickup_write_mdsio =   /* Model IO flag. */
(PID.TID 0000.0001)                   T
(PID.TID 0000.0001)     ;
(PID.TID 0000.0001) pickup_read_mdsio =   /* Model IO flag. */
(PID.TID 0000.0001)                   T
(PID.TID 0000.0001)     ;
(PID.TID 0000.0001) pickup_write_mnc =   /* Model IO flag. */
(PID.TID 0000.0001)                   F
(PID.TID 0000.0001)     ;
(PID.TID 0000.0001) pickup_read_mnc =   /* Model IO flag. */
(PID.TID 0000.0001)                   F
(PID.TID 0000.0001)     ;
(PID.TID 0000.0001) writePickupAtEnd =   /* Model IO flag. */
(PID.TID 0000.0001)                   T
(PID.TID 0000.0001)     ;
(PID.TID 0000.0001) dumpFreq =   /* Model state write out interval ( s ). */
(PID.TID 0000.0001)                 0.000000000000000E+00
(PID.TID 0000.0001)     ;
(PID.TID 0000.0001) dumpInitAndLast= /* write out Initial & Last iter. model state */
(PID.TID 0000.0001)                   T
(PID.TID 0000.0001)     ;
(PID.TID 0000.0001) snapshot_mdsio =   /* Model IO flag. */
(PID.TID 0000.0001)                   F
(PID.TID 0000.0001)     ;
(PID.TID 0000.0001) snapshot_mnc =   /* Model IO flag. */
(PID.TID 0000.0001)                   T
(PID.TID 0000.0001)     ;
(PID.TID 0000.0001) monitorFreq =   /* Monitor output interval ( s ). */
(PID.TID 0000.0001)                 1.000000000000000E+00
(PID.TID 0000.0001)     ;
(PID.TID 0000.0001) monitorSelect = /* select group of variables to monitor */
(PID.TID 0000.0001)                       3
(PID.TID 0000.0001)     ;
(PID.TID 0000.0001) monitor_stdio =   /* Model IO flag. */
(PID.TID 0000.0001)                   T
(PID.TID 0000.0001)     ;
(PID.TID 0000.0001) monitor_mnc =   /* Model IO flag. */
(PID.TID 0000.0001)                   F
(PID.TID 0000.0001)     ;
(PID.TID 0000.0001) externForcingPeriod =   /* forcing period (s) */
(PID.TID 0000.0001)                 0.000000000000000E+00
(PID.TID 0000.0001)     ;
(PID.TID 0000.0001) externForcingCycle =   /* period of the cyle (s). */
(PID.TID 0000.0001)                 0.000000000000000E+00
(PID.TID 0000.0001)     ;
(PID.TID 0000.0001) tauThetaClimRelax =   /* relaxation time scale (s) */
(PID.TID 0000.0001)                 0.000000000000000E+00
(PID.TID 0000.0001)     ;
(PID.TID 0000.0001) tauSaltClimRelax =   /* relaxation time scale (s) */
(PID.TID 0000.0001)                 4.142330000000000E+06
(PID.TID 0000.0001)     ;
(PID.TID 0000.0001) latBandClimRelax =   /* max. Lat. where relaxation */
(PID.TID 0000.0001)                 1.800000000000000E+02
(PID.TID 0000.0001)     ;
(PID.TID 0000.0001) //
(PID.TID 0000.0001) // Gridding paramters ( PARM04 in namelist )
(PID.TID 0000.0001) //
(PID.TID 0000.0001) usingCartesianGrid = /* Cartesian coordinates flag ( True/False ) */
(PID.TID 0000.0001)                   F
(PID.TID 0000.0001)     ;
(PID.TID 0000.0001) usingCylindricalGrid = /* Cylindrical coordinates flag ( True/False ) */
(PID.TID 0000.0001)                   F
(PID.TID 0000.0001)     ;
(PID.TID 0000.0001) usingSphericalPolarGrid = /* Spherical coordinates flag ( True/False ) */
(PID.TID 0000.0001)                   T
(PID.TID 0000.0001)     ;
(PID.TID 0000.0001) usingCurvilinearGrid = /* Curvilinear coordinates flag ( True/False ) */
(PID.TID 0000.0001)                   F
(PID.TID 0000.0001)     ;
(PID.TID 0000.0001) useMin4hFacEdges = /* set hFacW,S as minimum of adjacent hFacC factor */
(PID.TID 0000.0001)                   F
(PID.TID 0000.0001)     ;
(PID.TID 0000.0001) interViscAr_pCell = /* account for partial-cell in interior vert. viscosity */
(PID.TID 0000.0001)                   F
(PID.TID 0000.0001)     ;
(PID.TID 0000.0001) interDiffKr_pCell = /* account for partial-cell in interior vert. diffusion */
(PID.TID 0000.0001)                   F
(PID.TID 0000.0001)     ;
(PID.TID 0000.0001) pCellMix_select = /* option to enhance mixing near surface & bottom */
(PID.TID 0000.0001)                       0
(PID.TID 0000.0001)     ;
(PID.TID 0000.0001) selectSigmaCoord = /* Hybrid-Sigma Vert. Coordinate option */
(PID.TID 0000.0001)                       0
(PID.TID 0000.0001)     ;
(PID.TID 0000.0001) rSigmaBnd = /* r/sigma transition ( units of r ==  m ) */
(PID.TID 0000.0001)                 1.234567000000000E+05
(PID.TID 0000.0001)     ;
(PID.TID 0000.0001) rkSign =   /* index orientation relative to vertical coordinate */
(PID.TID 0000.0001)                -1.000000000000000E+00
(PID.TID 0000.0001)     ;
(PID.TID 0000.0001) gravitySign = /* gravity orientation relative to vertical coordinate */
(PID.TID 0000.0001)                -1.000000000000000E+00
(PID.TID 0000.0001)     ;
(PID.TID 0000.0001) seaLev_Z =  /* reference height of sea-level [m] */
(PID.TID 0000.0001)                 0.000000000000000E+00
(PID.TID 0000.0001)     ;
(PID.TID 0000.0001) top_Pres =  /* reference pressure at the top [Pa] */
(PID.TID 0000.0001)                 0.000000000000000E+00
(PID.TID 0000.0001)     ;
(PID.TID 0000.0001) mass2rUnit = /* convert mass per unit area [kg/m2] to r-units [m] */
(PID.TID 0000.0001)                 9.737098344693282E-04
(PID.TID 0000.0001)     ;
(PID.TID 0000.0001) rUnit2mass = /* convert r-units [m] to mass per unit area [kg/m2] */
(PID.TID 0000.0001)                 1.027000000000000E+03
(PID.TID 0000.0001)     ;
(PID.TID 0000.0001) drC =   /* C spacing ( units of r ) */
(PID.TID 0000.0001)                 5.000000000000000E+00,      /* K =  1 */
(PID.TID 0000.0001)                 1.000000000000000E+01,      /* K =  2 */
(PID.TID 0000.0001)                 1.250000000000000E+01,      /* K =  3 */
(PID.TID 0000.0001)                 1.750000000000000E+01,      /* K =  4 */
(PID.TID 0000.0001)                 2.000000000000000E+01,      /* K =  5 */
(PID.TID 0000.0001)                 2.250000000000000E+01,      /* K =  6 */
(PID.TID 0000.0001)                 3.000000000000000E+01,      /* K =  7 */
(PID.TID 0000.0001)                 4.250000000000000E+01,      /* K =  8 */
(PID.TID 0000.0001)                 6.250000000000000E+01,      /* K =  9 */
(PID.TID 0000.0001)                 8.750000000000000E+01,      /* K = 10 */
(PID.TID 0000.0001)                 1.250000000000000E+02,      /* K = 11 */
(PID.TID 0000.0001)                 1.750000000000000E+02,      /* K = 12 */
(PID.TID 0000.0001)                 2.375000000000000E+02,      /* K = 13 */
(PID.TID 0000.0001)                 3.125000000000000E+02,      /* K = 14 */
(PID.TID 0000.0001)                 3.825000000000000E+02,      /* K = 15 */
(PID.TID 0000.0001)                 4.325000000000000E+02,      /* K = 16 */
(PID.TID 0000.0001)                 4.750000000000000E+02,      /* K = 17 */
(PID.TID 0000.0001)     6 @  5.000000000000000E+02,             /* K = 18: 23 */
(PID.TID 0000.0001)                 2.500000000000000E+02       /* K = 24 */
(PID.TID 0000.0001)     ;
(PID.TID 0000.0001) drF =   /* W spacing ( units of r ) */
(PID.TID 0000.0001)     2 @  1.000000000000000E+01,             /* K =  1:  2 */
(PID.TID 0000.0001)                 1.500000000000000E+01,      /* K =  3 */
(PID.TID 0000.0001)     2 @  2.000000000000000E+01,             /* K =  4:  5 */
(PID.TID 0000.0001)                 2.500000000000000E+01,      /* K =  6 */
(PID.TID 0000.0001)                 3.500000000000000E+01,      /* K =  7 */
(PID.TID 0000.0001)                 5.000000000000000E+01,      /* K =  8 */
(PID.TID 0000.0001)                 7.500000000000000E+01,      /* K =  9 */
(PID.TID 0000.0001)                 1.000000000000000E+02,      /* K = 10 */
(PID.TID 0000.0001)                 1.500000000000000E+02,      /* K = 11 */
(PID.TID 0000.0001)                 2.000000000000000E+02,      /* K = 12 */
(PID.TID 0000.0001)                 2.750000000000000E+02,      /* K = 13 */
(PID.TID 0000.0001)                 3.500000000000000E+02,      /* K = 14 */
(PID.TID 0000.0001)                 4.150000000000000E+02,      /* K = 15 */
(PID.TID 0000.0001)                 4.500000000000000E+02,      /* K = 16 */
(PID.TID 0000.0001)     7 @  5.000000000000000E+02              /* K = 17: 23 */
(PID.TID 0000.0001)     ;
(PID.TID 0000.0001) delX = /* U spacing ( m - cartesian, degrees - spherical ) */
(PID.TID 0000.0001)    20 @  2.000000000000000E+00              /* I =  1: 20 */
(PID.TID 0000.0001)     ;
(PID.TID 0000.0001) delY = /* V spacing ( m - cartesian, degrees - spherical ) */
(PID.TID 0000.0001)    16 @  2.000000000000000E+00              /* J =  1: 16 */
(PID.TID 0000.0001)     ;
(PID.TID 0000.0001) xgOrigin = /* X-axis origin of West  edge (cartesian: m, lat-lon: deg) */
(PID.TID 0000.0001)                 2.800000000000000E+02
(PID.TID 0000.0001)     ;
(PID.TID 0000.0001) ygOrigin = /* Y-axis origin of South edge (cartesian: m, lat-lon: deg) */
(PID.TID 0000.0001)                 4.600000000000000E+01
(PID.TID 0000.0001)     ;
(PID.TID 0000.0001) rSphere =  /* Radius ( ignored - cartesian, m - spherical ) */
(PID.TID 0000.0001)                 6.371000000000000E+06
(PID.TID 0000.0001)     ;
(PID.TID 0000.0001) deepAtmosphere = /* Deep/Shallow Atmosphere flag (True/False) */
(PID.TID 0000.0001)                   F
(PID.TID 0000.0001)     ;
(PID.TID 0000.0001) xC =  /* xC(:,1,:,1) : P-point X coord ( deg. or m if cartesian) */
(PID.TID 0000.0001)                 2.810000000000000E+02,      /* I =  1 */
(PID.TID 0000.0001)                 2.830000000000000E+02,      /* I =  2 */
(PID.TID 0000.0001)                 2.850000000000000E+02,      /* I =  3 */
(PID.TID 0000.0001)                 2.870000000000000E+02,      /* I =  4 */
(PID.TID 0000.0001)                 2.890000000000000E+02,      /* I =  5 */
(PID.TID 0000.0001)                 2.910000000000000E+02,      /* I =  6 */
(PID.TID 0000.0001)                 2.930000000000000E+02,      /* I =  7 */
(PID.TID 0000.0001)                 2.950000000000000E+02,      /* I =  8 */
(PID.TID 0000.0001)                 2.970000000000000E+02,      /* I =  9 */
(PID.TID 0000.0001)                 2.990000000000000E+02,      /* I = 10 */
(PID.TID 0000.0001)                 3.010000000000000E+02,      /* I = 11 */
(PID.TID 0000.0001)                 3.030000000000000E+02,      /* I = 12 */
(PID.TID 0000.0001)                 3.050000000000000E+02,      /* I = 13 */
(PID.TID 0000.0001)                 3.070000000000000E+02,      /* I = 14 */
(PID.TID 0000.0001)                 3.090000000000000E+02,      /* I = 15 */
(PID.TID 0000.0001)                 3.110000000000000E+02,      /* I = 16 */
(PID.TID 0000.0001)                 3.130000000000000E+02,      /* I = 17 */
(PID.TID 0000.0001)                 3.150000000000000E+02,      /* I = 18 */
(PID.TID 0000.0001)                 3.170000000000000E+02,      /* I = 19 */
(PID.TID 0000.0001)                 3.190000000000000E+02       /* I = 20 */
(PID.TID 0000.0001)     ;
(PID.TID 0000.0001) yC =  /* yC(1,:,1,:) : P-point Y coord ( deg. or m if cartesian) */
(PID.TID 0000.0001)                 4.700000000000000E+01,      /* J =  1 */
(PID.TID 0000.0001)                 4.900000000000000E+01,      /* J =  2 */
(PID.TID 0000.0001)                 5.100000000000000E+01,      /* J =  3 */
(PID.TID 0000.0001)                 5.300000000000000E+01,      /* J =  4 */
(PID.TID 0000.0001)                 5.500000000000000E+01,      /* J =  5 */
(PID.TID 0000.0001)                 5.700000000000000E+01,      /* J =  6 */
(PID.TID 0000.0001)                 5.900000000000000E+01,      /* J =  7 */
(PID.TID 0000.0001)                 6.100000000000000E+01,      /* J =  8 */
(PID.TID 0000.0001)                 6.300000000000000E+01,      /* J =  9 */
(PID.TID 0000.0001)                 6.500000000000000E+01,      /* J = 10 */
(PID.TID 0000.0001)                 6.700000000000000E+01,      /* J = 11 */
(PID.TID 0000.0001)                 6.900000000000000E+01,      /* J = 12 */
(PID.TID 0000.0001)                 7.100000000000000E+01,      /* J = 13 */
(PID.TID 0000.0001)                 7.300000000000000E+01,      /* J = 14 */
(PID.TID 0000.0001)                 7.500000000000000E+01,      /* J = 15 */
(PID.TID 0000.0001)                 7.700000000000000E+01       /* J = 16 */
(PID.TID 0000.0001)     ;
(PID.TID 0000.0001) rcoord = /* P-point R coordinate (  units of r ) */
(PID.TID 0000.0001)                -5.000000000000000E+00,      /* K =  1 */
(PID.TID 0000.0001)                -1.500000000000000E+01,      /* K =  2 */
(PID.TID 0000.0001)                -2.750000000000000E+01,      /* K =  3 */
(PID.TID 0000.0001)                -4.500000000000000E+01,      /* K =  4 */
(PID.TID 0000.0001)                -6.500000000000000E+01,      /* K =  5 */
(PID.TID 0000.0001)                -8.750000000000000E+01,      /* K =  6 */
(PID.TID 0000.0001)                -1.175000000000000E+02,      /* K =  7 */
(PID.TID 0000.0001)                -1.600000000000000E+02,      /* K =  8 */
(PID.TID 0000.0001)                -2.225000000000000E+02,      /* K =  9 */
(PID.TID 0000.0001)                -3.100000000000000E+02,      /* K = 10 */
(PID.TID 0000.0001)                -4.350000000000000E+02,      /* K = 11 */
(PID.TID 0000.0001)                -6.100000000000000E+02,      /* K = 12 */
(PID.TID 0000.0001)                -8.475000000000000E+02,      /* K = 13 */
(PID.TID 0000.0001)                -1.160000000000000E+03,      /* K = 14 */
(PID.TID 0000.0001)                -1.542500000000000E+03,      /* K = 15 */
(PID.TID 0000.0001)                -1.975000000000000E+03,      /* K = 16 */
(PID.TID 0000.0001)                -2.450000000000000E+03,      /* K = 17 */
(PID.TID 0000.0001)                -2.950000000000000E+03,      /* K = 18 */
(PID.TID 0000.0001)                -3.450000000000000E+03,      /* K = 19 */
(PID.TID 0000.0001)                -3.950000000000000E+03,      /* K = 20 */
(PID.TID 0000.0001)                -4.450000000000000E+03,      /* K = 21 */
(PID.TID 0000.0001)                -4.950000000000000E+03,      /* K = 22 */
(PID.TID 0000.0001)                -5.450000000000000E+03       /* K = 23 */
(PID.TID 0000.0001)     ;
(PID.TID 0000.0001) rF =   /* W-Interf. R coordinate (  units of r ) */
(PID.TID 0000.0001)                 0.000000000000000E+00,      /* K =  1 */
(PID.TID 0000.0001)                -1.000000000000000E+01,      /* K =  2 */
(PID.TID 0000.0001)                -2.000000000000000E+01,      /* K =  3 */
(PID.TID 0000.0001)                -3.500000000000000E+01,      /* K =  4 */
(PID.TID 0000.0001)                -5.500000000000000E+01,      /* K =  5 */
(PID.TID 0000.0001)                -7.500000000000000E+01,      /* K =  6 */
(PID.TID 0000.0001)                -1.000000000000000E+02,      /* K =  7 */
(PID.TID 0000.0001)                -1.350000000000000E+02,      /* K =  8 */
(PID.TID 0000.0001)                -1.850000000000000E+02,      /* K =  9 */
(PID.TID 0000.0001)                -2.600000000000000E+02,      /* K = 10 */
(PID.TID 0000.0001)                -3.600000000000000E+02,      /* K = 11 */
(PID.TID 0000.0001)                -5.100000000000000E+02,      /* K = 12 */
(PID.TID 0000.0001)                -7.100000000000000E+02,      /* K = 13 */
(PID.TID 0000.0001)                -9.850000000000000E+02,      /* K = 14 */
(PID.TID 0000.0001)                -1.335000000000000E+03,      /* K = 15 */
(PID.TID 0000.0001)                -1.750000000000000E+03,      /* K = 16 */
(PID.TID 0000.0001)                -2.200000000000000E+03,      /* K = 17 */
(PID.TID 0000.0001)                -2.700000000000000E+03,      /* K = 18 */
(PID.TID 0000.0001)                -3.200000000000000E+03,      /* K = 19 */
(PID.TID 0000.0001)                -3.700000000000000E+03,      /* K = 20 */
(PID.TID 0000.0001)                -4.200000000000000E+03,      /* K = 21 */
(PID.TID 0000.0001)                -4.700000000000000E+03,      /* K = 22 */
(PID.TID 0000.0001)                -5.200000000000000E+03,      /* K = 23 */
(PID.TID 0000.0001)                -5.700000000000000E+03       /* K = 24 */
(PID.TID 0000.0001)     ;
(PID.TID 0000.0001) deepFacC = /* deep-model grid factor @ cell-Center (-) */
(PID.TID 0000.0001)    23 @  1.000000000000000E+00              /* K =  1: 23 */
(PID.TID 0000.0001)     ;
(PID.TID 0000.0001) deepFacF = /* deep-model grid factor @ W-Interface (-) */
(PID.TID 0000.0001)    24 @  1.000000000000000E+00              /* K =  1: 24 */
(PID.TID 0000.0001)     ;
(PID.TID 0000.0001) rVel2wUnit = /* convert units: rVel -> wSpeed (=1 if z-coord)*/
(PID.TID 0000.0001)    24 @  1.000000000000000E+00              /* K =  1: 24 */
(PID.TID 0000.0001)     ;
(PID.TID 0000.0001) wUnit2rVel = /* convert units: wSpeed -> rVel (=1 if z-coord)*/
(PID.TID 0000.0001)    24 @  1.000000000000000E+00              /* K =  1: 24 */
(PID.TID 0000.0001)     ;
(PID.TID 0000.0001) dBdrRef = /* Vertical grad. of reference buoyancy [(m/s/r)^2] */
(PID.TID 0000.0001)                 0.000000000000000E+00,      /* K =  1 */
(PID.TID 0000.0001)                 3.513461801096672E-04,      /* K =  2 */
(PID.TID 0000.0001)                 2.578462793867026E-04,      /* K =  3 */
(PID.TID 0000.0001)                 1.716535447918954E-04,      /* K =  4 */
(PID.TID 0000.0001)                 1.391849606744939E-04,      /* K =  5 */
(PID.TID 0000.0001)                 1.106038973987551E-04,      /* K =  6 */
(PID.TID 0000.0001)                 7.062448315028799E-05,      /* K =  7 */
(PID.TID 0000.0001)                 4.112152780686669E-05,      /* K =  8 */
(PID.TID 0000.0001)                 2.554455911799560E-05,      /* K =  9 */
(PID.TID 0000.0001)                 1.739274227427603E-05,      /* K = 10 */
(PID.TID 0000.0001)                 1.573008010125636E-05,      /* K = 11 */
(PID.TID 0000.0001)                 1.341763357458043E-05,      /* K = 12 */
(PID.TID 0000.0001)                 1.029886793911016E-05,      /* K = 13 */
(PID.TID 0000.0001)                 7.244777660794312E-06,      /* K = 14 */
(PID.TID 0000.0001)                 5.291061202791868E-06,      /* K = 15 */
(PID.TID 0000.0001)                 4.668992652371521E-06,      /* K = 16 */
(PID.TID 0000.0001)                 3.952349989520169E-06,      /* K = 17 */
(PID.TID 0000.0001)                 3.937600045035830E-06,      /* K = 18 */
(PID.TID 0000.0001)                 3.833348475309353E-06,      /* K = 19 */
(PID.TID 0000.0001)                 4.027570774400333E-06,      /* K = 20 */
(PID.TID 0000.0001)                 3.935806005392895E-06,      /* K = 21 */
(PID.TID 0000.0001)                 3.995673930141529E-06,      /* K = 22 */
(PID.TID 0000.0001)                 4.061338744769299E-06       /* K = 23 */
(PID.TID 0000.0001)     ;
(PID.TID 0000.0001) rotateGrid = /* use rotated grid ( True/False ) */
(PID.TID 0000.0001)                   F
(PID.TID 0000.0001)     ;
(PID.TID 0000.0001) phiEuler = /* Euler angle, rotation about original z-coordinate [rad] */
(PID.TID 0000.0001)                 0.000000000000000E+00
(PID.TID 0000.0001)     ;
(PID.TID 0000.0001) thetaEuler = /* Euler angle, rotation about new x-coordinate [rad] */
(PID.TID 0000.0001)                 0.000000000000000E+00
(PID.TID 0000.0001)     ;
(PID.TID 0000.0001) psiEuler = /* Euler angle, rotation about new z-coordinate [rad] */
(PID.TID 0000.0001)                 0.000000000000000E+00
(PID.TID 0000.0001)     ;
(PID.TID 0000.0001) dxF =  /* dxF(:,1,:,1) ( units: m ) */
(PID.TID 0000.0001)    20 @  1.516695152377178E+05              /* I =  1: 20 */
(PID.TID 0000.0001)     ;
(PID.TID 0000.0001) dxF =  /* dxF(1,:,1,:) ( units: m ) */
(PID.TID 0000.0001)                 1.516695152377178E+05,      /* J =  1 */
(PID.TID 0000.0001)                 1.459008712061998E+05,      /* J =  2 */
(PID.TID 0000.0001)                 1.399544694374234E+05,      /* J =  3 */
(PID.TID 0000.0001)                 1.338375547059709E+05,      /* J =  4 */
(PID.TID 0000.0001)                 1.275575795302040E+05,      /* J =  5 */
(PID.TID 0000.0001)                 1.211221950925184E+05,      /* J =  6 */
(PID.TID 0000.0001)                 1.145392419175564E+05,      /* J =  7 */
(PID.TID 0000.0001)                 1.078167403197357E+05,      /* J =  8 */
(PID.TID 0000.0001)                 1.009628806317309E+05,      /* J =  9 */
(PID.TID 0000.0001)                 9.398601322581600E+04,      /* J = 10 */
(PID.TID 0000.0001)                 8.689463834022089E+04,      /* J = 11 */
(PID.TID 0000.0001)                 7.969739572290120E+04,      /* J = 12 */
(PID.TID 0000.0001)                 7.240305410533583E+04,      /* J = 13 */
(PID.TID 0000.0001)                 6.502050051917860E+04,      /* J = 14 */
(PID.TID 0000.0001)                 5.755872946877906E+04,      /* J = 15 */
(PID.TID 0000.0001)                 5.002683197276441E+04       /* J = 16 */
(PID.TID 0000.0001)     ;
(PID.TID 0000.0001) dyF =  /* dyF(:,1,:,1) ( units: m ) */
(PID.TID 0000.0001)    20 @  2.223898532891175E+05              /* I =  1: 20 */
(PID.TID 0000.0001)     ;
(PID.TID 0000.0001) dyF =  /* dyF(1,:,1,:) ( units: m ) */
(PID.TID 0000.0001)    16 @  2.223898532891175E+05              /* J =  1: 16 */
(PID.TID 0000.0001)     ;
(PID.TID 0000.0001) dxG =  /* dxG(:,1,:,1) ( units: m ) */
(PID.TID 0000.0001)    20 @  1.544849730924338E+05              /* I =  1: 20 */
(PID.TID 0000.0001)     ;
(PID.TID 0000.0001) dxG =  /* dxG(1,:,1,:) ( units: m ) */
(PID.TID 0000.0001)                 1.544849730924338E+05,      /* J =  1 */
(PID.TID 0000.0001)                 1.488078573794047E+05,      /* J =  2 */
(PID.TID 0000.0001)                 1.429494422142520E+05,      /* J =  3 */
(PID.TID 0000.0001)                 1.369168651734348E+05,      /* J =  4 */
(PID.TID 0000.0001)                 1.307174760228300E+05,      /* J =  5 */
(PID.TID 0000.0001)                 1.243588277631750E+05,      /* J =  6 */
(PID.TID 0000.0001)                 1.178486674278995E+05,      /* J =  7 */
(PID.TID 0000.0001)                 1.111949266445588E+05,      /* J =  8 */
(PID.TID 0000.0001)                 1.044057119713670E+05,      /* J =  9 */
(PID.TID 0000.0001)                 9.748929502060512E+04,      /* J = 10 */
(PID.TID 0000.0001)                 9.045410238093534E+04,      /* J = 11 */
(PID.TID 0000.0001)                 8.330870535090075E+04,      /* J = 12 */
(PID.TID 0000.0001)                 7.606180949611843E+04,      /* J = 13 */
(PID.TID 0000.0001)                 6.872224404288860E+04,      /* J = 14 */
(PID.TID 0000.0001)                 6.129895112114271E+04,      /* J = 15 */
(PID.TID 0000.0001)                 5.380097486983529E+04       /* J = 16 */
(PID.TID 0000.0001)     ;
(PID.TID 0000.0001) dyG =  /* dyG(:,1,:,1) ( units: m ) */
(PID.TID 0000.0001)    20 @  2.223898532891175E+05              /* I =  1: 20 */
(PID.TID 0000.0001)     ;
(PID.TID 0000.0001) dyG =  /* dyG(1,:,1,:) ( units: m ) */
(PID.TID 0000.0001)    16 @  2.223898532891175E+05              /* J =  1: 16 */
(PID.TID 0000.0001)     ;
(PID.TID 0000.0001) dxC =  /* dxC(:,1,:,1) ( units: m ) */
(PID.TID 0000.0001)    20 @  1.516695152377178E+05              /* I =  1: 20 */
(PID.TID 0000.0001)     ;
(PID.TID 0000.0001) dxC =  /* dxC(1,:,1,:) ( units: m ) */
(PID.TID 0000.0001)                 1.516695152377178E+05,      /* J =  1 */
(PID.TID 0000.0001)                 1.459008712061998E+05,      /* J =  2 */
(PID.TID 0000.0001)                 1.399544694374234E+05,      /* J =  3 */
(PID.TID 0000.0001)                 1.338375547059709E+05,      /* J =  4 */
(PID.TID 0000.0001)                 1.275575795302040E+05,      /* J =  5 */
(PID.TID 0000.0001)                 1.211221950925184E+05,      /* J =  6 */
(PID.TID 0000.0001)                 1.145392419175564E+05,      /* J =  7 */
(PID.TID 0000.0001)                 1.078167403197357E+05,      /* J =  8 */
(PID.TID 0000.0001)                 1.009628806317309E+05,      /* J =  9 */
(PID.TID 0000.0001)                 9.398601322581600E+04,      /* J = 10 */
(PID.TID 0000.0001)                 8.689463834022089E+04,      /* J = 11 */
(PID.TID 0000.0001)                 7.969739572290120E+04,      /* J = 12 */
(PID.TID 0000.0001)                 7.240305410533583E+04,      /* J = 13 */
(PID.TID 0000.0001)                 6.502050051917860E+04,      /* J = 14 */
(PID.TID 0000.0001)                 5.755872946877906E+04,      /* J = 15 */
(PID.TID 0000.0001)                 5.002683197276441E+04       /* J = 16 */
(PID.TID 0000.0001)     ;
(PID.TID 0000.0001) dyC =  /* dyC(:,1,:,1) ( units: m ) */
(PID.TID 0000.0001)    20 @  2.223898532891175E+05              /* I =  1: 20 */
(PID.TID 0000.0001)     ;
(PID.TID 0000.0001) dyC =  /* dyC(1,:,1,:) ( units: m ) */
(PID.TID 0000.0001)    16 @  2.223898532891175E+05              /* J =  1: 16 */
(PID.TID 0000.0001)     ;
(PID.TID 0000.0001) dxV =  /* dxV(:,1,:,1) ( units: m ) */
(PID.TID 0000.0001)    20 @  1.544849730924338E+05              /* I =  1: 20 */
(PID.TID 0000.0001)     ;
(PID.TID 0000.0001) dxV =  /* dxV(1,:,1,:) ( units: m ) */
(PID.TID 0000.0001)                 1.544849730924338E+05,      /* J =  1 */
(PID.TID 0000.0001)                 1.488078573794047E+05,      /* J =  2 */
(PID.TID 0000.0001)                 1.429494422142520E+05,      /* J =  3 */
(PID.TID 0000.0001)                 1.369168651734348E+05,      /* J =  4 */
(PID.TID 0000.0001)                 1.307174760228300E+05,      /* J =  5 */
(PID.TID 0000.0001)                 1.243588277631750E+05,      /* J =  6 */
(PID.TID 0000.0001)                 1.178486674278995E+05,      /* J =  7 */
(PID.TID 0000.0001)                 1.111949266445588E+05,      /* J =  8 */
(PID.TID 0000.0001)                 1.044057119713670E+05,      /* J =  9 */
(PID.TID 0000.0001)                 9.748929502060512E+04,      /* J = 10 */
(PID.TID 0000.0001)                 9.045410238093534E+04,      /* J = 11 */
(PID.TID 0000.0001)                 8.330870535090075E+04,      /* J = 12 */
(PID.TID 0000.0001)                 7.606180949611843E+04,      /* J = 13 */
(PID.TID 0000.0001)                 6.872224404288860E+04,      /* J = 14 */
(PID.TID 0000.0001)                 6.129895112114271E+04,      /* J = 15 */
(PID.TID 0000.0001)                 5.380097486983529E+04       /* J = 16 */
(PID.TID 0000.0001)     ;
(PID.TID 0000.0001) dyU =  /* dyU(:,1,:,1) ( units: m ) */
(PID.TID 0000.0001)    20 @  2.223898532891175E+05              /* I =  1: 20 */
(PID.TID 0000.0001)     ;
(PID.TID 0000.0001) dyU =  /* dyU(1,:,1,:) ( units: m ) */
(PID.TID 0000.0001)    16 @  2.223898532891175E+05              /* J =  1: 16 */
(PID.TID 0000.0001)     ;
(PID.TID 0000.0001) rA  =  /* rA (:,1,:,1) ( units: m^2 ) */
(PID.TID 0000.0001)    20 @  3.372804882275630E+10              /* I =  1: 20 */
(PID.TID 0000.0001)     ;
(PID.TID 0000.0001) rA  =  /* rA (1,:,1,:) ( units: m^2 ) */
(PID.TID 0000.0001)                 3.372804882275630E+10,      /* J =  1 */
(PID.TID 0000.0001)                 3.244522605358471E+10,      /* J =  2 */
(PID.TID 0000.0001)                 3.112287377427108E+10,      /* J =  3 */
(PID.TID 0000.0001)                 2.976260306737437E+10,      /* J =  4 */
(PID.TID 0000.0001)                 2.836607121321784E+10,      /* J =  5 */
(PID.TID 0000.0001)                 2.693497967074614E+10,      /* J =  6 */
(PID.TID 0000.0001)                 2.547107200456132E+10,      /* J =  7 */
(PID.TID 0000.0001)                 2.397613176065682E+10,      /* J =  8 */
(PID.TID 0000.0001)                 2.245198029344207E+10,      /* J =  9 */
(PID.TID 0000.0001)                 2.090047454670177E+10,      /* J = 10 */
(PID.TID 0000.0001)                 1.932350479119805E+10,      /* J = 11 */
(PID.TID 0000.0001)                 1.772299232166360E+10,      /* J = 12 */
(PID.TID 0000.0001)                 1.610088711600326E+10,      /* J = 13 */
(PID.TID 0000.0001)                 1.445916545954351E+10,      /* J = 14 */
(PID.TID 0000.0001)                 1.279982753723478E+10,      /* J = 15 */
(PID.TID 0000.0001)                 1.112489499673432E+10       /* J = 16 */
(PID.TID 0000.0001)     ;
(PID.TID 0000.0001) rAw =  /* rAw(:,1,:,1) ( units: m^2 ) */
(PID.TID 0000.0001)    20 @  3.372804882275630E+10              /* I =  1: 20 */
(PID.TID 0000.0001)     ;
(PID.TID 0000.0001) rAw =  /* rAw(1,:,1,:) ( units: m^2 ) */
(PID.TID 0000.0001)                 3.372804882275630E+10,      /* J =  1 */
(PID.TID 0000.0001)                 3.244522605358471E+10,      /* J =  2 */
(PID.TID 0000.0001)                 3.112287377427108E+10,      /* J =  3 */
(PID.TID 0000.0001)                 2.976260306737437E+10,      /* J =  4 */
(PID.TID 0000.0001)                 2.836607121321784E+10,      /* J =  5 */
(PID.TID 0000.0001)                 2.693497967074614E+10,      /* J =  6 */
(PID.TID 0000.0001)                 2.547107200456132E+10,      /* J =  7 */
(PID.TID 0000.0001)                 2.397613176065682E+10,      /* J =  8 */
(PID.TID 0000.0001)                 2.245198029344207E+10,      /* J =  9 */
(PID.TID 0000.0001)                 2.090047454670177E+10,      /* J = 10 */
(PID.TID 0000.0001)                 1.932350479119805E+10,      /* J = 11 */
(PID.TID 0000.0001)                 1.772299232166360E+10,      /* J = 12 */
(PID.TID 0000.0001)                 1.610088711600326E+10,      /* J = 13 */
(PID.TID 0000.0001)                 1.445916545954351E+10,      /* J = 14 */
(PID.TID 0000.0001)                 1.279982753723478E+10,      /* J = 15 */
(PID.TID 0000.0001)                 1.112489499673432E+10       /* J = 16 */
(PID.TID 0000.0001)     ;
(PID.TID 0000.0001) rAs =  /* rAs(:,1,:,1) ( units: m^2 ) */
(PID.TID 0000.0001)    20 @  3.435414629417918E+10              /* I =  1: 20 */
(PID.TID 0000.0001)     ;
(PID.TID 0000.0001) rAs =  /* rAs(1,:,1,:) ( units: m^2 ) */
(PID.TID 0000.0001)                 3.435414629417918E+10,      /* J =  1 */
(PID.TID 0000.0001)                 3.309167746093097E+10,      /* J =  2 */
(PID.TID 0000.0001)                 3.178889151607872E+10,      /* J =  3 */
(PID.TID 0000.0001)                 3.044737570361747E+10,      /* J =  4 */
(PID.TID 0000.0001)                 2.906876445392020E+10,      /* J =  5 */
(PID.TID 0000.0001)                 2.765473739243563E+10,      /* J =  6 */
(PID.TID 0000.0001)                 2.620701729332415E+10,      /* J =  7 */
(PID.TID 0000.0001)                 2.472736798052209E+10,      /* J =  8 */
(PID.TID 0000.0001)                 2.321759217879512E+10,      /* J =  9 */
(PID.TID 0000.0001)                 2.167952931739416E+10,      /* J = 10 */
(PID.TID 0000.0001)                 2.011505328899539E+10,      /* J = 11 */
(PID.TID 0000.0001)                 1.852607016665020E+10,      /* J = 12 */
(PID.TID 0000.0001)                 1.691451588152944E+10,      /* J = 13 */
(PID.TID 0000.0001)                 1.528235386428863E+10,      /* J = 14 */
(PID.TID 0000.0001)                 1.363157265293026E+10,      /* J = 15 */
(PID.TID 0000.0001)                 1.196418347007692E+10       /* J = 16 */
(PID.TID 0000.0001)     ;
(PID.TID 0000.0001) globalArea = /* Integrated horizontal Area (m^2) */
(PID.TID 0000.0001)                 3.562528105304877E+12
(PID.TID 0000.0001)     ;
(PID.TID 0000.0001) // =======================================================
(PID.TID 0000.0001) // End of Model config. summary
(PID.TID 0000.0001) // =======================================================
(PID.TID 0000.0001) 
(PID.TID 0000.0001) == Packages configuration : Check & print summary ==
(PID.TID 0000.0001) 
(PID.TID 0000.0001) KPP_CHECK: #define ALLOW_KPP
(PID.TID 0000.0001)  kpp_freq = /* frequency of KPP calculation */
(PID.TID 0000.0001)                 3.600000000000000E+03
(PID.TID 0000.0001)     ;
(PID.TID 0000.0001) KPP_ghatUseTotalDiffus= /* non-local term fct of total diffus */
(PID.TID 0000.0001)                   T
(PID.TID 0000.0001)     ;
(PID.TID 0000.0001) KPPuseDoubleDiff = /* include double diffusive contrib */
(PID.TID 0000.0001)                   F
(PID.TID 0000.0001)     ;
(PID.TID 0000.0001) LimitHblStable = /* limits depth of hbl if stable cond.*/
(PID.TID 0000.0001)                   T
(PID.TID 0000.0001)     ;
(PID.TID 0000.0001)  minKPPhbl = /* minimum KPPhbl value [m] */
(PID.TID 0000.0001)                 5.000000000000000E+00
(PID.TID 0000.0001)     ;
(PID.TID 0000.0001)  epsln     = /* constant [-] */
(PID.TID 0000.0001)                 9.999999999999999E-21
(PID.TID 0000.0001)     ;
(PID.TID 0000.0001)  phepsi    = /* constant [-] */
(PID.TID 0000.0001)                 1.000000000000000E-10
(PID.TID 0000.0001)     ;
(PID.TID 0000.0001)  epsilon   = /* constant [-] */
(PID.TID 0000.0001)                 1.000000000000000E-01
(PID.TID 0000.0001)     ;
(PID.TID 0000.0001)  vonk      = /* Von Karmans constant [-] */
(PID.TID 0000.0001)                 4.000000000000000E-01
(PID.TID 0000.0001)     ;
(PID.TID 0000.0001)  dB_dz     = /* maximum N^2 in mixed layer [s^-2] */
(PID.TID 0000.0001)                 5.200000000000000E-05
(PID.TID 0000.0001)     ;
(PID.TID 0000.0001)  conc1     = /* scalar constant [-] */
(PID.TID 0000.0001)                 5.000000000000000E+00
(PID.TID 0000.0001)     ;
(PID.TID 0000.0001)  conam     = /* scalar constant [-] */
(PID.TID 0000.0001)                 1.257000000000000E+00
(PID.TID 0000.0001)     ;
(PID.TID 0000.0001)  concm     = /* scalar constant [-] */
(PID.TID 0000.0001)                 8.380000000000001E+00
(PID.TID 0000.0001)     ;
(PID.TID 0000.0001)  conc2     = /* scalar constant [-] */
(PID.TID 0000.0001)                 1.600000000000000E+01
(PID.TID 0000.0001)     ;
(PID.TID 0000.0001)  conas     = /* scalar constant [-] */
(PID.TID 0000.0001)                -2.886000000000000E+01
(PID.TID 0000.0001)     ;
(PID.TID 0000.0001)  concs     = /* scalar constant [-] */
(PID.TID 0000.0001)                 9.895999999999999E+01
(PID.TID 0000.0001)     ;
(PID.TID 0000.0001)  conc3     = /* scalar constant [-] */
(PID.TID 0000.0001)                 1.600000000000000E+01
(PID.TID 0000.0001)     ;
(PID.TID 0000.0001)  zetam     = /* scalar constant [-] */
(PID.TID 0000.0001)                -2.000000000000000E-01
(PID.TID 0000.0001)     ;
(PID.TID 0000.0001)  zetas     = /* scalar constant [-] */
(PID.TID 0000.0001)                -1.000000000000000E+00
(PID.TID 0000.0001)     ;
(PID.TID 0000.0001)  Ricr      = /* critical bulk Richardson Number [-] */
(PID.TID 0000.0001)                 3.000000000000000E-01
(PID.TID 0000.0001)     ;
(PID.TID 0000.0001)  cekman    = /* coeff for Ekman depth [-] */
(PID.TID 0000.0001)                 7.000000000000000E-01
(PID.TID 0000.0001)     ;
(PID.TID 0000.0001)  cmonob    = /* coeff for Monin-Obukhov depth [-] */
(PID.TID 0000.0001)                 1.000000000000000E+00
(PID.TID 0000.0001)     ;
(PID.TID 0000.0001)  concv     = /* buoyancy freq ratio [-] */
(PID.TID 0000.0001)                 1.800000000000000E+00
(PID.TID 0000.0001)     ;
(PID.TID 0000.0001)  hbf       = /* solar radiation depth ratio [-] */
(PID.TID 0000.0001)                 1.000000000000000E+00
(PID.TID 0000.0001)     ;
(PID.TID 0000.0001)  zmin      = /* minimum for zehat in table [m3/s3] */
(PID.TID 0000.0001)                -4.000000000000000E-07
(PID.TID 0000.0001)     ;
(PID.TID 0000.0001)  zmax      = /* maximum for zehat in table [m3/s3] */
(PID.TID 0000.0001)                 0.000000000000000E+00
(PID.TID 0000.0001)     ;
(PID.TID 0000.0001)  umin      = /* minimum for ustar in table [m/s] */
(PID.TID 0000.0001)                 0.000000000000000E+00
(PID.TID 0000.0001)     ;
(PID.TID 0000.0001)  umax      = /* maximum for ustar in table [m/s] */
(PID.TID 0000.0001)                 4.000000000000000E-02
(PID.TID 0000.0001)     ;
(PID.TID 0000.0001) num_v_smooth_Ri = /* number of vertical smoothing */
(PID.TID 0000.0001)                       0
(PID.TID 0000.0001)     ;
(PID.TID 0000.0001)  Riinfty   = /* shear instability Ri number limit [-] */
(PID.TID 0000.0001)                 7.000000000000000E-01
(PID.TID 0000.0001)     ;
(PID.TID 0000.0001)  BVSQcon   = /* Brunt-Vaisala squared (=N^2) [s^-2] */
(PID.TID 0000.0001)                -2.000000000000000E-05
(PID.TID 0000.0001)     ;
(PID.TID 0000.0001)  difm0     = /* max viscosity from shear instab. [m2/s] */
(PID.TID 0000.0001)                 5.000000000000000E-03
(PID.TID 0000.0001)     ;
(PID.TID 0000.0001)  difs0     = /* max diffusiv. from shear instab. [m2/s] */
(PID.TID 0000.0001)                 5.000000000000000E-03
(PID.TID 0000.0001)     ;
(PID.TID 0000.0001)  dift0     = /* max diffusiv. from shear instab. [m2/s] */
(PID.TID 0000.0001)                 5.000000000000000E-03
(PID.TID 0000.0001)     ;
(PID.TID 0000.0001)  difmcon   = /* convective viscosity [m2/s] */
(PID.TID 0000.0001)                 1.000000000000000E-01
(PID.TID 0000.0001)     ;
(PID.TID 0000.0001)  difscon   = /* convective diffusiv. [m2/s] */
(PID.TID 0000.0001)                 1.000000000000000E-01
(PID.TID 0000.0001)     ;
(PID.TID 0000.0001)  diftcon   = /* convective diffusiv. [m2/s] */
(PID.TID 0000.0001)                 1.000000000000000E-01
(PID.TID 0000.0001)     ;
(PID.TID 0000.0001)  Rrho0     = /* double diffusion density ratio [-] */
(PID.TID 0000.0001)                 1.900000000000000E+00
(PID.TID 0000.0001)     ;
(PID.TID 0000.0001)  dsfmax    = /* max diffusiv. for salt fingering [m2/s] */
(PID.TID 0000.0001)                 1.000000000000000E-02
(PID.TID 0000.0001)     ;
(PID.TID 0000.0001)  cstar     = /* coeff for non-locak transport [-] */
(PID.TID 0000.0001)                 1.000000000000000E+01
(PID.TID 0000.0001)     ;
(PID.TID 0000.0001) KPPwriteState = /* write KPP fields to file */
(PID.TID 0000.0001)                   T
(PID.TID 0000.0001)     ;
(PID.TID 0000.0001)  kpp_dumpFreq = /* dump freq of KPP output */
(PID.TID 0000.0001)                 0.000000000000000E+00
(PID.TID 0000.0001)     ;
(PID.TID 0000.0001)  kpp_taveFreq = /* time-averaging freq of KPP output */
(PID.TID 0000.0001)                 3.600000000000000E+04
(PID.TID 0000.0001)     ;
(PID.TID 0000.0001) 
(PID.TID 0000.0001) GMREDI_CHECK: #define GMREDI
(PID.TID 0000.0001) GM_AdvForm =     /* if FALSE => use SkewFlux Form */
(PID.TID 0000.0001)                   F
(PID.TID 0000.0001)     ;
(PID.TID 0000.0001) GM_InMomAsStress = /* if TRUE => apply as Eddy Stress */
(PID.TID 0000.0001)                   F
(PID.TID 0000.0001)     ;
(PID.TID 0000.0001) GM_AdvSeparate = /* Calc Bolus & Euler Adv. separately */
(PID.TID 0000.0001)                   F
(PID.TID 0000.0001)     ;
(PID.TID 0000.0001) GM_ExtraDiag =   /* Tensor Extra Diag (line 1&2) non 0 */
(PID.TID 0000.0001)                   F
(PID.TID 0000.0001)     ;
(PID.TID 0000.0001) GM_isopycK =    /* Background Isopyc. Diffusivity [m^2/s] */
(PID.TID 0000.0001)                 5.710000000000000E+02
(PID.TID 0000.0001)     ;
(PID.TID 0000.0001) GM_skewflx*K =  /* Background GM_SkewFlx Diffusivity [m^2/s] */
(PID.TID 0000.0001)                 5.710000000000000E+02
(PID.TID 0000.0001)     ;
(PID.TID 0000.0001) GM_advec*K =    /* Backg. GM-Advec(=Bolus) Diffusivity [m^2/s]*/
(PID.TID 0000.0001)                 0.000000000000000E+00
(PID.TID 0000.0001)     ;
(PID.TID 0000.0001) GM_Kmin_horiz = /* Minimum Horizontal Diffusivity [m^2/s] */
(PID.TID 0000.0001)                 0.000000000000000E+00
(PID.TID 0000.0001)     ;
(PID.TID 0000.0001) GM_Visbeck_alpha = /* Visbeck alpha coeff. [-] */
(PID.TID 0000.0001)                 0.000000000000000E+00
(PID.TID 0000.0001)     ;
(PID.TID 0000.0001) GM_Small_Number =  /* epsilon used in slope calc */
(PID.TID 0000.0001)                 9.999999999999999E-21
(PID.TID 0000.0001)     ;
(PID.TID 0000.0001) GM_slopeSqCutoff = /* Slope^2 cut-off value */
(PID.TID 0000.0001)                 1.000000000000000E+48
(PID.TID 0000.0001)     ;
(PID.TID 0000.0001) GM_taper_scheme =  /* Type of Tapering/Clipping scheme */
(PID.TID 0000.0001)               'ldd97                                   '
(PID.TID 0000.0001)     ;
(PID.TID 0000.0001) GM_maxSlope =  /* Maximum Slope (Tapering/Clipping) */
(PID.TID 0000.0001)                 1.000000000000000E-02
(PID.TID 0000.0001)     ;
(PID.TID 0000.0001) GM_facTrL2dz = /* Minimum Trans.Layer Thick. (factor of dz) */
(PID.TID 0000.0001)                 1.000000000000000E+00
(PID.TID 0000.0001)     ;
(PID.TID 0000.0001) GM_facTrL2ML = /* Max.Trans.Layer Thick. (factor of MxL Depth)*/
(PID.TID 0000.0001)                 5.000000000000000E+00
(PID.TID 0000.0001)     ;
(PID.TID 0000.0001) GM_maxTransLay = /* Maximum Transition Layer Thickness [m] */
(PID.TID 0000.0001)                 5.000000000000000E+02
(PID.TID 0000.0001)     ;
(PID.TID 0000.0001) GM_UseBVP = /* if TRUE => use bvp a la Ferrari et al. (2010) */
(PID.TID 0000.0001)                   F
(PID.TID 0000.0001)     ;
(PID.TID 0000.0001) GM_BVP_ModeNumber = /* Vertical mode number for BVP wave speed */
(PID.TID 0000.0001)                       1
(PID.TID 0000.0001)     ;
(PID.TID 0000.0001) GM_BVP_cMin = /* Minimum wave speed for BVP [m/s] */
(PID.TID 0000.0001)                 1.000000000000000E-01
(PID.TID 0000.0001)     ;
(PID.TID 0000.0001) GM_useSubMeso = /* if TRUE => use Sub-Meso param. (B.Fox-Kemper) */
(PID.TID 0000.0001)                   F
(PID.TID 0000.0001)     ;
(PID.TID 0000.0001) subMeso_Ceff = /* efficiency coeff. of Mixed-Layer Eddies [-] */
(PID.TID 0000.0001)                 7.000000000000001E-02
(PID.TID 0000.0001)     ;
(PID.TID 0000.0001) subMeso_invTau = /* inverse of Sub-Meso mixing time-scale [/s] */
(PID.TID 0000.0001)                 2.000000000000000E-06
(PID.TID 0000.0001)     ;
(PID.TID 0000.0001) subMeso_LfMin = /* minimum length-scale "Lf" [m] */
(PID.TID 0000.0001)                 1.000000000000000E+03
(PID.TID 0000.0001)     ;
(PID.TID 0000.0001) subMeso_Lmax = /* maximum grid-scale length [m] */
(PID.TID 0000.0001)                 1.100000000000000E+05
(PID.TID 0000.0001)     ;
(PID.TID 0000.0001) GM_useLeithQG = /* if TRUE => add QG Leith viscosity to GMRedi tensor */
(PID.TID 0000.0001)                   F
(PID.TID 0000.0001)     ;
(PID.TID 0000.0001) EXF_CHECK: #define ALLOW_EXF
(PID.TID 0000.0001) SEAICE_CHECK: #define ALLOW_SEAICE
(PID.TID 0000.0001) GAD_CHECK: #define ALLOW_GENERIC_ADVDIFF
(PID.TID 0000.0001) // =======================================================
(PID.TID 0000.0001) // Check Model config. (CONFIG_CHECK):
(PID.TID 0000.0001) // CONFIG_CHECK : Normal End
(PID.TID 0000.0001) // =======================================================
(PID.TID 0000.0001) 
(PID.TID 0000.0001)  MDS_READ_META: opening file: pickup.0000000001.meta
(PID.TID 0000.0001)  nRecords = 187 ; filePrec =  64 ; fileIter =      8760
(PID.TID 0000.0001)     nDims =   2 , dims:
(PID.TID 0000.0001)    1:  20   1  20
(PID.TID 0000.0001)    2:  16   1  16
(PID.TID 0000.0001)     nFlds =  11 , nFl3D =   8 , fields:
(PID.TID 0000.0001)  >Uvel    < >Vvel    < >Theta   < >Salt    < >GuNm1   < >GvNm1   < >GtNm1   < >GsNm1   < >EtaN    < >dEtaHdt < >EtaH    <
(PID.TID 0000.0001) missingVal=  1.00000000000000E+00 ; nTimRec =   1 , timeList:
(PID.TID 0000.0001)   3.153600000000E+07
(PID.TID 0000.0001) READ_MFLDS_3D_RL: read field: "Uvel    ", #   1 in fldList, rec=   1
(PID.TID 0000.0001)  MDS_READ_FIELD: opening global file: pickup.0000000001.data
(PID.TID 0000.0001) READ_MFLDS_3D_RL: read field: "Vvel    ", #   2 in fldList, rec=   2
(PID.TID 0000.0001)  MDS_READ_FIELD: opening global file: pickup.0000000001.data
(PID.TID 0000.0001) READ_MFLDS_3D_RL: read field: "Theta   ", #   3 in fldList, rec=   3
(PID.TID 0000.0001)  MDS_READ_FIELD: opening global file: pickup.0000000001.data
(PID.TID 0000.0001) READ_MFLDS_3D_RL: read field: "Salt    ", #   4 in fldList, rec=   4
(PID.TID 0000.0001)  MDS_READ_FIELD: opening global file: pickup.0000000001.data
(PID.TID 0000.0001) READ_MFLDS_3D_RL: read field: "GuNm1   ", #   5 in fldList, rec=   5
(PID.TID 0000.0001)  MDS_READ_FIELD: opening global file: pickup.0000000001.data
(PID.TID 0000.0001) READ_MFLDS_3D_RL: read field: "GvNm1   ", #   6 in fldList, rec=   6
(PID.TID 0000.0001)  MDS_READ_FIELD: opening global file: pickup.0000000001.data
(PID.TID 0000.0001) READ_MFLDS_3D_RL: read field: "GtNm1   ", #   7 in fldList, rec=   7
(PID.TID 0000.0001)  MDS_READ_FIELD: opening global file: pickup.0000000001.data
(PID.TID 0000.0001) READ_MFLDS_3D_RL: read field: "GsNm1   ", #   8 in fldList, rec=   8
(PID.TID 0000.0001)  MDS_READ_FIELD: opening global file: pickup.0000000001.data
(PID.TID 0000.0001) READ_MFLDS_3D_RL: read field: "EtaN    ", #   9 in fldList, rec= 185
(PID.TID 0000.0001)  MDS_READ_FIELD: opening global file: pickup.0000000001.data
(PID.TID 0000.0001) READ_MFLDS_CHECK: - normal end ; reset MFLDS file-name: pickup.0000000001
(PID.TID 0000.0001)  write diagnostics summary to file ioUnit:      6
Iter.Nb:         1 ; Time(s):  3.6000000000000E+03
------------------------------------------------------------------------
2D/3D diagnostics: Number of lists:     4
------------------------------------------------------------------------
listId=    1 ; file name: diagsEXF
 nFlds, nActive,       freq     &     phase        , nLev               
   11  |   11  |    -36000.000000     18000.000000 |   1
 levels:   1
 diag# | name   |   ipt  |  iMate | kLev|   count |   mate.C|           
   197 |EXFtaux |      1 |      0 |   1 |       0 |
   198 |EXFtauy |      2 |      0 |   1 |       0 |
   196 |EXFqnet |      3 |      0 |   1 |       0 |
   207 |EXFempmr|      4 |      0 |   1 |       0 |
   191 |EXFhl   |      5 |      0 |   1 |       0 |
   190 |EXFhs   |      6 |      0 |   1 |       0 |
   193 |EXFswnet|      7 |      0 |   1 |       0 |
   192 |EXFlwnet|      8 |      0 |   1 |       0 |
   199 |EXFuwind|      9 |      0 |   1 |       0 |
   200 |EXFvwind|     10 |      0 |   1 |       0 |
   202 |EXFatemp|     11 |      0 |   1 |       0 |
------------------------------------------------------------------------
listId=    2 ; file name: diagsSI
 nFlds, nActive,       freq     &     phase        , nLev               
    5  |    5  |     36000.000000         0.000000 |   1
 levels:   1
 diag# | name   |   ipt  |  iMate | kLev|   count |   mate.C|           
   251 |SIarea  |     12 |      0 |   1 |       0 |
   254 |SIheff  |     13 |      0 |   1 |       0 |
   256 |SIhsnow |     14 |      0 |   1 |       0 |
   272 |SIuice  |     15 |     16 |   1 |       0 |       0 |
   273 |SIvice  |     16 |     15 |   1 |       0 |       0 |
------------------------------------------------------------------------
listId=    3 ; file name: diagsKPP
 nFlds, nActive,       freq     &     phase        , nLev               
    2  |    2  |     36000.000000         0.000000 |   1
 levels:   1
 diag# | name   |   ipt  |  iMate | kLev|   count |   mate.C|           
    76 |MXLDEPTH|     17 |      0 |   1 |       0 |
   216 |KPPhbl  |     18 |      0 |   1 |       0 |
------------------------------------------------------------------------
listId=    4 ; file name: KPPghatK
 nFlds, nActive,       freq     &     phase        , nLev               
    1  |    1  |     36000.000000         0.000000 |  23
 levels:   1   2   3   4   5   6   7   8   9  10  11  12  13  14  15  16  17  18  19  20  21  22  23
 diag# | name   |   ipt  |  iMate | kLev|   count |   mate.C|           
   215 |KPPghatK|     19 |      0 |  23 |       0 |
------------------------------------------------------------------------
Global & Regional Statistics diagnostics: Number of lists:     0
------------------------------------------------------------------------
(PID.TID 0000.0001)  MDS_READ_FIELD: opening global file: pickup_cd.0000000001.data
(PID.TID 0000.0001)  MDS_READ_FIELD: opening global file: pickup_cd.0000000001.data
(PID.TID 0000.0001)  MDS_READ_FIELD: opening global file: pickup_cd.0000000001.data
(PID.TID 0000.0001)  MDS_READ_FIELD: opening global file: pickup_cd.0000000001.data
(PID.TID 0000.0001)  MDS_READ_FIELD: opening global file: pickup_cd.0000000001.data
(PID.TID 0000.0001)  MDS_READ_META: opening file: pickup_seaice.0000000001.meta
(PID.TID 0000.0001)  nRecords =   8 ; filePrec =  64 ; fileIter =      8760
(PID.TID 0000.0001)     nDims =   2 , dims:
(PID.TID 0000.0001)    1:  20   1  20
(PID.TID 0000.0001)    2:  16   1  16
(PID.TID 0000.0001)     nFlds =   8 , nFl3D =   0 , fields:
(PID.TID 0000.0001)  >siTICE  < >siAREA  < >siHEFF  < >siHSNOW < >siHSALT < >siAGE   < >siUICE  < >siVICE  <
(PID.TID 0000.0001) missingVal=  1.00000000000000E+00 ; nTimRec =   1 , timeList:
(PID.TID 0000.0001)   3.153600000000E+07
(PID.TID 0000.0001) READ_MFLDS_3D_RL: field: "siTICES " missing in file: pickup_seaice.0000000001
(PID.TID 0000.0001) READ_MFLDS_LEV_RL: read field: "siTICE  ", #   1 in fldList, rec=   1
(PID.TID 0000.0001)  MDS_READ_FIELD: opening global file: pickup_seaice.0000000001.data
(PID.TID 0000.0001) READ_MFLDS_3D_RL: read field: "siAREA  ", #   2 in fldList, rec=   2
(PID.TID 0000.0001)  MDS_READ_FIELD: opening global file: pickup_seaice.0000000001.data
(PID.TID 0000.0001) READ_MFLDS_3D_RL: read field: "siHEFF  ", #   3 in fldList, rec=   3
(PID.TID 0000.0001)  MDS_READ_FIELD: opening global file: pickup_seaice.0000000001.data
(PID.TID 0000.0001) READ_MFLDS_3D_RL: read field: "siHSNOW ", #   4 in fldList, rec=   4
(PID.TID 0000.0001)  MDS_READ_FIELD: opening global file: pickup_seaice.0000000001.data
(PID.TID 0000.0001) READ_MFLDS_3D_RL: field: "siTrac01" missing in file: pickup_seaice.0000000001
(PID.TID 0000.0001) READ_MFLDS_3D_RL: field: "siTrac02" missing in file: pickup_seaice.0000000001
(PID.TID 0000.0001) READ_MFLDS_3D_RL: read field: "siUICE  ", #   7 in fldList, rec=   7
(PID.TID 0000.0001)  MDS_READ_FIELD: opening global file: pickup_seaice.0000000001.data
(PID.TID 0000.0001) READ_MFLDS_3D_RL: read field: "siVICE  ", #   8 in fldList, rec=   8
(PID.TID 0000.0001)  MDS_READ_FIELD: opening global file: pickup_seaice.0000000001.data
(PID.TID 0000.0001) // =======================================================
(PID.TID 0000.0001) // Model current state
(PID.TID 0000.0001) // =======================================================
(PID.TID 0000.0001) 
(PID.TID 0000.0001) // =======================================================
(PID.TID 0000.0001) // Begin MONITOR dynamic field statistics
(PID.TID 0000.0001) // =======================================================
(PID.TID 0000.0001) %MON time_tsnumber                =                     1
(PID.TID 0000.0001) %MON time_secondsf                =   3.6000000000000E+03
(PID.TID 0000.0001) %MON dynstat_eta_max              =   1.2148896464948E-01
(PID.TID 0000.0001) %MON dynstat_eta_min              =  -1.2294072390931E-01
(PID.TID 0000.0001) %MON dynstat_eta_mean             =   6.4121800016545E-12
(PID.TID 0000.0001) %MON dynstat_eta_sd               =   5.5204338298496E-02
(PID.TID 0000.0001) %MON dynstat_eta_del2             =   2.4451385062930E-03
(PID.TID 0000.0001) %MON dynstat_uvel_max             =   2.9562119253125E-02
(PID.TID 0000.0001) %MON dynstat_uvel_min             =  -3.2116802195889E-02
(PID.TID 0000.0001) %MON dynstat_uvel_mean            =   7.3517212197261E-05
(PID.TID 0000.0001) %MON dynstat_uvel_sd              =   2.8200438095630E-03
(PID.TID 0000.0001) %MON dynstat_uvel_del2            =   1.2033503855943E-04
(PID.TID 0000.0001) %MON dynstat_vvel_max             =   3.0230752565413E-02
(PID.TID 0000.0001) %MON dynstat_vvel_min             =  -7.2915596643288E-02
(PID.TID 0000.0001) %MON dynstat_vvel_mean            =   5.9498925755913E-07
(PID.TID 0000.0001) %MON dynstat_vvel_sd              =   4.3487695604813E-03
(PID.TID 0000.0001) %MON dynstat_vvel_del2            =   1.6238713082459E-04
(PID.TID 0000.0001) %MON dynstat_wvel_max             =   1.0391598315861E-05
(PID.TID 0000.0001) %MON dynstat_wvel_min             =  -1.2985527598723E-05
(PID.TID 0000.0001) %MON dynstat_wvel_mean            =  -4.9430012070227E-23
(PID.TID 0000.0001) %MON dynstat_wvel_sd              =   2.9870952941015E-06
(PID.TID 0000.0001) %MON dynstat_wvel_del2            =   6.2086686091632E-08
(PID.TID 0000.0001) %MON dynstat_theta_max            =   1.2478987018692E+01
(PID.TID 0000.0001) %MON dynstat_theta_min            =  -1.8580784123481E+00
(PID.TID 0000.0001) %MON dynstat_theta_mean           =   3.0791269506833E+00
(PID.TID 0000.0001) %MON dynstat_theta_sd             =   1.4438996331350E+00
(PID.TID 0000.0001) %MON dynstat_theta_del2           =   1.7427392056272E-02
(PID.TID 0000.0001) %MON dynstat_salt_max             =   3.5292899326544E+01
(PID.TID 0000.0001) %MON dynstat_salt_min             =   3.0708011544816E+01
(PID.TID 0000.0001) %MON dynstat_salt_mean            =   3.4757103045081E+01
(PID.TID 0000.0001) %MON dynstat_salt_sd              =   4.3067456945230E-01
(PID.TID 0000.0001) %MON dynstat_salt_del2            =   3.9731514852720E-03
(PID.TID 0000.0001) %MON forcing_qnet_max             =   0.0000000000000E+00
(PID.TID 0000.0001) %MON forcing_qnet_min             =   0.0000000000000E+00
(PID.TID 0000.0001) %MON forcing_qnet_mean            =   0.0000000000000E+00
(PID.TID 0000.0001) %MON forcing_qnet_sd              =   0.0000000000000E+00
(PID.TID 0000.0001) %MON forcing_qnet_del2            =   0.0000000000000E+00
(PID.TID 0000.0001) %MON forcing_qsw_max              =   0.0000000000000E+00
(PID.TID 0000.0001) %MON forcing_qsw_min              =   0.0000000000000E+00
(PID.TID 0000.0001) %MON forcing_qsw_mean             =   0.0000000000000E+00
(PID.TID 0000.0001) %MON forcing_qsw_sd               =   0.0000000000000E+00
(PID.TID 0000.0001) %MON forcing_qsw_del2             =   0.0000000000000E+00
(PID.TID 0000.0001) %MON forcing_empmr_max            =   0.0000000000000E+00
(PID.TID 0000.0001) %MON forcing_empmr_min            =   0.0000000000000E+00
(PID.TID 0000.0001) %MON forcing_empmr_mean           =   0.0000000000000E+00
(PID.TID 0000.0001) %MON forcing_empmr_sd             =   0.0000000000000E+00
(PID.TID 0000.0001) %MON forcing_empmr_del2           =   0.0000000000000E+00
(PID.TID 0000.0001) %MON forcing_fu_max               =   0.0000000000000E+00
(PID.TID 0000.0001) %MON forcing_fu_min               =   0.0000000000000E+00
(PID.TID 0000.0001) %MON forcing_fu_mean              =   0.0000000000000E+00
(PID.TID 0000.0001) %MON forcing_fu_sd                =   0.0000000000000E+00
(PID.TID 0000.0001) %MON forcing_fu_del2              =   0.0000000000000E+00
(PID.TID 0000.0001) %MON forcing_fv_max               =   0.0000000000000E+00
(PID.TID 0000.0001) %MON forcing_fv_min               =   0.0000000000000E+00
(PID.TID 0000.0001) %MON forcing_fv_mean              =   0.0000000000000E+00
(PID.TID 0000.0001) %MON forcing_fv_sd                =   0.0000000000000E+00
(PID.TID 0000.0001) %MON forcing_fv_del2              =   0.0000000000000E+00
(PID.TID 0000.0001) %MON trAdv_CFL_u_max              =   0.0000000000000E+00
(PID.TID 0000.0001) %MON trAdv_CFL_v_max              =   0.0000000000000E+00
(PID.TID 0000.0001) %MON trAdv_CFL_w_max              =   0.0000000000000E+00
(PID.TID 0000.0001) %MON advcfl_uvel_max              =   1.1451781801565E-03
(PID.TID 0000.0001) %MON advcfl_vvel_max              =   1.1803422864558E-03
(PID.TID 0000.0001) %MON advcfl_wvel_max              =   1.0648112566456E-03
(PID.TID 0000.0001) %MON advcfl_W_hf_max              =   1.3310140708071E-03
(PID.TID 0000.0001) %MON pe_b_mean                    =   1.0046603407298E-05
(PID.TID 0000.0001) %MON ke_max                       =   2.6765885487883E-03
(PID.TID 0000.0001) %MON ke_mean                      =   1.0505632580050E-05
(PID.TID 0000.0001) %MON ke_vol                       =   5.3036189546438E+15
(PID.TID 0000.0001) %MON vort_r_min                   =  -6.7404963723140E-07
(PID.TID 0000.0001) %MON vort_r_max                   =   3.0863779134275E-07
(PID.TID 0000.0001) %MON vort_a_mean                  =   1.2067277901800E-04
(PID.TID 0000.0001) %MON vort_a_sd                    =   8.8116977051992E-06
(PID.TID 0000.0001) %MON vort_p_mean                  =   1.7734843609472E-04
(PID.TID 0000.0001) %MON vort_p_sd                    =   1.1688594067034E-04
(PID.TID 0000.0001) %MON surfExpan_theta_mean         =  -2.5436060528397E-09
(PID.TID 0000.0001) %MON surfExpan_salt_mean          =   4.4934430574990E-11
(PID.TID 0000.0001) // =======================================================
(PID.TID 0000.0001) // End MONITOR dynamic field statistics
(PID.TID 0000.0001) // =======================================================
(PID.TID 0000.0001) // =======================================================
(PID.TID 0000.0001) // Begin MONITOR SEAICE statistics
(PID.TID 0000.0001) // =======================================================
(PID.TID 0000.0001) %MON seaice_tsnumber              =                     1
(PID.TID 0000.0001) %MON seaice_time_sec              =   3.6000000000000E+03
(PID.TID 0000.0001) %MON seaice_uice_max              =   1.8146488788999E-01
(PID.TID 0000.0001) %MON seaice_uice_min              =  -1.0756200511604E-01
(PID.TID 0000.0001) %MON seaice_uice_mean             =   7.2254195465956E-02
(PID.TID 0000.0001) %MON seaice_uice_sd               =   6.7733626433475E-02
(PID.TID 0000.0001) %MON seaice_uice_del2             =   2.0695385649766E-03
(PID.TID 0000.0001) %MON seaice_vice_max              =   6.6723729113493E-02
(PID.TID 0000.0001) %MON seaice_vice_min              =  -1.5313531754626E-01
(PID.TID 0000.0001) %MON seaice_vice_mean             =  -3.3004882180409E-02
(PID.TID 0000.0001) %MON seaice_vice_sd               =   5.2865782696856E-02
(PID.TID 0000.0001) %MON seaice_vice_del2             =   2.2948534071077E-03
(PID.TID 0000.0001) %MON seaice_area_max              =   1.0000000000000E+00
(PID.TID 0000.0001) %MON seaice_area_min              =   0.0000000000000E+00
(PID.TID 0000.0001) %MON seaice_area_mean             =   3.2742977481880E-01
(PID.TID 0000.0001) %MON seaice_area_sd               =   4.4550328499500E-01
(PID.TID 0000.0001) %MON seaice_area_del2             =   2.1243385608560E-02
(PID.TID 0000.0001) %MON seaice_heff_max              =   1.6267042800440E+00
(PID.TID 0000.0001) %MON seaice_heff_min              =   0.0000000000000E+00
(PID.TID 0000.0001) %MON seaice_heff_mean             =   1.8628252768726E-01
(PID.TID 0000.0001) %MON seaice_heff_sd               =   3.5903019077317E-01
(PID.TID 0000.0001) %MON seaice_heff_del2             =   9.4579844511247E-03
(PID.TID 0000.0001) %MON seaice_hsnow_max             =   4.0199413529346E-01
(PID.TID 0000.0001) %MON seaice_hsnow_min             =   0.0000000000000E+00
(PID.TID 0000.0001) %MON seaice_hsnow_mean            =   3.4946880014200E-02
(PID.TID 0000.0001) %MON seaice_hsnow_sd              =   7.6457759461665E-02
(PID.TID 0000.0001) %MON seaice_hsnow_del2            =   2.4916394999240E-03
(PID.TID 0000.0001) %MON seaice_sitracer01_max        =   0.0000000000000E+00
(PID.TID 0000.0001) %MON seaice_sitracer01_min        =   0.0000000000000E+00
(PID.TID 0000.0001) %MON seaice_sitracer01_mean       =   0.0000000000000E+00
(PID.TID 0000.0001) %MON seaice_sitracer01_sd         =   0.0000000000000E+00
(PID.TID 0000.0001) %MON seaice_sitracer01_del2       =   0.0000000000000E+00
(PID.TID 0000.0001) %MON seaice_sitracer02_max        =   1.0000000000000E+00
(PID.TID 0000.0001) %MON seaice_sitracer02_min        =   1.0000000000000E+00
(PID.TID 0000.0001) %MON seaice_sitracer02_mean       =   1.0000000000000E+00
(PID.TID 0000.0001) %MON seaice_sitracer02_sd         =   0.0000000000000E+00
(PID.TID 0000.0001) %MON seaice_sitracer02_del2       =   0.0000000000000E+00
(PID.TID 0000.0001) // =======================================================
(PID.TID 0000.0001) // End MONITOR SEAICE statistics
(PID.TID 0000.0001) // =======================================================
(PID.TID 0000.0001)  MDS_READ_FIELD: opening global file: SSS_monthly.labsea1979
(PID.TID 0000.0001)  MDS_READ_FIELD: opening global file: SSS_monthly.labsea1979
(PID.TID 0000.0001)  MDS_READ_FIELD: opening global file: u10m.labsea1979
(PID.TID 0000.0001)  MDS_READ_FIELD: opening global file: u10m.labsea1979
(PID.TID 0000.0001)  MDS_READ_FIELD: opening global file: v10m.labsea1979
(PID.TID 0000.0001)  MDS_READ_FIELD: opening global file: v10m.labsea1979
(PID.TID 0000.0001)  MDS_READ_FIELD: opening global file: tair.labsea1979
(PID.TID 0000.0001)  MDS_READ_FIELD: opening global file: tair.labsea1979
(PID.TID 0000.0001)  MDS_READ_FIELD: opening global file: qa.labsea1979
(PID.TID 0000.0001)  MDS_READ_FIELD: opening global file: qa.labsea1979
(PID.TID 0000.0001)  MDS_READ_FIELD: opening global file: prate.labsea1979
(PID.TID 0000.0001)  MDS_READ_FIELD: opening global file: prate.labsea1979
(PID.TID 0000.0001)  MDS_READ_FIELD: opening global file: fsh.labsea1979
(PID.TID 0000.0001)  MDS_READ_FIELD: opening global file: fsh.labsea1979
(PID.TID 0000.0001)  MDS_READ_FIELD: opening global file: flo.labsea1979
(PID.TID 0000.0001)  MDS_READ_FIELD: opening global file: flo.labsea1979
(PID.TID 0000.0001) // =======================================================
(PID.TID 0000.0001) // Begin MONITOR EXF statistics
(PID.TID 0000.0001) // =======================================================
(PID.TID 0000.0001) %MON exf_tsnumber                 =                     1
(PID.TID 0000.0001) %MON exf_time_sec                 =   3.6000000000000E+03
(PID.TID 0000.0001) %MON exf_ustress_max              =   6.2604573658482E-02
(PID.TID 0000.0001) %MON exf_ustress_min              =  -9.3838135908031E-02
(PID.TID 0000.0001) %MON exf_ustress_mean             =   2.1955853069302E-02
(PID.TID 0000.0001) %MON exf_ustress_sd               =   2.6567270699742E-02
(PID.TID 0000.0001) %MON exf_ustress_del2             =   7.1493084999126E-04
(PID.TID 0000.0001) %MON exf_vstress_max              =   5.3856342580524E-02
(PID.TID 0000.0001) %MON exf_vstress_min              =  -5.9491621696902E-02
(PID.TID 0000.0001) %MON exf_vstress_mean             =  -5.3443301584531E-03
(PID.TID 0000.0001) %MON exf_vstress_sd               =   1.5041303210545E-02
(PID.TID 0000.0001) %MON exf_vstress_del2             =   5.0311210868729E-04
(PID.TID 0000.0001) %MON exf_hflux_max                =   6.3244153275825E+02
(PID.TID 0000.0001) %MON exf_hflux_min                =   8.9568462713760E+01
(PID.TID 0000.0001) %MON exf_hflux_mean               =   2.1892827358971E+02
(PID.TID 0000.0001) %MON exf_hflux_sd                 =   1.3395859134631E+02
(PID.TID 0000.0001) %MON exf_hflux_del2               =   1.3729921000727E+01
(PID.TID 0000.0001) %MON exf_sflux_max                =   4.0715172856145E-08
(PID.TID 0000.0001) %MON exf_sflux_min                =  -8.3161520051950E-08
(PID.TID 0000.0001) %MON exf_sflux_mean               =  -1.5743230075191E-08
(PID.TID 0000.0001) %MON exf_sflux_sd                 =   2.4386840924022E-08
(PID.TID 0000.0001) %MON exf_sflux_del2               =   1.6765052839554E-09
(PID.TID 0000.0001) %MON exf_uwind_max                =   6.4648819946852E+00
(PID.TID 0000.0001) %MON exf_uwind_min                =  -6.8372648550513E+00
(PID.TID 0000.0001) %MON exf_uwind_mean               =   2.7698802859475E+00
(PID.TID 0000.0001) %MON exf_uwind_sd                 =   2.9903162155877E+00
(PID.TID 0000.0001) %MON exf_uwind_del2               =   1.6625700739954E-01
(PID.TID 0000.0001) %MON exf_vwind_max                =   3.9240983933048E+00
(PID.TID 0000.0001) %MON exf_vwind_min                =  -6.0187974783892E+00
(PID.TID 0000.0001) %MON exf_vwind_mean               =  -7.6028090815952E-01
(PID.TID 0000.0001) %MON exf_vwind_sd                 =   1.7294518007626E+00
(PID.TID 0000.0001) %MON exf_vwind_del2               =   1.5097132217143E-01
(PID.TID 0000.0001) %MON exf_wspeed_max               =   7.8833202965791E+00
(PID.TID 0000.0001) %MON exf_wspeed_min               =   4.6010935417159E-01
(PID.TID 0000.0001) %MON exf_wspeed_mean              =   4.1982241536133E+00
(PID.TID 0000.0001) %MON exf_wspeed_sd                =   1.5994287774633E+00
(PID.TID 0000.0001) %MON exf_wspeed_del2              =   2.3646545747982E-01
(PID.TID 0000.0001) %MON exf_atemp_max                =   2.8188110034713E+02
(PID.TID 0000.0001) %MON exf_atemp_min                =   2.3645730413635E+02
(PID.TID 0000.0001) %MON exf_atemp_mean               =   2.6394141375606E+02
(PID.TID 0000.0001) %MON exf_atemp_sd                 =   1.1984878226631E+01
(PID.TID 0000.0001) %MON exf_atemp_del2               =   7.0555651533612E-01
(PID.TID 0000.0001) %MON exf_aqh_max                  =   6.3224764028055E-03
(PID.TID 0000.0001) %MON exf_aqh_min                  =   1.6359864467567E-04
(PID.TID 0000.0001) %MON exf_aqh_mean                 =   2.4798025537840E-03
(PID.TID 0000.0001) %MON exf_aqh_sd                   =   1.4264043737180E-03
(PID.TID 0000.0001) %MON exf_aqh_del2                 =   7.6495489306751E-05
(PID.TID 0000.0001) %MON exf_lwflux_max               =   1.8552399658577E+02
(PID.TID 0000.0001) %MON exf_lwflux_min               =   6.7048865976756E+01
(PID.TID 0000.0001) %MON exf_lwflux_mean              =   9.7802126999166E+01
(PID.TID 0000.0001) %MON exf_lwflux_sd                =   3.0992157612419E+01
(PID.TID 0000.0001) %MON exf_lwflux_del2              =   4.6155550890324E+00
(PID.TID 0000.0001) %MON exf_evap_max                 =   4.7038717969308E-08
(PID.TID 0000.0001) %MON exf_evap_min                 =   5.5285953006985E-09
(PID.TID 0000.0001) %MON exf_evap_mean                =   2.0646839623859E-08
(PID.TID 0000.0001) %MON exf_evap_sd                  =   6.9423663023095E-09
(PID.TID 0000.0001) %MON exf_evap_del2                =   1.0617997982515E-09
(PID.TID 0000.0001) %MON exf_precip_max               =   1.0498904445033E-07
(PID.TID 0000.0001) %MON exf_precip_min               =   2.7346106047101E-10
(PID.TID 0000.0001) %MON exf_precip_mean              =   3.6390069699050E-08
(PID.TID 0000.0001) %MON exf_precip_sd                =   2.0578598603627E-08
(PID.TID 0000.0001) %MON exf_precip_del2              =   1.6837812825023E-09
(PID.TID 0000.0001) %MON exf_swflux_max               =  -8.1206038349965E-02
(PID.TID 0000.0001) %MON exf_swflux_min               =  -6.3991984364244E+01
(PID.TID 0000.0001) %MON exf_swflux_mean              =  -2.6463755238823E+01
(PID.TID 0000.0001) %MON exf_swflux_sd                =   1.9629736696482E+01
(PID.TID 0000.0001) %MON exf_swflux_del2              =   7.7099997232451E-01
(PID.TID 0000.0001) %MON exf_swdown_max               =   7.1102204849160E+01
(PID.TID 0000.0001) %MON exf_swdown_min               =   9.0228931499961E-02
(PID.TID 0000.0001) %MON exf_swdown_mean              =   2.9404172487581E+01
(PID.TID 0000.0001) %MON exf_swdown_sd                =   2.1810818551646E+01
(PID.TID 0000.0001) %MON exf_swdown_del2              =   8.5666663591612E-01
(PID.TID 0000.0001) %MON exf_lwdown_max               =   3.0567089193375E+02
(PID.TID 0000.0001) %MON exf_lwdown_min               =   1.1598258522951E+02
(PID.TID 0000.0001) %MON exf_lwdown_mean              =   2.2593360963007E+02
(PID.TID 0000.0001) %MON exf_lwdown_sd                =   4.6281398610271E+01
(PID.TID 0000.0001) %MON exf_lwdown_del2              =   8.1732435942730E+00
(PID.TID 0000.0001) %MON exf_climsss_max              =   3.5040515633880E+01
(PID.TID 0000.0001) %MON exf_climsss_min              =   3.0667072499385E+01
(PID.TID 0000.0001) %MON exf_climsss_mean             =   3.3459840934468E+01
(PID.TID 0000.0001) %MON exf_climsss_sd               =   1.0318832207269E+00
(PID.TID 0000.0001) %MON exf_climsss_del2             =   2.6974851931992E-02
(PID.TID 0000.0001) // =======================================================
(PID.TID 0000.0001) // End MONITOR EXF statistics
(PID.TID 0000.0001) // =======================================================
 SEAICE_LSR: Residual Initial ipass,Uice,Vice=    1  3.79546357E-02  3.39991918E-02
 SEAICE_LSR: Residual FrDrift U_fd,V_fd=  1.12205463E+01  4.19686215E+00
 SEAICE_LSR (ipass=   1) iters,dU,Resid=    30  8.02821445E-05  1.28661095E-04
 SEAICE_LSR (ipass=   1) iters,dV,Resid=    10  9.21751320E-05  1.15535260E-04
 SEAICE_LSR: Residual Initial ipass,Uice,Vice=    2  1.71272792E-02  2.12013619E-02
 SEAICE_LSR: Residual FrDrift U_fd,V_fd=  1.15084901E+01  4.24643844E+00
 SEAICE_LSR (ipass=   2) iters,dU,Resid=    22  9.68194046E-05  1.99275988E-04
 SEAICE_LSR (ipass=   2) iters,dV,Resid=    10  7.01524236E-05  3.20161923E-05
(PID.TID 0000.0001) SOLVE_FOR_PRESSURE: putPmEinXvector =    F
 cg2d: Sum(rhs),rhsMax =  -7.21243065271437E-10  3.93338021126796E-01
(PID.TID 0000.0001)      cg2d_init_res =   5.92415623132744E-03
(PID.TID 0000.0001)      cg2d_iters(min,last) =      -1      39
(PID.TID 0000.0001)      cg2d_last_res =   4.16437115391582E-13
(PID.TID 0000.0001) // =======================================================
(PID.TID 0000.0001) // Begin MONITOR dynamic field statistics
(PID.TID 0000.0001) // =======================================================
(PID.TID 0000.0001) %MON time_tsnumber                =                     2
(PID.TID 0000.0001) %MON time_secondsf                =   7.2000000000000E+03
(PID.TID 0000.0001) %MON dynstat_eta_max              =   1.2178865317455E-01
(PID.TID 0000.0001) %MON dynstat_eta_min              =  -1.2300970129291E-01
(PID.TID 0000.0001) %MON dynstat_eta_mean             =   6.4119696997226E-12
(PID.TID 0000.0001) %MON dynstat_eta_sd               =   5.5225519873012E-02
(PID.TID 0000.0001) %MON dynstat_eta_del2             =   2.4484880139632E-03
(PID.TID 0000.0001) %MON dynstat_uvel_max             =   2.9582473567709E-02
(PID.TID 0000.0001) %MON dynstat_uvel_min             =  -3.2976419482916E-02
(PID.TID 0000.0001) %MON dynstat_uvel_mean            =   6.9782949740200E-05
(PID.TID 0000.0001) %MON dynstat_uvel_sd              =   2.8182767161188E-03
(PID.TID 0000.0001) %MON dynstat_uvel_del2            =   1.2024257369405E-04
(PID.TID 0000.0001) %MON dynstat_vvel_max             =   2.9800346718195E-02
(PID.TID 0000.0001) %MON dynstat_vvel_min             =  -6.5610685285457E-02
(PID.TID 0000.0001) %MON dynstat_vvel_mean            =   1.0789367516749E-05
(PID.TID 0000.0001) %MON dynstat_vvel_sd              =   4.2740598634193E-03
(PID.TID 0000.0001) %MON dynstat_vvel_del2            =   1.5789993275486E-04
(PID.TID 0000.0001) %MON dynstat_wvel_max             =   1.0379911352628E-05
(PID.TID 0000.0001) %MON dynstat_wvel_min             =  -1.2994356471132E-05
(PID.TID 0000.0001) %MON dynstat_wvel_mean            =   1.1121752715801E-22
(PID.TID 0000.0001) %MON dynstat_wvel_sd              =   2.9890412809587E-06
(PID.TID 0000.0001) %MON dynstat_wvel_del2            =   6.2063107925452E-08
(PID.TID 0000.0001) %MON dynstat_theta_max            =   1.2478892586827E+01
(PID.TID 0000.0001) %MON dynstat_theta_min            =  -1.8582101570706E+00
(PID.TID 0000.0001) %MON dynstat_theta_mean           =   3.0790763159685E+00
(PID.TID 0000.0001) %MON dynstat_theta_sd             =   1.4438104856133E+00
(PID.TID 0000.0001) %MON dynstat_theta_del2           =   1.7424945841095E-02
(PID.TID 0000.0001) %MON dynstat_salt_max             =   3.5292873965565E+01
(PID.TID 0000.0001) %MON dynstat_salt_min             =   3.0708026801088E+01
(PID.TID 0000.0001) %MON dynstat_salt_mean            =   3.4757108541636E+01
(PID.TID 0000.0001) %MON dynstat_salt_sd              =   4.3064887697758E-01
(PID.TID 0000.0001) %MON dynstat_salt_del2            =   3.9727004474935E-03
(PID.TID 0000.0001) %MON forcing_qnet_max             =   2.7469738303110E+02
(PID.TID 0000.0001) %MON forcing_qnet_min             =  -1.4344186365507E+02
(PID.TID 0000.0001) %MON forcing_qnet_mean            =   8.5728404112853E+01
(PID.TID 0000.0001) %MON forcing_qnet_sd              =   7.3172390211835E+01
(PID.TID 0000.0001) %MON forcing_qnet_del2            =   5.7861210473440E+00
(PID.TID 0000.0001) %MON forcing_qsw_max              =   0.0000000000000E+00
(PID.TID 0000.0001) %MON forcing_qsw_min              =  -6.3991984364244E+01
(PID.TID 0000.0001) %MON forcing_qsw_mean             =  -2.4415329829206E+01
(PID.TID 0000.0001) %MON forcing_qsw_sd               =   2.1173339052772E+01
(PID.TID 0000.0001) %MON forcing_qsw_del2             =   3.6632459432054E-01
(PID.TID 0000.0001) %MON forcing_empmr_max            =   9.8676469240616E-04
(PID.TID 0000.0001) %MON forcing_empmr_min            =  -8.3144887747939E-05
(PID.TID 0000.0001) %MON forcing_empmr_mean           =   6.1784053856966E-05
(PID.TID 0000.0001) %MON forcing_empmr_sd             =   1.5573094017339E-04
(PID.TID 0000.0001) %MON forcing_empmr_del2           =   1.5484369267775E-05
(PID.TID 0000.0001) %MON forcing_fu_max               =   6.2058855204199E-02
(PID.TID 0000.0001) %MON forcing_fu_min               =  -1.8671821823637E-02
(PID.TID 0000.0001) %MON forcing_fu_mean              =   2.3680529456411E-02
(PID.TID 0000.0001) %MON forcing_fu_sd                =   2.0936002030990E-02
(PID.TID 0000.0001) %MON forcing_fu_del2              =   5.6966766675303E-04
(PID.TID 0000.0001) %MON forcing_fv_max               =   1.4705854460915E-02
(PID.TID 0000.0001) %MON forcing_fv_min               =  -4.1877547394862E-02
(PID.TID 0000.0001) %MON forcing_fv_mean              =  -5.0203715207706E-03
(PID.TID 0000.0001) %MON forcing_fv_sd                =   1.1843890849299E-02
(PID.TID 0000.0001) %MON forcing_fv_del2              =   5.0775329577745E-04
(PID.TID 0000.0001) %MON trAdv_CFL_u_max              =   1.1452363224265E-03
(PID.TID 0000.0001) %MON trAdv_CFL_v_max              =   1.2173873668761E-03
(PID.TID 0000.0001) %MON trAdv_CFL_w_max              =   1.3310140708071E-03
(PID.TID 0000.0001) %MON advcfl_uvel_max              =   1.1758292690907E-03
(PID.TID 0000.0001) %MON advcfl_vvel_max              =   1.0620919234142E-03
(PID.TID 0000.0001) %MON advcfl_wvel_max              =   1.0615636469570E-03
(PID.TID 0000.0001) %MON advcfl_W_hf_max              =   1.3269545586962E-03
(PID.TID 0000.0001) %MON pe_b_mean                    =   1.0054314529679E-05
(PID.TID 0000.0001) %MON ke_max                       =   2.0506592007972E-03
(PID.TID 0000.0001) %MON ke_mean                      =   1.0250700990439E-05
(PID.TID 0000.0001) %MON ke_vol                       =   5.3036189546438E+15
(PID.TID 0000.0001) %MON vort_r_min                   =  -5.7661608729465E-07
(PID.TID 0000.0001) %MON vort_r_max                   =   2.8459474854359E-07
(PID.TID 0000.0001) %MON vort_a_mean                  =   1.2067277901610E-04
(PID.TID 0000.0001) %MON vort_a_sd                    =   8.8116929183734E-06
(PID.TID 0000.0001) %MON vort_p_mean                  =   1.7734843609193E-04
(PID.TID 0000.0001) %MON vort_p_sd                    =   1.1688597353208E-04
(PID.TID 0000.0001) %MON surfExpan_theta_mean         =  -3.4341807740088E-08
(PID.TID 0000.0001) %MON surfExpan_salt_mean          =  -1.6766874742216E-09
(PID.TID 0000.0001) // =======================================================
(PID.TID 0000.0001) // End MONITOR dynamic field statistics
(PID.TID 0000.0001) // =======================================================
(PID.TID 0000.0001) // =======================================================
(PID.TID 0000.0001) // Begin MONITOR SEAICE statistics
(PID.TID 0000.0001) // =======================================================
(PID.TID 0000.0001) %MON seaice_tsnumber              =                     2
(PID.TID 0000.0001) %MON seaice_time_sec              =   7.2000000000000E+03
(PID.TID 0000.0001) %MON seaice_uice_max              =   1.2159649047024E-01
(PID.TID 0000.0001) %MON seaice_uice_min              =  -6.8664548888636E-02
(PID.TID 0000.0001) %MON seaice_uice_mean             =   4.7501932806433E-02
(PID.TID 0000.0001) %MON seaice_uice_sd               =   4.7055321929982E-02
(PID.TID 0000.0001) %MON seaice_uice_del2             =   1.4478783960621E-03
(PID.TID 0000.0001) %MON seaice_vice_max              =   5.0518522714752E-02
(PID.TID 0000.0001) %MON seaice_vice_min              =  -1.2299155157052E-01
(PID.TID 0000.0001) %MON seaice_vice_mean             =  -2.5002472003546E-02
(PID.TID 0000.0001) %MON seaice_vice_sd               =   3.9390344808528E-02
(PID.TID 0000.0001) %MON seaice_vice_del2             =   1.7376068879364E-03
(PID.TID 0000.0001) %MON seaice_area_max              =   9.9999976004412E-01
(PID.TID 0000.0001) %MON seaice_area_min              =   0.0000000000000E+00
(PID.TID 0000.0001) %MON seaice_area_mean             =   3.2762454507149E-01
(PID.TID 0000.0001) %MON seaice_area_sd               =   4.4554792471792E-01
(PID.TID 0000.0001) %MON seaice_area_del2             =   2.1220168259264E-02
(PID.TID 0000.0001) %MON seaice_heff_max              =   1.6271219302842E+00
(PID.TID 0000.0001) %MON seaice_heff_min              =   0.0000000000000E+00
(PID.TID 0000.0001) %MON seaice_heff_mean             =   1.8660470308095E-01
(PID.TID 0000.0001) %MON seaice_heff_sd               =   3.5915546274096E-01
(PID.TID 0000.0001) %MON seaice_heff_del2             =   9.4499948659559E-03
(PID.TID 0000.0001) %MON seaice_hsnow_max             =   4.0208981550862E-01
(PID.TID 0000.0001) %MON seaice_hsnow_min             =   0.0000000000000E+00
(PID.TID 0000.0001) %MON seaice_hsnow_mean            =   3.4997616611484E-02
(PID.TID 0000.0001) %MON seaice_hsnow_sd              =   7.6497731884225E-02
(PID.TID 0000.0001) %MON seaice_hsnow_del2            =   2.4943611865779E-03
(PID.TID 0000.0001) %MON seaice_sitracer01_max        =   3.6000000000000E+03
(PID.TID 0000.0001) %MON seaice_sitracer01_min        =   0.0000000000000E+00
(PID.TID 0000.0001) %MON seaice_sitracer01_mean       =   1.3313885196462E+03
(PID.TID 0000.0001) %MON seaice_sitracer01_sd         =   1.7379307467447E+03
(PID.TID 0000.0001) %MON seaice_sitracer01_del2       =   1.2237646832623E+02
(PID.TID 0000.0001) %MON seaice_sitracer02_max        =   1.0000000000000E+00
(PID.TID 0000.0001) %MON seaice_sitracer02_min        =   0.0000000000000E+00
(PID.TID 0000.0001) %MON seaice_sitracer02_mean       =   3.9880510261478E-01
(PID.TID 0000.0001) %MON seaice_sitracer02_sd         =   4.8965252245158E-01
(PID.TID 0000.0001) %MON seaice_sitracer02_del2       =   2.7487370837451E-02
(PID.TID 0000.0001) // =======================================================
(PID.TID 0000.0001) // End MONITOR SEAICE statistics
(PID.TID 0000.0001) // =======================================================
(PID.TID 0000.0001) // =======================================================
(PID.TID 0000.0001) // Begin MONITOR EXF statistics
(PID.TID 0000.0001) // =======================================================
(PID.TID 0000.0001) %MON exf_tsnumber                 =                     2
(PID.TID 0000.0001) %MON exf_time_sec                 =   7.2000000000000E+03
(PID.TID 0000.0001) %MON exf_ustress_max              =   6.2615850908593E-02
(PID.TID 0000.0001) %MON exf_ustress_min              =  -9.3841213062942E-02
(PID.TID 0000.0001) %MON exf_ustress_mean             =   2.1958575018663E-02
(PID.TID 0000.0001) %MON exf_ustress_sd               =   2.6571784291904E-02
(PID.TID 0000.0001) %MON exf_ustress_del2             =   7.1500684891963E-04
(PID.TID 0000.0001) %MON exf_vstress_max              =   5.3858311912431E-02
(PID.TID 0000.0001) %MON exf_vstress_min              =  -5.9475010170967E-02
(PID.TID 0000.0001) %MON exf_vstress_mean             =  -5.3398775156520E-03
(PID.TID 0000.0001) %MON exf_vstress_sd               =   1.5042999757397E-02
(PID.TID 0000.0001) %MON exf_vstress_del2             =   5.0313661396805E-04
(PID.TID 0000.0001) %MON exf_hflux_max                =   6.3254927225398E+02
(PID.TID 0000.0001) %MON exf_hflux_min                =   8.9570235434581E+01
(PID.TID 0000.0001) %MON exf_hflux_mean               =   2.1899135922788E+02
(PID.TID 0000.0001) %MON exf_hflux_sd                 =   1.3400925261074E+02
(PID.TID 0000.0001) %MON exf_hflux_del2               =   1.3736178978841E+01
(PID.TID 0000.0001) %MON exf_sflux_max                =   4.0722487314765E-08
(PID.TID 0000.0001) %MON exf_sflux_min                =  -8.3167026113629E-08
(PID.TID 0000.0001) %MON exf_sflux_mean               =  -1.5738114962257E-08
(PID.TID 0000.0001) %MON exf_sflux_sd                 =   2.4390914697779E-08
(PID.TID 0000.0001) %MON exf_sflux_del2               =   1.6767202133271E-09
(PID.TID 0000.0001) %MON exf_uwind_max                =   6.4653894471340E+00
(PID.TID 0000.0001) %MON exf_uwind_min                =  -6.8372916367536E+00
(PID.TID 0000.0001) %MON exf_uwind_mean               =   2.7699878382919E+00
(PID.TID 0000.0001) %MON exf_uwind_sd                 =   2.9905922217476E+00
(PID.TID 0000.0001) %MON exf_uwind_del2               =   8.0271529751792E-02
(PID.TID 0000.0001) %MON exf_vwind_max                =   3.9241285741003E+00
(PID.TID 0000.0001) %MON exf_vwind_min                =  -6.0178915685643E+00
(PID.TID 0000.0001) %MON exf_vwind_mean               =  -7.5966313506940E-01
(PID.TID 0000.0001) %MON exf_vwind_sd                 =   1.7295599554900E+00
(PID.TID 0000.0001) %MON exf_vwind_del2               =   4.8609699266683E-02
(PID.TID 0000.0001) %MON exf_wspeed_max               =   7.8833585477315E+00
(PID.TID 0000.0001) %MON exf_wspeed_min               =   4.5986651533145E-01
(PID.TID 0000.0001) %MON exf_wspeed_mean              =   4.1983267266652E+00
(PID.TID 0000.0001) %MON exf_wspeed_sd                =   1.5996852426804E+00
(PID.TID 0000.0001) %MON exf_wspeed_del2              =   2.3646299926724E-01
(PID.TID 0000.0001) %MON exf_atemp_max                =   2.8187938819427E+02
(PID.TID 0000.0001) %MON exf_atemp_min                =   2.3645283916869E+02
(PID.TID 0000.0001) %MON exf_atemp_mean               =   2.6393676967070E+02
(PID.TID 0000.0001) %MON exf_atemp_sd                 =   1.1986339246462E+01
(PID.TID 0000.0001) %MON exf_atemp_del2               =   7.0585416752362E-01
(PID.TID 0000.0001) %MON exf_aqh_max                  =   6.3217798619445E-03
(PID.TID 0000.0001) %MON exf_aqh_min                  =   1.6350454117726E-04
(PID.TID 0000.0001) %MON exf_aqh_mean                 =   2.4792421973794E-03
(PID.TID 0000.0001) %MON exf_aqh_sd                   =   1.4263013062694E-03
(PID.TID 0000.0001) %MON exf_aqh_del2                 =   7.6471629231506E-05
(PID.TID 0000.0001) %MON exf_lwflux_max               =   1.8555566315467E+02
(PID.TID 0000.0001) %MON exf_lwflux_min               =   6.7051110332635E+01
(PID.TID 0000.0001) %MON exf_lwflux_mean              =   9.7817440866523E+01
(PID.TID 0000.0001) %MON exf_lwflux_sd                =   3.1001201274362E+01
(PID.TID 0000.0001) %MON exf_lwflux_del2              =   4.6167885248615E+00
(PID.TID 0000.0001) %MON exf_evap_max                 =   4.7045369716998E-08
(PID.TID 0000.0001) %MON exf_evap_min                 =   5.5232716019551E-09
(PID.TID 0000.0001) %MON exf_evap_mean                =   2.0651943892759E-08
(PID.TID 0000.0001) %MON exf_evap_sd                  =   6.9426666272291E-09
(PID.TID 0000.0001) %MON exf_evap_del2                =   1.0622874396342E-09
(PID.TID 0000.0001) %MON exf_precip_max               =   1.0499042589295E-07
(PID.TID 0000.0001) %MON exf_precip_min               =   2.7332713399833E-10
(PID.TID 0000.0001) %MON exf_precip_mean              =   3.6390058855016E-08
(PID.TID 0000.0001) %MON exf_precip_sd                =   2.0579049691733E-08
(PID.TID 0000.0001) %MON exf_precip_del2              =   1.6840584643800E-09
(PID.TID 0000.0001) %MON exf_swflux_max               =  -8.1206321227746E-02
(PID.TID 0000.0001) %MON exf_swflux_min               =  -6.4010854714816E+01
(PID.TID 0000.0001) %MON exf_swflux_mean              =  -2.6474287454698E+01
(PID.TID 0000.0001) %MON exf_swflux_sd                =   1.9633572905820E+01
(PID.TID 0000.0001) %MON exf_swflux_del2              =   7.7140179220378E-01
(PID.TID 0000.0001) %MON exf_swdown_max               =   7.1123171905351E+01
(PID.TID 0000.0001) %MON exf_swdown_min               =   9.0229245808607E-02
(PID.TID 0000.0001) %MON exf_swdown_mean              =   2.9415874949665E+01
(PID.TID 0000.0001) %MON exf_swdown_sd                =   2.1815081006466E+01
(PID.TID 0000.0001) %MON exf_swdown_del2              =   8.5711310244864E-01
(PID.TID 0000.0001) %MON exf_lwdown_max               =   3.0566206584993E+02
(PID.TID 0000.0001) %MON exf_lwdown_min               =   1.1596747835086E+02
(PID.TID 0000.0001) %MON exf_lwdown_mean              =   2.2591790230100E+02
(PID.TID 0000.0001) %MON exf_lwdown_sd                =   4.6285369157135E+01
(PID.TID 0000.0001) %MON exf_lwdown_del2              =   8.1722892696108E+00
(PID.TID 0000.0001) %MON exf_climsss_max              =   3.5040700380919E+01
(PID.TID 0000.0001) %MON exf_climsss_min              =   3.0667831827383E+01
(PID.TID 0000.0001) %MON exf_climsss_mean             =   3.3460362267948E+01
(PID.TID 0000.0001) %MON exf_climsss_sd               =   1.0318117788237E+00
(PID.TID 0000.0001) %MON exf_climsss_del2             =   2.6973864151273E-02
(PID.TID 0000.0001) // =======================================================
(PID.TID 0000.0001) // End MONITOR EXF statistics
(PID.TID 0000.0001) // =======================================================
 SEAICE_LSR: Residual Initial ipass,Uice,Vice=    1  1.49753285E-02  1.09289412E-02
 SEAICE_LSR: Residual FrDrift U_fd,V_fd=  1.19924939E+01  4.37370429E+00
 SEAICE_LSR (ipass=   1) iters,dU,Resid=    14  9.64691070E-05  1.97718623E-04
 SEAICE_LSR (ipass=   1) iters,dV,Resid=    10  6.03723290E-05  7.73849732E-05
 SEAICE_LSR: Residual Initial ipass,Uice,Vice=    2  1.11016555E-02  9.20504319E-03
 SEAICE_LSR: Residual FrDrift U_fd,V_fd=  1.21856925E+01  4.43572167E+00
 SEAICE_LSR (ipass=   2) iters,dU,Resid=    10  7.76728689E-05  3.03835305E-04
 SEAICE_LSR (ipass=   2) iters,dV,Resid=     8  6.78142873E-05  9.31408885E-05
 cg2d: Sum(rhs),rhsMax =  -7.21275372761454E-10  3.93307935218889E-01
(PID.TID 0000.0001)      cg2d_init_res =   3.28826101937808E-03
(PID.TID 0000.0001)      cg2d_iters(min,last) =      -1      39
(PID.TID 0000.0001)      cg2d_last_res =   5.26081880520087E-13
(PID.TID 0000.0001) // =======================================================
(PID.TID 0000.0001) // Begin MONITOR dynamic field statistics
(PID.TID 0000.0001) // =======================================================
(PID.TID 0000.0001) %MON time_tsnumber                =                     3
(PID.TID 0000.0001) %MON time_secondsf                =   1.0800000000000E+04
(PID.TID 0000.0001) %MON dynstat_eta_max              =   1.2129801561921E-01
(PID.TID 0000.0001) %MON dynstat_eta_min              =  -1.2309831597489E-01
(PID.TID 0000.0001) %MON dynstat_eta_mean             =   6.4115846458799E-12
(PID.TID 0000.0001) %MON dynstat_eta_sd               =   5.5202962614724E-02
(PID.TID 0000.0001) %MON dynstat_eta_del2             =   2.4468280322551E-03
(PID.TID 0000.0001) %MON dynstat_uvel_max             =   2.9653163263448E-02
(PID.TID 0000.0001) %MON dynstat_uvel_min             =  -3.1476582715547E-02
(PID.TID 0000.0001) %MON dynstat_uvel_mean            =   6.8429127441571E-05
(PID.TID 0000.0001) %MON dynstat_uvel_sd              =   2.8072953354657E-03
(PID.TID 0000.0001) %MON dynstat_uvel_del2            =   1.1994870194832E-04
(PID.TID 0000.0001) %MON dynstat_vvel_max             =   2.9140048762487E-02
(PID.TID 0000.0001) %MON dynstat_vvel_min             =  -6.2268319681999E-02
(PID.TID 0000.0001) %MON dynstat_vvel_mean            =   2.0599880737882E-05
(PID.TID 0000.0001) %MON dynstat_vvel_sd              =   4.2216202496575E-03
(PID.TID 0000.0001) %MON dynstat_vvel_del2            =   1.5608804492637E-04
(PID.TID 0000.0001) %MON dynstat_wvel_max             =   1.0367141937724E-05
(PID.TID 0000.0001) %MON dynstat_wvel_min             =  -1.3007137018645E-05
(PID.TID 0000.0001) %MON dynstat_wvel_mean            =   4.9430012070227E-23
(PID.TID 0000.0001) %MON dynstat_wvel_sd              =   2.9882737962226E-06
(PID.TID 0000.0001) %MON dynstat_wvel_del2            =   6.1987778013102E-08
(PID.TID 0000.0001) %MON dynstat_theta_max            =   1.2478805256477E+01
(PID.TID 0000.0001) %MON dynstat_theta_min            =  -1.8578142787143E+00
(PID.TID 0000.0001) %MON dynstat_theta_mean           =   3.0790245212775E+00
(PID.TID 0000.0001) %MON dynstat_theta_sd             =   1.4437252006105E+00
(PID.TID 0000.0001) %MON dynstat_theta_del2           =   1.7426325927476E-02
(PID.TID 0000.0001) %MON dynstat_salt_max             =   3.5292848574499E+01
(PID.TID 0000.0001) %MON dynstat_salt_min             =   3.0708042840105E+01
(PID.TID 0000.0001) %MON dynstat_salt_mean            =   3.4757113559442E+01
(PID.TID 0000.0001) %MON dynstat_salt_sd              =   4.3062492979939E-01
(PID.TID 0000.0001) %MON dynstat_salt_del2            =   3.9749726791482E-03
(PID.TID 0000.0001) %MON forcing_qnet_max             =   2.7466375109868E+02
(PID.TID 0000.0001) %MON forcing_qnet_min             =  -1.3281631354341E+02
(PID.TID 0000.0001) %MON forcing_qnet_mean            =   8.7899483195471E+01
(PID.TID 0000.0001) %MON forcing_qnet_sd              =   7.0978390367902E+01
(PID.TID 0000.0001) %MON forcing_qnet_del2            =   4.9259137059118E+00
(PID.TID 0000.0001) %MON forcing_qsw_max              =   0.0000000000000E+00
(PID.TID 0000.0001) %MON forcing_qsw_min              =  -6.4010854714816E+01
(PID.TID 0000.0001) %MON forcing_qsw_mean             =  -2.4420332604810E+01
(PID.TID 0000.0001) %MON forcing_qsw_sd               =   2.1179634114560E+01
(PID.TID 0000.0001) %MON forcing_qsw_del2             =   3.6653278325387E-01
(PID.TID 0000.0001) %MON forcing_empmr_max            =   9.5255966757375E-04
(PID.TID 0000.0001) %MON forcing_empmr_min            =  -8.3150392708406E-05
(PID.TID 0000.0001) %MON forcing_empmr_mean           =   5.5126536154418E-05
(PID.TID 0000.0001) %MON forcing_empmr_sd             =   1.4496181198972E-04
(PID.TID 0000.0001) %MON forcing_empmr_del2           =   1.1695689377935E-05
(PID.TID 0000.0001) %MON forcing_fu_max               =   6.2069229376986E-02
(PID.TID 0000.0001) %MON forcing_fu_min               =  -1.8229982278566E-02
(PID.TID 0000.0001) %MON forcing_fu_mean              =   2.3507349300778E-02
(PID.TID 0000.0001) %MON forcing_fu_sd                =   2.0998087755051E-02
(PID.TID 0000.0001) %MON forcing_fu_del2              =   5.5042463335009E-04
(PID.TID 0000.0001) %MON forcing_fv_max               =   1.4709634305346E-02
(PID.TID 0000.0001) %MON forcing_fv_min               =  -4.1863528417403E-02
(PID.TID 0000.0001) %MON forcing_fv_mean              =  -4.7312458765170E-03
(PID.TID 0000.0001) %MON forcing_fv_sd                =   1.1559314050837E-02
(PID.TID 0000.0001) %MON forcing_fv_del2              =   4.6808608250191E-04
(PID.TID 0000.0001) %MON trAdv_CFL_u_max              =   1.1758889675586E-03
(PID.TID 0000.0001) %MON trAdv_CFL_v_max              =   1.0928348277896E-03
(PID.TID 0000.0001) %MON trAdv_CFL_w_max              =   1.3269545586962E-03
(PID.TID 0000.0001) %MON advcfl_uvel_max              =   1.1223500861598E-03
(PID.TID 0000.0001) %MON advcfl_vvel_max              =   1.0079864145770E-03
(PID.TID 0000.0001) %MON advcfl_wvel_max              =   1.0582740166433E-03
(PID.TID 0000.0001) %MON advcfl_W_hf_max              =   1.3228425208041E-03
(PID.TID 0000.0001) %MON pe_b_mean                    =   1.0046102693858E-05
(PID.TID 0000.0001) %MON ke_max                       =   1.6936508625121E-03
(PID.TID 0000.0001) %MON ke_mean                      =   1.0052890354366E-05
(PID.TID 0000.0001) %MON ke_vol                       =   5.3036189546438E+15
(PID.TID 0000.0001) %MON vort_r_min                   =  -5.2733372889427E-07
(PID.TID 0000.0001) %MON vort_r_max                   =   2.5942821335100E-07
(PID.TID 0000.0001) %MON vort_a_mean                  =   1.2067277900895E-04
(PID.TID 0000.0001) %MON vort_a_sd                    =   8.8116905961001E-06
(PID.TID 0000.0001) %MON vort_p_mean                  =   1.7734843608142E-04
(PID.TID 0000.0001) %MON vort_p_sd                    =   1.1688600005910E-04
(PID.TID 0000.0001) %MON surfExpan_theta_mean         =  -5.6227205021207E-08
(PID.TID 0000.0001) %MON surfExpan_salt_mean          =  -8.9265161071367E-11
(PID.TID 0000.0001) // =======================================================
(PID.TID 0000.0001) // End MONITOR dynamic field statistics
(PID.TID 0000.0001) // =======================================================
(PID.TID 0000.0001) // =======================================================
(PID.TID 0000.0001) // Begin MONITOR SEAICE statistics
(PID.TID 0000.0001) // =======================================================
(PID.TID 0000.0001) %MON seaice_tsnumber              =                     3
(PID.TID 0000.0001) %MON seaice_time_sec              =   1.0800000000000E+04
(PID.TID 0000.0001) %MON seaice_uice_max              =   1.2895059538854E-01
(PID.TID 0000.0001) %MON seaice_uice_min              =  -6.7771534289015E-02
(PID.TID 0000.0001) %MON seaice_uice_mean             =   5.0061664725901E-02
(PID.TID 0000.0001) %MON seaice_uice_sd               =   4.9376822034192E-02
(PID.TID 0000.0001) %MON seaice_uice_del2             =   1.4139476317996E-03
(PID.TID 0000.0001) %MON seaice_vice_max              =   4.8338897612386E-02
(PID.TID 0000.0001) %MON seaice_vice_min              =  -1.1978558895405E-01
(PID.TID 0000.0001) %MON seaice_vice_mean             =  -2.3874134613180E-02
(PID.TID 0000.0001) %MON seaice_vice_sd               =   3.8581052199064E-02
(PID.TID 0000.0001) %MON seaice_vice_del2             =   1.6386228997617E-03
(PID.TID 0000.0001) %MON seaice_area_max              =   9.9999971275510E-01
(PID.TID 0000.0001) %MON seaice_area_min              =   0.0000000000000E+00
(PID.TID 0000.0001) %MON seaice_area_mean             =   3.2776916127978E-01
(PID.TID 0000.0001) %MON seaice_area_sd               =   4.4556734355573E-01
(PID.TID 0000.0001) %MON seaice_area_del2             =   2.1199599190181E-02
(PID.TID 0000.0001) %MON seaice_heff_max              =   1.6275284237955E+00
(PID.TID 0000.0001) %MON seaice_heff_min              =   0.0000000000000E+00
(PID.TID 0000.0001) %MON seaice_heff_mean             =   1.8690054284424E-01
(PID.TID 0000.0001) %MON seaice_heff_sd               =   3.5928781973500E-01
(PID.TID 0000.0001) %MON seaice_heff_del2             =   9.4460150580730E-03
(PID.TID 0000.0001) %MON seaice_hsnow_max             =   4.0218541284552E-01
(PID.TID 0000.0001) %MON seaice_hsnow_min             =   0.0000000000000E+00
(PID.TID 0000.0001) %MON seaice_hsnow_mean            =   3.5048398926261E-02
(PID.TID 0000.0001) %MON seaice_hsnow_sd              =   7.6537835963125E-02
(PID.TID 0000.0001) %MON seaice_hsnow_del2            =   2.4971514910818E-03
(PID.TID 0000.0001) %MON seaice_sitracer01_max        =   7.2000000000000E+03
(PID.TID 0000.0001) %MON seaice_sitracer01_min        =   0.0000000000000E+00
(PID.TID 0000.0001) %MON seaice_sitracer01_mean       =   2.6609286134823E+03
(PID.TID 0000.0001) %MON seaice_sitracer01_sd         =   3.4734685721145E+03
(PID.TID 0000.0001) %MON seaice_sitracer01_del2       =   2.4426808038021E+02
(PID.TID 0000.0001) %MON seaice_sitracer02_max        =   1.0000000000000E+00
(PID.TID 0000.0001) %MON seaice_sitracer02_min        =   0.0000000000000E+00
(PID.TID 0000.0001) %MON seaice_sitracer02_mean       =   3.9880510261478E-01
(PID.TID 0000.0001) %MON seaice_sitracer02_sd         =   4.8965252245158E-01
(PID.TID 0000.0001) %MON seaice_sitracer02_del2       =   2.7487370837451E-02
(PID.TID 0000.0001) // =======================================================
(PID.TID 0000.0001) // End MONITOR SEAICE statistics
(PID.TID 0000.0001) // =======================================================
(PID.TID 0000.0001) // =======================================================
(PID.TID 0000.0001) // Begin MONITOR EXF statistics
(PID.TID 0000.0001) // =======================================================
(PID.TID 0000.0001) %MON exf_tsnumber                 =                     3
(PID.TID 0000.0001) %MON exf_time_sec                 =   1.0800000000000E+04
(PID.TID 0000.0001) %MON exf_ustress_max              =   6.2626780207006E-02
(PID.TID 0000.0001) %MON exf_ustress_min              =  -9.3844240691347E-02
(PID.TID 0000.0001) %MON exf_ustress_mean             =   2.1961205311004E-02
(PID.TID 0000.0001) %MON exf_ustress_sd               =   2.6576129221348E-02
(PID.TID 0000.0001) %MON exf_ustress_del2             =   7.1507513743315E-04
(PID.TID 0000.0001) %MON exf_vstress_max              =   5.3860252831208E-02
(PID.TID 0000.0001) %MON exf_vstress_min              =  -5.9458342101174E-02
(PID.TID 0000.0001) %MON exf_vstress_mean             =  -5.3354168833263E-03
(PID.TID 0000.0001) %MON exf_vstress_sd               =   1.5044623546085E-02
(PID.TID 0000.0001) %MON exf_vstress_del2             =   5.0315600748767E-04
(PID.TID 0000.0001) %MON exf_hflux_max                =   6.3265386399200E+02
(PID.TID 0000.0001) %MON exf_hflux_min                =   8.9564436754589E+01
(PID.TID 0000.0001) %MON exf_hflux_mean               =   2.1905075711653E+02
(PID.TID 0000.0001) %MON exf_hflux_sd                 =   1.3408090677782E+02
(PID.TID 0000.0001) %MON exf_hflux_del2               =   1.3741441951925E+01
(PID.TID 0000.0001) %MON exf_sflux_max                =   4.0729387484053E-08
(PID.TID 0000.0001) %MON exf_sflux_min                =  -8.3172895660401E-08
(PID.TID 0000.0001) %MON exf_sflux_mean               =  -1.5733619953188E-08
(PID.TID 0000.0001) %MON exf_sflux_sd                 =   2.4397098902146E-08
(PID.TID 0000.0001) %MON exf_sflux_del2               =   1.6769609088159E-09
(PID.TID 0000.0001) %MON exf_uwind_max                =   6.4658968995829E+00
(PID.TID 0000.0001) %MON exf_uwind_min                =  -6.8373184184559E+00
(PID.TID 0000.0001) %MON exf_uwind_mean               =   2.7700953906363E+00
(PID.TID 0000.0001) %MON exf_uwind_sd                 =   2.9908682681638E+00
(PID.TID 0000.0001) %MON exf_uwind_del2               =   8.0271336255764E-02
(PID.TID 0000.0001) %MON exf_vwind_max                =   3.9241587548959E+00
(PID.TID 0000.0001) %MON exf_vwind_min                =  -6.0169856587394E+00
(PID.TID 0000.0001) %MON exf_vwind_mean               =  -7.5904536197929E-01
(PID.TID 0000.0001) %MON exf_vwind_sd                 =   1.7296682234552E+00
(PID.TID 0000.0001) %MON exf_vwind_del2               =   4.8609550037542E-02
(PID.TID 0000.0001) %MON exf_wspeed_max               =   7.8833967989048E+00
(PID.TID 0000.0001) %MON exf_wspeed_min               =   4.5962367887737E-01
(PID.TID 0000.0001) %MON exf_wspeed_mean              =   4.1984294286706E+00
(PID.TID 0000.0001) %MON exf_wspeed_sd                =   1.5999418201857E+00
(PID.TID 0000.0001) %MON exf_wspeed_del2              =   2.3646054790944E-01
(PID.TID 0000.0001) %MON exf_atemp_max                =   2.8187767604140E+02
(PID.TID 0000.0001) %MON exf_atemp_min                =   2.3644837420104E+02
(PID.TID 0000.0001) %MON exf_atemp_mean               =   2.6393212558534E+02
(PID.TID 0000.0001) %MON exf_atemp_sd                 =   1.1987800753926E+01
(PID.TID 0000.0001) %MON exf_atemp_del2               =   7.0615187686393E-01
(PID.TID 0000.0001) %MON exf_aqh_max                  =   6.3210833210834E-03
(PID.TID 0000.0001) %MON exf_aqh_min                  =   1.6341043767886E-04
(PID.TID 0000.0001) %MON exf_aqh_mean                 =   2.4786818409748E-03
(PID.TID 0000.0001) %MON exf_aqh_sd                   =   1.4261982746893E-03
(PID.TID 0000.0001) %MON exf_aqh_del2                 =   7.6447772192714E-05
(PID.TID 0000.0001) %MON exf_lwflux_max               =   1.8557550480873E+02
(PID.TID 0000.0001) %MON exf_lwflux_min               =   6.7051520966288E+01
(PID.TID 0000.0001) %MON exf_lwflux_mean              =   9.7831770403597E+01
(PID.TID 0000.0001) %MON exf_lwflux_sd                =   3.1014074184377E+01
(PID.TID 0000.0001) %MON exf_lwflux_del2              =   4.6178084594155E+00
(PID.TID 0000.0001) %MON exf_evap_max                 =   4.7051607175355E-08
(PID.TID 0000.0001) %MON exf_evap_min                 =   5.5179292310428E-09
(PID.TID 0000.0001) %MON exf_evap_mean                =   2.0656428057794E-08
(PID.TID 0000.0001) %MON exf_evap_sd                  =   6.9451667882530E-09
(PID.TID 0000.0001) %MON exf_evap_del2                =   1.0626499511561E-09
(PID.TID 0000.0001) %MON exf_precip_max               =   1.0499180733557E-07
(PID.TID 0000.0001) %MON exf_precip_min               =   2.7319320752566E-10
(PID.TID 0000.0001) %MON exf_precip_mean              =   3.6390048010982E-08
(PID.TID 0000.0001) %MON exf_precip_sd                =   2.0579501435483E-08
(PID.TID 0000.0001) %MON exf_precip_del2              =   1.6843356913630E-09
(PID.TID 0000.0001) %MON exf_swflux_max               =  -8.1206604105527E-02
(PID.TID 0000.0001) %MON exf_swflux_min               =  -6.4029725065388E+01
(PID.TID 0000.0001) %MON exf_swflux_mean              =  -2.6484819670573E+01
(PID.TID 0000.0001) %MON exf_swflux_sd                =   1.9637409707136E+01
(PID.TID 0000.0001) %MON exf_swflux_del2              =   7.7180369708849E-01
(PID.TID 0000.0001) %MON exf_swdown_max               =   7.1144138961542E+01
(PID.TID 0000.0001) %MON exf_swdown_min               =   9.0229560117253E-02
(PID.TID 0000.0001) %MON exf_swdown_mean              =   2.9427577411748E+01
(PID.TID 0000.0001) %MON exf_swdown_sd                =   2.1819344119040E+01
(PID.TID 0000.0001) %MON exf_swdown_del2              =   8.5755966343166E-01
(PID.TID 0000.0001) %MON exf_lwdown_max               =   3.0565323976611E+02
(PID.TID 0000.0001) %MON exf_lwdown_min               =   1.1595237147222E+02
(PID.TID 0000.0001) %MON exf_lwdown_mean              =   2.2590219497194E+02
(PID.TID 0000.0001) %MON exf_lwdown_sd                =   4.6289340871590E+01
(PID.TID 0000.0001) %MON exf_lwdown_del2              =   8.1713349858933E+00
(PID.TID 0000.0001) %MON exf_climsss_max              =   3.5040885127959E+01
(PID.TID 0000.0001) %MON exf_climsss_min              =   3.0668591155380E+01
(PID.TID 0000.0001) %MON exf_climsss_mean             =   3.3460883601427E+01
(PID.TID 0000.0001) %MON exf_climsss_sd               =   1.0317405668875E+00
(PID.TID 0000.0001) %MON exf_climsss_del2             =   2.6972899555616E-02
(PID.TID 0000.0001) // =======================================================
(PID.TID 0000.0001) // End MONITOR EXF statistics
(PID.TID 0000.0001) // =======================================================
 SEAICE_LSR: Residual Initial ipass,Uice,Vice=    1  8.20516064E-03  5.95237713E-03
 SEAICE_LSR: Residual FrDrift U_fd,V_fd=  1.27232832E+01  4.60037378E+00
 SEAICE_LSR (ipass=   1) iters,dU,Resid=     8  9.10404128E-05  2.80663880E-04
 SEAICE_LSR (ipass=   1) iters,dV,Resid=    10  4.02808709E-05  1.21805754E-05
 SEAICE_LSR: Residual Initial ipass,Uice,Vice=    2  8.05461775E-03  4.95441783E-03
 SEAICE_LSR: Residual FrDrift U_fd,V_fd=  1.30032387E+01  4.66207344E+00
 SEAICE_LSR (ipass=   2) iters,dU,Resid=    10  9.01195899E-05  1.41882120E-04
 SEAICE_LSR (ipass=   2) iters,dV,Resid=     8  4.48713334E-05  2.88933078E-05
 cg2d: Sum(rhs),rhsMax =  -7.21287501947998E-10  3.93278873896378E-01
(PID.TID 0000.0001)      cg2d_init_res =   4.42679307005253E-03
(PID.TID 0000.0001)      cg2d_iters(min,last) =      -1      38
(PID.TID 0000.0001)      cg2d_last_res =   8.36410209542333E-13
(PID.TID 0000.0001) // =======================================================
(PID.TID 0000.0001) // Begin MONITOR dynamic field statistics
(PID.TID 0000.0001) // =======================================================
(PID.TID 0000.0001) %MON time_tsnumber                =                     4
(PID.TID 0000.0001) %MON time_secondsf                =   1.4400000000000E+04
(PID.TID 0000.0001) %MON dynstat_eta_max              =   1.1990594443991E-01
(PID.TID 0000.0001) %MON dynstat_eta_min              =  -1.2314924780325E-01
(PID.TID 0000.0001) %MON dynstat_eta_mean             =   6.4118185050547E-12
(PID.TID 0000.0001) %MON dynstat_eta_sd               =   5.5131526974231E-02
(PID.TID 0000.0001) %MON dynstat_eta_del2             =   2.4404296271490E-03
(PID.TID 0000.0001) %MON dynstat_uvel_max             =   2.9721331265953E-02
(PID.TID 0000.0001) %MON dynstat_uvel_min             =  -2.8316546054600E-02
(PID.TID 0000.0001) %MON dynstat_uvel_mean            =   6.8734433873747E-05
(PID.TID 0000.0001) %MON dynstat_uvel_sd              =   2.7893782741989E-03
(PID.TID 0000.0001) %MON dynstat_uvel_del2            =   1.1918186289471E-04
(PID.TID 0000.0001) %MON dynstat_vvel_max             =   2.8444065486716E-02
(PID.TID 0000.0001) %MON dynstat_vvel_min             =  -5.9113176240222E-02
(PID.TID 0000.0001) %MON dynstat_vvel_mean            =   2.6250848254846E-05
(PID.TID 0000.0001) %MON dynstat_vvel_sd              =   4.1898954964362E-03
(PID.TID 0000.0001) %MON dynstat_vvel_del2            =   1.5505112603514E-04
(PID.TID 0000.0001) %MON dynstat_wvel_max             =   1.0360044379390E-05
(PID.TID 0000.0001) %MON dynstat_wvel_min             =  -1.3004213772891E-05
(PID.TID 0000.0001) %MON dynstat_wvel_mean            =  -6.1787515087784E-23
(PID.TID 0000.0001) %MON dynstat_wvel_sd              =   2.9860256754070E-06
(PID.TID 0000.0001) %MON dynstat_wvel_del2            =   6.1671841313126E-08
(PID.TID 0000.0001) %MON dynstat_theta_max            =   1.2478707598292E+01
(PID.TID 0000.0001) %MON dynstat_theta_min            =  -1.8575617314023E+00
(PID.TID 0000.0001) %MON dynstat_theta_mean           =   3.0789716055200E+00
(PID.TID 0000.0001) %MON dynstat_theta_sd             =   1.4436370917565E+00
(PID.TID 0000.0001) %MON dynstat_theta_del2           =   1.7432538702980E-02
(PID.TID 0000.0001) %MON dynstat_salt_max             =   3.5292823145671E+01
(PID.TID 0000.0001) %MON dynstat_salt_min             =   3.0708056023462E+01
(PID.TID 0000.0001) %MON dynstat_salt_mean            =   3.4757118128801E+01
(PID.TID 0000.0001) %MON dynstat_salt_sd              =   4.3060275213773E-01
(PID.TID 0000.0001) %MON dynstat_salt_del2            =   3.9754913627030E-03
(PID.TID 0000.0001) %MON forcing_qnet_max             =   2.7462741409527E+02
(PID.TID 0000.0001) %MON forcing_qnet_min             =  -7.0260479571376E+01
(PID.TID 0000.0001) %MON forcing_qnet_mean            =   8.9862527068808E+01
(PID.TID 0000.0001) %MON forcing_qnet_sd              =   6.8606006108836E+01
(PID.TID 0000.0001) %MON forcing_qnet_del2            =   4.7246002658000E+00
(PID.TID 0000.0001) %MON forcing_qsw_max              =   0.0000000000000E+00
(PID.TID 0000.0001) %MON forcing_qsw_min              =  -6.4029725065388E+01
(PID.TID 0000.0001) %MON forcing_qsw_mean             =  -2.4426065299746E+01
(PID.TID 0000.0001) %MON forcing_qsw_sd               =   2.1185383017839E+01
(PID.TID 0000.0001) %MON forcing_qsw_del2             =   3.6676570431256E-01
(PID.TID 0000.0001) %MON forcing_empmr_max            =   7.6325240325974E-04
(PID.TID 0000.0001) %MON forcing_empmr_min            =  -8.3156261081269E-05
(PID.TID 0000.0001) %MON forcing_empmr_mean           =   4.9095438539759E-05
(PID.TID 0000.0001) %MON forcing_empmr_sd             =   1.3023711311555E-04
(PID.TID 0000.0001) %MON forcing_empmr_del2           =   9.1714785339001E-06
(PID.TID 0000.0001) %MON forcing_fu_max               =   6.2079221364477E-02
(PID.TID 0000.0001) %MON forcing_fu_min               =  -1.8246376546336E-02
(PID.TID 0000.0001) %MON forcing_fu_mean              =   2.3460686586243E-02
(PID.TID 0000.0001) %MON forcing_fu_sd                =   2.1034787063211E-02
(PID.TID 0000.0001) %MON forcing_fu_del2              =   5.4822563185003E-04
(PID.TID 0000.0001) %MON forcing_fv_max               =   1.4713297376001E-02
(PID.TID 0000.0001) %MON forcing_fv_min               =  -4.1849424732999E-02
(PID.TID 0000.0001) %MON forcing_fv_mean              =  -4.6947351468991E-03
(PID.TID 0000.0001) %MON forcing_fv_sd                =   1.1553583730255E-02
(PID.TID 0000.0001) %MON forcing_fv_del2              =   4.5435826125269E-04
(PID.TID 0000.0001) %MON trAdv_CFL_u_max              =   1.1224070694161E-03
(PID.TID 0000.0001) %MON trAdv_CFL_v_max              =   1.0371632017004E-03
(PID.TID 0000.0001) %MON trAdv_CFL_w_max              =   1.3228425208041E-03
(PID.TID 0000.0001) %MON advcfl_uvel_max              =   1.0096737054125E-03
(PID.TID 0000.0001) %MON advcfl_vvel_max              =   9.5691161857164E-04
(PID.TID 0000.0001) %MON advcfl_wvel_max              =   1.0039181783541E-03
(PID.TID 0000.0001) %MON advcfl_W_hf_max              =   1.2548977229426E-03
(PID.TID 0000.0001) %MON pe_b_mean                    =   1.0020119108649E-05
(PID.TID 0000.0001) %MON ke_max                       =   1.5040262710399E-03
(PID.TID 0000.0001) %MON ke_mean                      =   9.9095152017011E-06
(PID.TID 0000.0001) %MON ke_vol                       =   5.3036189546438E+15
(PID.TID 0000.0001) %MON vort_r_min                   =  -5.0704268627448E-07
(PID.TID 0000.0001) %MON vort_r_max                   =   2.5731609982032E-07
(PID.TID 0000.0001) %MON vort_a_mean                  =   1.2067277899812E-04
(PID.TID 0000.0001) %MON vort_a_sd                    =   8.8116902320717E-06
(PID.TID 0000.0001) %MON vort_p_mean                  =   1.7734843606550E-04
(PID.TID 0000.0001) %MON vort_p_sd                    =   1.1688602047637E-04
(PID.TID 0000.0001) %MON surfExpan_theta_mean         =  -6.1019986492452E-08
(PID.TID 0000.0001) %MON surfExpan_salt_mean          =   3.3709536622159E-09
(PID.TID 0000.0001) // =======================================================
(PID.TID 0000.0001) // End MONITOR dynamic field statistics
(PID.TID 0000.0001) // =======================================================
(PID.TID 0000.0001) // =======================================================
(PID.TID 0000.0001) // Begin MONITOR SEAICE statistics
(PID.TID 0000.0001) // =======================================================
(PID.TID 0000.0001) %MON seaice_tsnumber              =                     4
(PID.TID 0000.0001) %MON seaice_time_sec              =   1.4400000000000E+04
(PID.TID 0000.0001) %MON seaice_uice_max              =   1.2926264587673E-01
(PID.TID 0000.0001) %MON seaice_uice_min              =  -6.6451801018532E-02
(PID.TID 0000.0001) %MON seaice_uice_mean             =   5.0197076816184E-02
(PID.TID 0000.0001) %MON seaice_uice_sd               =   4.9351179661702E-02
(PID.TID 0000.0001) %MON seaice_uice_del2             =   1.3860054112523E-03
(PID.TID 0000.0001) %MON seaice_vice_max              =   4.6394286048205E-02
(PID.TID 0000.0001) %MON seaice_vice_min              =  -1.1640439337850E-01
(PID.TID 0000.0001) %MON seaice_vice_mean             =  -2.2926609818736E-02
(PID.TID 0000.0001) %MON seaice_vice_sd               =   3.7386903387590E-02
(PID.TID 0000.0001) %MON seaice_vice_del2             =   1.5587301473571E-03
(PID.TID 0000.0001) %MON seaice_area_max              =   9.9999958823183E-01
(PID.TID 0000.0001) %MON seaice_area_min              =   0.0000000000000E+00
(PID.TID 0000.0001) %MON seaice_area_mean             =   3.2787680674762E-01
(PID.TID 0000.0001) %MON seaice_area_sd               =   4.4556553614623E-01
(PID.TID 0000.0001) %MON seaice_area_del2             =   2.1180367012288E-02
(PID.TID 0000.0001) %MON seaice_heff_max              =   1.6279316923708E+00
(PID.TID 0000.0001) %MON seaice_heff_min              =   0.0000000000000E+00
(PID.TID 0000.0001) %MON seaice_heff_mean             =   1.8717252780763E-01
(PID.TID 0000.0001) %MON seaice_heff_sd               =   3.5942314125285E-01
(PID.TID 0000.0001) %MON seaice_heff_del2             =   9.4463551382179E-03
(PID.TID 0000.0001) %MON seaice_hsnow_max             =   4.0228098497439E-01
(PID.TID 0000.0001) %MON seaice_hsnow_min             =   0.0000000000000E+00
(PID.TID 0000.0001) %MON seaice_hsnow_mean            =   3.5099219727914E-02
(PID.TID 0000.0001) %MON seaice_hsnow_sd              =   7.6578057985196E-02
(PID.TID 0000.0001) %MON seaice_hsnow_del2            =   2.5000166506830E-03
(PID.TID 0000.0001) %MON seaice_sitracer01_max        =   1.0800000000000E+04
(PID.TID 0000.0001) %MON seaice_sitracer01_min        =   0.0000000000000E+00
(PID.TID 0000.0001) %MON seaice_sitracer01_mean       =   3.9891777117091E+03
(PID.TID 0000.0001) %MON seaice_sitracer01_sd         =   5.2073887847254E+03
(PID.TID 0000.0001) %MON seaice_sitracer01_del2       =   3.6607036163920E+02
(PID.TID 0000.0001) %MON seaice_sitracer02_max        =   1.0000000000000E+00
(PID.TID 0000.0001) %MON seaice_sitracer02_min        =   0.0000000000000E+00
(PID.TID 0000.0001) %MON seaice_sitracer02_mean       =   3.9880510261478E-01
(PID.TID 0000.0001) %MON seaice_sitracer02_sd         =   4.8965252245158E-01
(PID.TID 0000.0001) %MON seaice_sitracer02_del2       =   2.7487370837451E-02
(PID.TID 0000.0001) // =======================================================
(PID.TID 0000.0001) // End MONITOR SEAICE statistics
(PID.TID 0000.0001) // =======================================================
(PID.TID 0000.0001) // =======================================================
(PID.TID 0000.0001) // Begin MONITOR EXF statistics
(PID.TID 0000.0001) // =======================================================
(PID.TID 0000.0001) %MON exf_tsnumber                 =                     4
(PID.TID 0000.0001) %MON exf_time_sec                 =   1.4400000000000E+04
(PID.TID 0000.0001) %MON exf_ustress_max              =   6.2637746731459E-02
(PID.TID 0000.0001) %MON exf_ustress_min              =  -9.3847196281198E-02
(PID.TID 0000.0001) %MON exf_ustress_mean             =   2.1963844624057E-02
(PID.TID 0000.0001) %MON exf_ustress_sd               =   2.6580475542725E-02
(PID.TID 0000.0001) %MON exf_ustress_del2             =   7.1513289783266E-04
(PID.TID 0000.0001) %MON exf_vstress_max              =   5.3862152416091E-02
(PID.TID 0000.0001) %MON exf_vstress_min              =  -5.9441679373674E-02
(PID.TID 0000.0001) %MON exf_vstress_mean             =  -5.3309338591311E-03
(PID.TID 0000.0001) %MON exf_vstress_sd               =   1.5046170412815E-02
(PID.TID 0000.0001) %MON exf_vstress_del2             =   5.0317077826309E-04
(PID.TID 0000.0001) %MON exf_hflux_max                =   6.3275386927253E+02
(PID.TID 0000.0001) %MON exf_hflux_min                =   8.9559385124215E+01
(PID.TID 0000.0001) %MON exf_hflux_mean               =   2.1911022125750E+02
(PID.TID 0000.0001) %MON exf_hflux_sd                 =   1.3414301631769E+02
(PID.TID 0000.0001) %MON exf_hflux_del2               =   1.3745441295297E+01
(PID.TID 0000.0001) %MON exf_sflux_max                =   4.0735684050923E-08
(PID.TID 0000.0001) %MON exf_sflux_min                =  -8.3178751229237E-08
(PID.TID 0000.0001) %MON exf_sflux_mean               =  -1.5729153908620E-08
(PID.TID 0000.0001) %MON exf_sflux_sd                 =   2.4402788211838E-08
(PID.TID 0000.0001) %MON exf_sflux_del2               =   1.6773123890034E-09
(PID.TID 0000.0001) %MON exf_uwind_max                =   6.4664043520318E+00
(PID.TID 0000.0001) %MON exf_uwind_min                =  -6.8373452001582E+00
(PID.TID 0000.0001) %MON exf_uwind_mean               =   2.7702029429808E+00
(PID.TID 0000.0001) %MON exf_uwind_sd                 =   2.9911443548250E+00
(PID.TID 0000.0001) %MON exf_uwind_del2               =   8.0271146151667E-02
(PID.TID 0000.0001) %MON exf_vwind_max                =   3.9241889356915E+00
(PID.TID 0000.0001) %MON exf_vwind_min                =  -6.0160797489145E+00
(PID.TID 0000.0001) %MON exf_vwind_mean               =  -7.5842758888917E-01
(PID.TID 0000.0001) %MON exf_vwind_sd                 =   1.7297766046368E+00
(PID.TID 0000.0001) %MON exf_vwind_del2               =   4.8609407634246E-02
(PID.TID 0000.0001) %MON exf_wspeed_max               =   7.8834350500991E+00
(PID.TID 0000.0001) %MON exf_wspeed_min               =   4.5938084481311E-01
(PID.TID 0000.0001) %MON exf_wspeed_mean              =   4.1985322596174E+00
(PID.TID 0000.0001) %MON exf_wspeed_sd                =   1.6001985099325E+00
(PID.TID 0000.0001) %MON exf_wspeed_del2              =   2.3645810341537E-01
(PID.TID 0000.0001) %MON exf_atemp_max                =   2.8187596388853E+02
(PID.TID 0000.0001) %MON exf_atemp_min                =   2.3644390923339E+02
(PID.TID 0000.0001) %MON exf_atemp_mean               =   2.6392748149999E+02
(PID.TID 0000.0001) %MON exf_atemp_sd                 =   1.1989262748844E+01
(PID.TID 0000.0001) %MON exf_atemp_del2               =   7.0644964328481E-01
(PID.TID 0000.0001) %MON exf_aqh_max                  =   6.3203867802223E-03
(PID.TID 0000.0001) %MON exf_aqh_min                  =   1.6331633418045E-04
(PID.TID 0000.0001) %MON exf_aqh_mean                 =   2.4781214845702E-03
(PID.TID 0000.0001) %MON exf_aqh_sd                   =   1.4260952789855E-03
(PID.TID 0000.0001) %MON exf_aqh_del2                 =   7.6423918193220E-05
(PID.TID 0000.0001) %MON exf_lwflux_max               =   1.8559325701655E+02
(PID.TID 0000.0001) %MON exf_lwflux_min               =   6.7052212228622E+01
(PID.TID 0000.0001) %MON exf_lwflux_mean              =   9.7846212924921E+01
(PID.TID 0000.0001) %MON exf_lwflux_sd                =   3.1025670630724E+01
(PID.TID 0000.0001) %MON exf_lwflux_del2              =   4.6184433969472E+00
(PID.TID 0000.0001) %MON exf_evap_max                 =   4.7057241031295E-08
(PID.TID 0000.0001) %MON exf_evap_min                 =   5.5125733383237E-09
(PID.TID 0000.0001) %MON exf_evap_mean                =   2.0660883258328E-08
(PID.TID 0000.0001) %MON exf_evap_sd                  =   6.9466346755029E-09
(PID.TID 0000.0001) %MON exf_evap_del2                =   1.0628288261988E-09
(PID.TID 0000.0001) %MON exf_precip_max               =   1.0499318877820E-07
(PID.TID 0000.0001) %MON exf_precip_min               =   2.7305928105298E-10
(PID.TID 0000.0001) %MON exf_precip_mean              =   3.6390037166947E-08
(PID.TID 0000.0001) %MON exf_precip_sd                =   2.0579953834835E-08
(PID.TID 0000.0001) %MON exf_precip_del2              =   1.6846129634290E-09
(PID.TID 0000.0001) %MON exf_swflux_max               =  -8.1206886983309E-02
(PID.TID 0000.0001) %MON exf_swflux_min               =  -6.4048595415960E+01
(PID.TID 0000.0001) %MON exf_swflux_mean              =  -2.6495351886448E+01
(PID.TID 0000.0001) %MON exf_swflux_sd                =   1.9641247100083E+01
(PID.TID 0000.0001) %MON exf_swflux_del2              =   7.7220568684593E-01
(PID.TID 0000.0001) %MON exf_swdown_max               =   7.1165106017733E+01
(PID.TID 0000.0001) %MON exf_swdown_min               =   9.0229874425898E-02
(PID.TID 0000.0001) %MON exf_swdown_mean              =   2.9439279873831E+01
(PID.TID 0000.0001) %MON exf_swdown_sd                =   2.1823607888981E+01
(PID.TID 0000.0001) %MON exf_swdown_del2              =   8.5800631871770E-01
(PID.TID 0000.0001) %MON exf_lwdown_max               =   3.0564441368228E+02
(PID.TID 0000.0001) %MON exf_lwdown_min               =   1.1593726459357E+02
(PID.TID 0000.0001) %MON exf_lwdown_mean              =   2.2588648764287E+02
(PID.TID 0000.0001) %MON exf_lwdown_sd                =   4.6293313753333E+01
(PID.TID 0000.0001) %MON exf_lwdown_del2              =   8.1703807431350E+00
(PID.TID 0000.0001) %MON exf_climsss_max              =   3.5041069874998E+01
(PID.TID 0000.0001) %MON exf_climsss_min              =   3.0669350483378E+01
(PID.TID 0000.0001) %MON exf_climsss_mean             =   3.3461404934907E+01
(PID.TID 0000.0001) %MON exf_climsss_sd               =   1.0316695849659E+00
(PID.TID 0000.0001) %MON exf_climsss_del2             =   2.6971958147510E-02
(PID.TID 0000.0001) // =======================================================
(PID.TID 0000.0001) // End MONITOR EXF statistics
(PID.TID 0000.0001) // =======================================================
 SEAICE_LSR: Residual Initial ipass,Uice,Vice=    1  7.97245095E-03  3.89517603E-03
 SEAICE_LSR: Residual FrDrift U_fd,V_fd=  1.36792019E+01  4.81463322E+00
 SEAICE_LSR (ipass=   1) iters,dU,Resid=    14  7.66364965E-05  6.48186747E-05
 SEAICE_LSR (ipass=   1) iters,dV,Resid=     8  5.49251220E-05  3.09208839E-05
 SEAICE_LSR: Residual Initial ipass,Uice,Vice=    2  7.58688007E-03  3.59006359E-03
 SEAICE_LSR: Residual FrDrift U_fd,V_fd=  1.40100502E+01  4.89574951E+00
 SEAICE_LSR (ipass=   2) iters,dU,Resid=    12  7.52378709E-05  6.41457034E-05
 SEAICE_LSR (ipass=   2) iters,dV,Resid=     6  6.79303706E-05  5.72462233E-05
 cg2d: Sum(rhs),rhsMax =  -7.21401979819625E-10  3.93230284932117E-01
(PID.TID 0000.0001)      cg2d_init_res =   5.05936638371779E-03
(PID.TID 0000.0001)      cg2d_iters(min,last) =      -1      37
(PID.TID 0000.0001)      cg2d_last_res =   8.51590939429517E-13
(PID.TID 0000.0001) // =======================================================
(PID.TID 0000.0001) // Begin MONITOR dynamic field statistics
(PID.TID 0000.0001) // =======================================================
(PID.TID 0000.0001) %MON time_tsnumber                =                     5
(PID.TID 0000.0001) %MON time_secondsf                =   1.8000000000000E+04
(PID.TID 0000.0001) %MON dynstat_eta_max              =   1.1796388715766E-01
(PID.TID 0000.0001) %MON dynstat_eta_min              =  -1.2315637278114E-01
(PID.TID 0000.0001) %MON dynstat_eta_mean             =   6.4117983743198E-12
(PID.TID 0000.0001) %MON dynstat_eta_sd               =   5.5035470286268E-02
(PID.TID 0000.0001) %MON dynstat_eta_del2             =   2.4319600030116E-03
(PID.TID 0000.0001) %MON dynstat_uvel_max             =   2.9775079612731E-02
(PID.TID 0000.0001) %MON dynstat_uvel_min             =  -2.4588601294703E-02
(PID.TID 0000.0001) %MON dynstat_uvel_mean            =   6.9409400070867E-05
(PID.TID 0000.0001) %MON dynstat_uvel_sd              =   2.7727800478398E-03
(PID.TID 0000.0001) %MON dynstat_uvel_del2            =   1.1837851800668E-04
(PID.TID 0000.0001) %MON dynstat_vvel_max             =   2.7846594684478E-02
(PID.TID 0000.0001) %MON dynstat_vvel_min             =  -5.7132307036687E-02
(PID.TID 0000.0001) %MON dynstat_vvel_mean            =   2.7559051473932E-05
(PID.TID 0000.0001) %MON dynstat_vvel_sd              =   4.1746113437516E-03
(PID.TID 0000.0001) %MON dynstat_vvel_del2            =   1.5440106159855E-04
(PID.TID 0000.0001) %MON dynstat_wvel_max             =   1.0357014612549E-05
(PID.TID 0000.0001) %MON dynstat_wvel_min             =  -1.2984414078358E-05
(PID.TID 0000.0001) %MON dynstat_wvel_mean            =  -1.2357503017557E-23
(PID.TID 0000.0001) %MON dynstat_wvel_sd              =   2.9837169123209E-06
(PID.TID 0000.0001) %MON dynstat_wvel_del2            =   6.1254573288204E-08
(PID.TID 0000.0001) %MON dynstat_theta_max            =   1.2478623466746E+01
(PID.TID 0000.0001) %MON dynstat_theta_min            =  -1.8571921095812E+00
(PID.TID 0000.0001) %MON dynstat_theta_mean           =   3.0789176148390E+00
(PID.TID 0000.0001) %MON dynstat_theta_sd             =   1.4435660917631E+00
(PID.TID 0000.0001) %MON dynstat_theta_del2           =   1.7435692057869E-02
(PID.TID 0000.0001) %MON dynstat_salt_max             =   3.5292797685986E+01
(PID.TID 0000.0001) %MON dynstat_salt_min             =   3.0708069311789E+01
(PID.TID 0000.0001) %MON dynstat_salt_mean            =   3.4757122284939E+01
(PID.TID 0000.0001) %MON dynstat_salt_sd              =   4.3058287274625E-01
(PID.TID 0000.0001) %MON dynstat_salt_del2            =   3.9754173862322E-03
(PID.TID 0000.0001) %MON forcing_qnet_max             =   2.7459117615327E+02
(PID.TID 0000.0001) %MON forcing_qnet_min             =  -2.2915087240814E+01
(PID.TID 0000.0001) %MON forcing_qnet_mean            =   9.1659851927899E+01
(PID.TID 0000.0001) %MON forcing_qnet_sd              =   6.7021971927739E+01
(PID.TID 0000.0001) %MON forcing_qnet_del2            =   4.8417264779573E+00
(PID.TID 0000.0001) %MON forcing_qsw_max              =   0.0000000000000E+00
(PID.TID 0000.0001) %MON forcing_qsw_min              =  -6.4048595415960E+01
(PID.TID 0000.0001) %MON forcing_qsw_mean             =  -2.4432324487996E+01
(PID.TID 0000.0001) %MON forcing_qsw_sd               =   2.1190730444670E+01
(PID.TID 0000.0001) %MON forcing_qsw_del2             =   3.6693445705907E-01
(PID.TID 0000.0001) %MON forcing_empmr_max            =   6.1957634502994E-04
(PID.TID 0000.0001) %MON forcing_empmr_min            =  -8.3162115478991E-05
(PID.TID 0000.0001) %MON forcing_empmr_mean           =   4.3578949205349E-05
(PID.TID 0000.0001) %MON forcing_empmr_sd             =   1.1982810235162E-04
(PID.TID 0000.0001) %MON forcing_empmr_del2           =   8.2056723236017E-06
(PID.TID 0000.0001) %MON forcing_fu_max               =   6.2089260010389E-02
(PID.TID 0000.0001) %MON forcing_fu_min               =  -1.8242961687399E-02
(PID.TID 0000.0001) %MON forcing_fu_mean              =   2.3420017870754E-02
(PID.TID 0000.0001) %MON forcing_fu_sd                =   2.1065156501529E-02
(PID.TID 0000.0001) %MON forcing_fu_del2              =   5.4851083468643E-04
(PID.TID 0000.0001) %MON forcing_fv_max               =   1.4716993722757E-02
(PID.TID 0000.0001) %MON forcing_fv_min               =  -4.1835328039575E-02
(PID.TID 0000.0001) %MON forcing_fv_mean              =  -4.6683611164927E-03
(PID.TID 0000.0001) %MON forcing_fv_sd                =   1.1545208945820E-02
(PID.TID 0000.0001) %MON forcing_fv_del2              =   4.4807239006900E-04
(PID.TID 0000.0001) %MON trAdv_CFL_u_max              =   1.0097249679341E-03
(PID.TID 0000.0001) %MON trAdv_CFL_v_max              =   9.8461001429133E-04
(PID.TID 0000.0001) %MON trAdv_CFL_w_max              =   1.2548977229426E-03
(PID.TID 0000.0001) %MON advcfl_uvel_max              =   8.7674761364834E-04
(PID.TID 0000.0001) %MON advcfl_vvel_max              =   9.2484572605336E-04
(PID.TID 0000.0001) %MON advcfl_wvel_max              =   9.1298484556360E-04
(PID.TID 0000.0001) %MON advcfl_W_hf_max              =   1.1412310569545E-03
(PID.TID 0000.0001) %MON pe_b_mean                    =   9.9852330455570E-06
(PID.TID 0000.0001) %MON ke_max                       =   1.4492439697566E-03
(PID.TID 0000.0001) %MON ke_mean                      =   9.8233501277244E-06
(PID.TID 0000.0001) %MON ke_vol                       =   5.3036189546438E+15
(PID.TID 0000.0001) %MON vort_r_min                   =  -5.0543161693445E-07
(PID.TID 0000.0001) %MON vort_r_max                   =   2.5740779415523E-07
(PID.TID 0000.0001) %MON vort_a_mean                  =   1.2067277898573E-04
(PID.TID 0000.0001) %MON vort_a_sd                    =   8.8116906396154E-06
(PID.TID 0000.0001) %MON vort_p_mean                  =   1.7734843604730E-04
(PID.TID 0000.0001) %MON vort_p_sd                    =   1.1688603944853E-04
(PID.TID 0000.0001) %MON surfExpan_theta_mean         =  -5.4170193249742E-08
(PID.TID 0000.0001) %MON surfExpan_salt_mean          =   6.6921821346910E-09
(PID.TID 0000.0001) // =======================================================
(PID.TID 0000.0001) // End MONITOR dynamic field statistics
(PID.TID 0000.0001) // =======================================================
(PID.TID 0000.0001) // =======================================================
(PID.TID 0000.0001) // Begin MONITOR SEAICE statistics
(PID.TID 0000.0001) // =======================================================
(PID.TID 0000.0001) %MON seaice_tsnumber              =                     5
(PID.TID 0000.0001) %MON seaice_time_sec              =   1.8000000000000E+04
(PID.TID 0000.0001) %MON seaice_uice_max              =   1.2926771679292E-01
(PID.TID 0000.0001) %MON seaice_uice_min              =  -6.6416044110779E-02
(PID.TID 0000.0001) %MON seaice_uice_mean             =   5.0515919669553E-02
(PID.TID 0000.0001) %MON seaice_uice_sd               =   4.9243086318718E-02
(PID.TID 0000.0001) %MON seaice_uice_del2             =   1.3877881590748E-03
(PID.TID 0000.0001) %MON seaice_vice_max              =   4.5063553711753E-02
(PID.TID 0000.0001) %MON seaice_vice_min              =  -1.1325542602040E-01
(PID.TID 0000.0001) %MON seaice_vice_mean             =  -2.2410768281002E-02
(PID.TID 0000.0001) %MON seaice_vice_sd               =   3.6684003205197E-02
(PID.TID 0000.0001) %MON seaice_vice_del2             =   1.5127936401282E-03
(PID.TID 0000.0001) %MON seaice_area_max              =   9.9999946637000E-01
(PID.TID 0000.0001) %MON seaice_area_min              =   0.0000000000000E+00
(PID.TID 0000.0001) %MON seaice_area_mean             =   3.2793608990378E-01
(PID.TID 0000.0001) %MON seaice_area_sd               =   4.4552192997431E-01
(PID.TID 0000.0001) %MON seaice_area_del2             =   2.1168046150948E-02
(PID.TID 0000.0001) %MON seaice_heff_max              =   1.6283325420216E+00
(PID.TID 0000.0001) %MON seaice_heff_min              =   0.0000000000000E+00
(PID.TID 0000.0001) %MON seaice_heff_mean             =   1.8742270112409E-01
(PID.TID 0000.0001) %MON seaice_heff_sd               =   3.5956210338567E-01
(PID.TID 0000.0001) %MON seaice_heff_del2             =   9.4492110858665E-03
(PID.TID 0000.0001) %MON seaice_hsnow_max             =   4.0237654109963E-01
(PID.TID 0000.0001) %MON seaice_hsnow_min             =   0.0000000000000E+00
(PID.TID 0000.0001) %MON seaice_hsnow_mean            =   3.5150052193289E-02
(PID.TID 0000.0001) %MON seaice_hsnow_sd              =   7.6618360529382E-02
(PID.TID 0000.0001) %MON seaice_hsnow_del2            =   2.5029359410178E-03
(PID.TID 0000.0001) %MON seaice_sitracer01_max        =   1.4400000000000E+04
(PID.TID 0000.0001) %MON seaice_sitracer01_min        =   0.0000000000000E+00
(PID.TID 0000.0001) %MON seaice_sitracer01_mean       =   5.3163417038487E+03
(PID.TID 0000.0001) %MON seaice_sitracer01_sd         =   6.9399916714139E+03
(PID.TID 0000.0001) %MON seaice_sitracer01_del2       =   4.8786848255381E+02
(PID.TID 0000.0001) %MON seaice_sitracer02_max        =   1.0000000000000E+00
(PID.TID 0000.0001) %MON seaice_sitracer02_min        =   0.0000000000000E+00
(PID.TID 0000.0001) %MON seaice_sitracer02_mean       =   3.9880510261478E-01
(PID.TID 0000.0001) %MON seaice_sitracer02_sd         =   4.8965252245158E-01
(PID.TID 0000.0001) %MON seaice_sitracer02_del2       =   2.7487370837451E-02
(PID.TID 0000.0001) // =======================================================
(PID.TID 0000.0001) // End MONITOR SEAICE statistics
(PID.TID 0000.0001) // =======================================================
(PID.TID 0000.0001) // =======================================================
(PID.TID 0000.0001) // Begin MONITOR EXF statistics
(PID.TID 0000.0001) // =======================================================
(PID.TID 0000.0001) %MON exf_tsnumber                 =                     5
(PID.TID 0000.0001) %MON exf_time_sec                 =   1.8000000000000E+04
(PID.TID 0000.0001) %MON exf_ustress_max              =   6.2648729145962E-02
(PID.TID 0000.0001) %MON exf_ustress_min              =  -9.3850111730344E-02
(PID.TID 0000.0001) %MON exf_ustress_mean             =   2.1966304996011E-02
(PID.TID 0000.0001) %MON exf_ustress_sd               =   2.6584667724258E-02
(PID.TID 0000.0001) %MON exf_ustress_del2             =   7.1518145849840E-04
(PID.TID 0000.0001) %MON exf_vstress_max              =   5.3864028973959E-02
(PID.TID 0000.0001) %MON exf_vstress_min              =  -5.9425035576916E-02
(PID.TID 0000.0001) %MON exf_vstress_mean             =  -5.3264023965366E-03
(PID.TID 0000.0001) %MON exf_vstress_sd               =   1.5047619753321E-02
(PID.TID 0000.0001) %MON exf_vstress_del2             =   5.0318959728821E-04
(PID.TID 0000.0001) %MON exf_hflux_max                =   6.3285132329341E+02
(PID.TID 0000.0001) %MON exf_hflux_min                =   8.9553743315857E+01
(PID.TID 0000.0001) %MON exf_hflux_mean               =   2.1915013367001E+02
(PID.TID 0000.0001) %MON exf_hflux_sd                 =   1.3419992615898E+02
(PID.TID 0000.0001) %MON exf_hflux_del2               =   1.3752328858450E+01
(PID.TID 0000.0001) %MON exf_sflux_max                =   4.0741644750195E-08
(PID.TID 0000.0001) %MON exf_sflux_min                =  -8.3184509911269E-08
(PID.TID 0000.0001) %MON exf_sflux_mean               =  -1.5727238574272E-08
(PID.TID 0000.0001) %MON exf_sflux_sd                 =   2.4407761785246E-08
(PID.TID 0000.0001) %MON exf_sflux_del2               =   1.6776908238437E-09
(PID.TID 0000.0001) %MON exf_uwind_max                =   6.4669118044806E+00
(PID.TID 0000.0001) %MON exf_uwind_min                =  -6.8373719818605E+00
(PID.TID 0000.0001) %MON exf_uwind_mean               =   2.7703104953252E+00
(PID.TID 0000.0001) %MON exf_uwind_sd                 =   2.9914204817202E+00
(PID.TID 0000.0001) %MON exf_uwind_del2               =   8.0270959439526E-02
(PID.TID 0000.0001) %MON exf_vwind_max                =   3.9242191164871E+00
(PID.TID 0000.0001) %MON exf_vwind_min                =  -6.0151738390896E+00
(PID.TID 0000.0001) %MON exf_vwind_mean               =  -7.5780981579906E-01
(PID.TID 0000.0001) %MON exf_vwind_sd                 =   1.7298850990135E+00
(PID.TID 0000.0001) %MON exf_vwind_del2               =   4.8609272056854E-02
(PID.TID 0000.0001) %MON exf_wspeed_max               =   7.8834733013142E+00
(PID.TID 0000.0001) %MON exf_wspeed_min               =   4.5913801314248E-01
(PID.TID 0000.0001) %MON exf_wspeed_mean              =   4.1986352194932E+00
(PID.TID 0000.0001) %MON exf_wspeed_sd                =   1.6004553118739E+00
(PID.TID 0000.0001) %MON exf_wspeed_del2              =   2.3645566579393E-01
(PID.TID 0000.0001) %MON exf_atemp_max                =   2.8187425173567E+02
(PID.TID 0000.0001) %MON exf_atemp_min                =   2.3643944426573E+02
(PID.TID 0000.0001) %MON exf_atemp_mean               =   2.6392283741463E+02
(PID.TID 0000.0001) %MON exf_atemp_sd                 =   1.1990725231039E+01
(PID.TID 0000.0001) %MON exf_atemp_del2               =   7.0674746671411E-01
(PID.TID 0000.0001) %MON exf_aqh_max                  =   6.3196902393613E-03
(PID.TID 0000.0001) %MON exf_aqh_min                  =   1.6322223068205E-04
(PID.TID 0000.0001) %MON exf_aqh_mean                 =   2.4775611281656E-03
(PID.TID 0000.0001) %MON exf_aqh_sd                   =   1.4259923191659E-03
(PID.TID 0000.0001) %MON exf_aqh_del2                 =   7.6400067235870E-05
(PID.TID 0000.0001) %MON exf_lwflux_max               =   1.8562620243114E+02
(PID.TID 0000.0001) %MON exf_lwflux_min               =   6.7052707241272E+01
(PID.TID 0000.0001) %MON exf_lwflux_mean              =   9.7856571813720E+01
(PID.TID 0000.0001) %MON exf_lwflux_sd                =   3.1036679211239E+01
(PID.TID 0000.0001) %MON exf_lwflux_del2              =   4.6197320552543E+00
(PID.TID 0000.0001) %MON exf_evap_max                 =   4.7062539019636E-08
(PID.TID 0000.0001) %MON exf_evap_min                 =   5.5071161176088E-09
(PID.TID 0000.0001) %MON exf_evap_mean                =   2.0662787748641E-08
(PID.TID 0000.0001) %MON exf_evap_sd                  =   6.9477833930713E-09
(PID.TID 0000.0001) %MON exf_evap_del2                =   1.0633325033583E-09
(PID.TID 0000.0001) %MON exf_precip_max               =   1.0499457022082E-07
(PID.TID 0000.0001) %MON exf_precip_min               =   2.7292535458031E-10
(PID.TID 0000.0001) %MON exf_precip_mean              =   3.6390026322913E-08
(PID.TID 0000.0001) %MON exf_precip_sd                =   2.0580406889746E-08
(PID.TID 0000.0001) %MON exf_precip_del2              =   1.6848902805558E-09
(PID.TID 0000.0001) %MON exf_swflux_max               =  -8.1207169861090E-02
(PID.TID 0000.0001) %MON exf_swflux_min               =  -6.4067465766532E+01
(PID.TID 0000.0001) %MON exf_swflux_mean              =  -2.6505884102323E+01
(PID.TID 0000.0001) %MON exf_swflux_sd                =   1.9645085084315E+01
(PID.TID 0000.0001) %MON exf_swflux_del2              =   7.7260776134360E-01
(PID.TID 0000.0001) %MON exf_swdown_max               =   7.1186073073924E+01
(PID.TID 0000.0001) %MON exf_swdown_min               =   9.0230188734544E-02
(PID.TID 0000.0001) %MON exf_swdown_mean              =   2.9450982335914E+01
(PID.TID 0000.0001) %MON exf_swdown_sd                =   2.1827872315905E+01
(PID.TID 0000.0001) %MON exf_swdown_del2              =   8.5845306815956E-01
(PID.TID 0000.0001) %MON exf_lwdown_max               =   3.0563558759846E+02
(PID.TID 0000.0001) %MON exf_lwdown_min               =   1.1592215771493E+02
(PID.TID 0000.0001) %MON exf_lwdown_mean              =   2.2587078031381E+02
(PID.TID 0000.0001) %MON exf_lwdown_sd                =   4.6297287802066E+01
(PID.TID 0000.0001) %MON exf_lwdown_del2              =   8.1694265413502E+00
(PID.TID 0000.0001) %MON exf_climsss_max              =   3.5041254622037E+01
(PID.TID 0000.0001) %MON exf_climsss_min              =   3.0670109811376E+01
(PID.TID 0000.0001) %MON exf_climsss_mean             =   3.3461926268386E+01
(PID.TID 0000.0001) %MON exf_climsss_sd               =   1.0315988331065E+00
(PID.TID 0000.0001) %MON exf_climsss_del2             =   2.6971039929381E-02
(PID.TID 0000.0001) // =======================================================
(PID.TID 0000.0001) // End MONITOR EXF statistics
(PID.TID 0000.0001) // =======================================================
 SEAICE_LSR: Residual Initial ipass,Uice,Vice=    1  6.61931768E-03  2.96567164E-03
 SEAICE_LSR: Residual FrDrift U_fd,V_fd=  1.44876636E+01  5.00372750E+00
 SEAICE_LSR (ipass=   1) iters,dU,Resid=    14  9.61170070E-05  7.76233851E-05
 SEAICE_LSR (ipass=   1) iters,dV,Resid=     6  3.74789259E-05  2.10314748E-05
 SEAICE_LSR: Residual Initial ipass,Uice,Vice=    2  5.99596797E-03  2.77976743E-03
 SEAICE_LSR: Residual FrDrift U_fd,V_fd=  1.45599209E+01  5.02781159E+00
 SEAICE_LSR (ipass=   2) iters,dU,Resid=    12  7.35330119E-05  5.68376057E-05
 SEAICE_LSR (ipass=   2) iters,dV,Resid=     4  8.24066502E-05  5.45021062E-05
 cg2d: Sum(rhs),rhsMax =  -7.21536247416665E-10  3.93155385219161E-01
(PID.TID 0000.0001)      cg2d_init_res =   4.86466765163118E-03
(PID.TID 0000.0001)      cg2d_iters(min,last) =      -1      39
(PID.TID 0000.0001)      cg2d_last_res =   5.44921068048474E-13
(PID.TID 0000.0001) // =======================================================
(PID.TID 0000.0001) // Begin MONITOR dynamic field statistics
(PID.TID 0000.0001) // =======================================================
(PID.TID 0000.0001) %MON time_tsnumber                =                     6
(PID.TID 0000.0001) %MON time_secondsf                =   2.1600000000000E+04
(PID.TID 0000.0001) %MON dynstat_eta_max              =   1.1601607258621E-01
(PID.TID 0000.0001) %MON dynstat_eta_min              =  -1.2314185805809E-01
(PID.TID 0000.0001) %MON dynstat_eta_mean             =   6.4116870128080E-12
(PID.TID 0000.0001) %MON dynstat_eta_sd               =   5.4941032418083E-02
(PID.TID 0000.0001) %MON dynstat_eta_del2             =   2.4240249833149E-03
(PID.TID 0000.0001) %MON dynstat_uvel_max             =   2.9807482696941E-02
(PID.TID 0000.0001) %MON dynstat_uvel_min             =  -2.1202104803186E-02
(PID.TID 0000.0001) %MON dynstat_uvel_mean            =   6.9791231832171E-05
(PID.TID 0000.0001) %MON dynstat_uvel_sd              =   2.7599583211142E-03
(PID.TID 0000.0001) %MON dynstat_uvel_del2            =   1.1776095038242E-04
(PID.TID 0000.0001) %MON dynstat_vvel_max             =   2.7437397754505E-02
(PID.TID 0000.0001) %MON dynstat_vvel_min             =  -5.6252817345498E-02
(PID.TID 0000.0001) %MON dynstat_vvel_mean            =   2.6091224534909E-05
(PID.TID 0000.0001) %MON dynstat_vvel_sd              =   4.1705326114185E-03
(PID.TID 0000.0001) %MON dynstat_vvel_del2            =   1.5368895896699E-04
(PID.TID 0000.0001) %MON dynstat_wvel_max             =   1.0357324435273E-05
(PID.TID 0000.0001) %MON dynstat_wvel_min             =  -1.2951147225295E-05
(PID.TID 0000.0001) %MON dynstat_wvel_mean            =   1.2357503017557E-23
(PID.TID 0000.0001) %MON dynstat_wvel_sd              =   2.9817201028573E-06
(PID.TID 0000.0001) %MON dynstat_wvel_del2            =   6.0899885138551E-08
(PID.TID 0000.0001) %MON dynstat_theta_max            =   1.2478520335854E+01
(PID.TID 0000.0001) %MON dynstat_theta_min            =  -1.8569826041931E+00
(PID.TID 0000.0001) %MON dynstat_theta_mean           =   3.0788631806299E+00
(PID.TID 0000.0001) %MON dynstat_theta_sd             =   1.4434968347597E+00
(PID.TID 0000.0001) %MON dynstat_theta_del2           =   1.7440115377332E-02
(PID.TID 0000.0001) %MON dynstat_salt_max             =   3.5292772210915E+01
(PID.TID 0000.0001) %MON dynstat_salt_min             =   3.0708082809379E+01
(PID.TID 0000.0001) %MON dynstat_salt_mean            =   3.4757126272631E+01
(PID.TID 0000.0001) %MON dynstat_salt_sd              =   4.3056374114055E-01
(PID.TID 0000.0001) %MON dynstat_salt_del2            =   3.9754919981631E-03
(PID.TID 0000.0001) %MON forcing_qnet_max             =   2.7455565340814E+02
(PID.TID 0000.0001) %MON forcing_qnet_min             =  -4.7335391707558E+00
(PID.TID 0000.0001) %MON forcing_qnet_mean            =   9.2354043151304E+01
(PID.TID 0000.0001) %MON forcing_qnet_sd              =   6.6328050589578E+01
(PID.TID 0000.0001) %MON forcing_qnet_del2            =   4.7948688381208E+00
(PID.TID 0000.0001) %MON forcing_qsw_max              =   0.0000000000000E+00
(PID.TID 0000.0001) %MON forcing_qsw_min              =  -6.4067465766532E+01
(PID.TID 0000.0001) %MON forcing_qsw_mean             =  -2.4439474877617E+01
(PID.TID 0000.0001) %MON forcing_qsw_sd               =   2.1195301376026E+01
(PID.TID 0000.0001) %MON forcing_qsw_del2             =   3.6729742729325E-01
(PID.TID 0000.0001) %MON forcing_empmr_max            =   5.6320366711699E-04
(PID.TID 0000.0001) %MON forcing_empmr_min            =  -8.3167873009287E-05
(PID.TID 0000.0001) %MON forcing_empmr_mean           =   4.1369167202088E-05
(PID.TID 0000.0001) %MON forcing_empmr_sd             =   1.1595057805934E-04
(PID.TID 0000.0001) %MON forcing_empmr_del2           =   7.8612479124406E-06
(PID.TID 0000.0001) %MON forcing_fu_max               =   6.2099302456527E-02
(PID.TID 0000.0001) %MON forcing_fu_min               =  -1.8244285451836E-02
(PID.TID 0000.0001) %MON forcing_fu_mean              =   2.3388022294197E-02
(PID.TID 0000.0001) %MON forcing_fu_sd                =   2.1090594960611E-02
(PID.TID 0000.0001) %MON forcing_fu_del2              =   5.4980997825276E-04
(PID.TID 0000.0001) %MON forcing_fv_max               =   1.4720666767676E-02
(PID.TID 0000.0001) %MON forcing_fv_min               =  -4.1821244704496E-02
(PID.TID 0000.0001) %MON forcing_fv_mean              =  -4.6459614267382E-03
(PID.TID 0000.0001) %MON forcing_fv_sd                =   1.1537500339469E-02
(PID.TID 0000.0001) %MON forcing_fv_del2              =   4.4414659531911E-04
(PID.TID 0000.0001) %MON trAdv_CFL_u_max              =   8.7679212732959E-04
(PID.TID 0000.0001) %MON trAdv_CFL_v_max              =   9.5161595477953E-04
(PID.TID 0000.0001) %MON trAdv_CFL_w_max              =   1.1412310569545E-03
(PID.TID 0000.0001) %MON advcfl_uvel_max              =   7.5599642971637E-04
(PID.TID 0000.0001) %MON advcfl_vvel_max              =   9.1060873258691E-04
(PID.TID 0000.0001) %MON advcfl_wvel_max              =   8.2132350669625E-04
(PID.TID 0000.0001) %MON advcfl_W_hf_max              =   1.0205390449486E-03
(PID.TID 0000.0001) %MON pe_b_mean                    =   9.9509942151240E-06
(PID.TID 0000.0001) %MON ke_max                       =   1.4502250762269E-03
(PID.TID 0000.0001) %MON ke_mean                      =   9.7820786165591E-06
(PID.TID 0000.0001) %MON ke_vol                       =   5.3036189546438E+15
(PID.TID 0000.0001) %MON vort_r_min                   =  -5.1234390808659E-07
(PID.TID 0000.0001) %MON vort_r_max                   =   2.5746025367483E-07
(PID.TID 0000.0001) %MON vort_a_mean                  =   1.2067277897541E-04
(PID.TID 0000.0001) %MON vort_a_sd                    =   8.8116910381788E-06
(PID.TID 0000.0001) %MON vort_p_mean                  =   1.7734843603213E-04
(PID.TID 0000.0001) %MON vort_p_sd                    =   1.1688605954442E-04
(PID.TID 0000.0001) %MON surfExpan_theta_mean         =  -4.3392628746662E-08
(PID.TID 0000.0001) %MON surfExpan_salt_mean          =   8.4005786495131E-09
(PID.TID 0000.0001) // =======================================================
(PID.TID 0000.0001) // End MONITOR dynamic field statistics
(PID.TID 0000.0001) // =======================================================
(PID.TID 0000.0001) // =======================================================
(PID.TID 0000.0001) // Begin MONITOR SEAICE statistics
(PID.TID 0000.0001) // =======================================================
(PID.TID 0000.0001) %MON seaice_tsnumber              =                     6
(PID.TID 0000.0001) %MON seaice_time_sec              =   2.1600000000000E+04
(PID.TID 0000.0001) %MON seaice_uice_max              =   1.2933586577687E-01
(PID.TID 0000.0001) %MON seaice_uice_min              =  -6.7384074366741E-02
(PID.TID 0000.0001) %MON seaice_uice_mean             =   5.0893131994360E-02
(PID.TID 0000.0001) %MON seaice_uice_sd               =   4.9174534387824E-02
(PID.TID 0000.0001) %MON seaice_uice_del2             =   1.4038206145139E-03
(PID.TID 0000.0001) %MON seaice_vice_max              =   4.4412558983813E-02
(PID.TID 0000.0001) %MON seaice_vice_min              =  -1.1130837869879E-01
(PID.TID 0000.0001) %MON seaice_vice_mean             =  -2.2234363971343E-02
(PID.TID 0000.0001) %MON seaice_vice_sd               =   3.6405409165321E-02
(PID.TID 0000.0001) %MON seaice_vice_del2             =   1.4903695804767E-03
(PID.TID 0000.0001) %MON seaice_area_max              =   9.9999934721512E-01
(PID.TID 0000.0001) %MON seaice_area_min              =   0.0000000000000E+00
(PID.TID 0000.0001) %MON seaice_area_mean             =   3.2798095465717E-01
(PID.TID 0000.0001) %MON seaice_area_sd               =   4.4546607644888E-01
(PID.TID 0000.0001) %MON seaice_area_del2             =   2.1153564330134E-02
(PID.TID 0000.0001) %MON seaice_heff_max              =   1.6287189949114E+00
(PID.TID 0000.0001) %MON seaice_heff_min              =   0.0000000000000E+00
(PID.TID 0000.0001) %MON seaice_heff_mean             =   1.8766415183255E-01
(PID.TID 0000.0001) %MON seaice_heff_sd               =   3.5970072534584E-01
(PID.TID 0000.0001) %MON seaice_heff_del2             =   9.4526413224684E-03
(PID.TID 0000.0001) %MON seaice_hsnow_max             =   4.0247208190584E-01
(PID.TID 0000.0001) %MON seaice_hsnow_min             =   0.0000000000000E+00
(PID.TID 0000.0001) %MON seaice_hsnow_mean            =   3.5200876272222E-02
(PID.TID 0000.0001) %MON seaice_hsnow_sd              =   7.6658716439023E-02
(PID.TID 0000.0001) %MON seaice_hsnow_del2            =   2.5058956145414E-03
(PID.TID 0000.0001) %MON seaice_sitracer01_max        =   1.8000000000000E+04
(PID.TID 0000.0001) %MON seaice_sitracer01_min        =   0.0000000000000E+00
(PID.TID 0000.0001) %MON seaice_sitracer01_mean       =   6.6425662646877E+03
(PID.TID 0000.0001) %MON seaice_sitracer01_sd         =   8.6714867144380E+03
(PID.TID 0000.0001) %MON seaice_sitracer01_del2       =   6.0967712053073E+02
(PID.TID 0000.0001) %MON seaice_sitracer02_max        =   1.0000000000000E+00
(PID.TID 0000.0001) %MON seaice_sitracer02_min        =   0.0000000000000E+00
(PID.TID 0000.0001) %MON seaice_sitracer02_mean       =   3.9880510261478E-01
(PID.TID 0000.0001) %MON seaice_sitracer02_sd         =   4.8965252245158E-01
(PID.TID 0000.0001) %MON seaice_sitracer02_del2       =   2.7487370837451E-02
(PID.TID 0000.0001) // =======================================================
(PID.TID 0000.0001) // End MONITOR SEAICE statistics
(PID.TID 0000.0001) // =======================================================
 Computing Diagnostic #    197  EXFtaux      Counter:       1   Parms: UM      U1      
 Computing Diagnostic #    198  EXFtauy      Counter:       1   Parms: VM      U1      
 Computing Diagnostic #    196  EXFqnet      Counter:       1   Parms: SM      U1      
 Computing Diagnostic #    207  EXFempmr     Counter:       1   Parms: SM      U1      
 Computing Diagnostic #    191  EXFhl        Counter:       1   Parms: SM      U1      
 Computing Diagnostic #    190  EXFhs        Counter:       1   Parms: SM      U1      
 Computing Diagnostic #    193  EXFswnet     Counter:       1   Parms: SM      U1      
 Computing Diagnostic #    192  EXFlwnet     Counter:       1   Parms: SM      U1      
 Computing Diagnostic #    199  EXFuwind     Counter:       1   Parms: UM      U1      
 Computing Diagnostic #    200  EXFvwind     Counter:       1   Parms: VM      U1      
 Computing Diagnostic #    202  EXFatemp     Counter:       1   Parms: SM      U1      
(PID.TID 0000.0001) // =======================================================
(PID.TID 0000.0001) // Begin MONITOR EXF statistics
(PID.TID 0000.0001) // =======================================================
(PID.TID 0000.0001) %MON exf_tsnumber                 =                     6
(PID.TID 0000.0001) %MON exf_time_sec                 =   2.1600000000000E+04
(PID.TID 0000.0001) %MON exf_ustress_max              =   6.2659721087226E-02
(PID.TID 0000.0001) %MON exf_ustress_min              =  -9.3853002106400E-02
(PID.TID 0000.0001) %MON exf_ustress_mean             =   2.1968947321805E-02
(PID.TID 0000.0001) %MON exf_ustress_sd               =   2.6588946187720E-02
(PID.TID 0000.0001) %MON exf_ustress_del2             =   7.1525715748969E-04
(PID.TID 0000.0001) %MON exf_vstress_max              =   5.3865891152442E-02
(PID.TID 0000.0001) %MON exf_vstress_min              =  -5.9408404659999E-02
(PID.TID 0000.0001) %MON exf_vstress_mean             =  -5.3218148858234E-03
(PID.TID 0000.0001) %MON exf_vstress_sd               =   1.5049074464873E-02
(PID.TID 0000.0001) %MON exf_vstress_del2             =   5.0320722872549E-04
(PID.TID 0000.0001) %MON exf_hflux_max                =   6.3294718742289E+02
(PID.TID 0000.0001) %MON exf_hflux_min                =   8.9549117850183E+01
(PID.TID 0000.0001) %MON exf_hflux_mean               =   2.1919825158735E+02
(PID.TID 0000.0001) %MON exf_hflux_sd                 =   1.3424991491432E+02
(PID.TID 0000.0001) %MON exf_hflux_del2               =   1.3759022604216E+01
(PID.TID 0000.0001) %MON exf_sflux_max                =   4.0747396054188E-08
(PID.TID 0000.0001) %MON exf_sflux_min                =  -8.3190208602403E-08
(PID.TID 0000.0001) %MON exf_sflux_mean               =  -1.5723892212713E-08
(PID.TID 0000.0001) %MON exf_sflux_sd                 =   2.4411604924876E-08
(PID.TID 0000.0001) %MON exf_sflux_del2               =   1.6781791499152E-09
(PID.TID 0000.0001) %MON exf_uwind_max                =   6.4674192569295E+00
(PID.TID 0000.0001) %MON exf_uwind_min                =  -6.8373987635628E+00
(PID.TID 0000.0001) %MON exf_uwind_mean               =   2.7704180476696E+00
(PID.TID 0000.0001) %MON exf_uwind_sd                 =   2.9916966488382E+00
(PID.TID 0000.0001) %MON exf_uwind_del2               =   8.0270776119363E-02
(PID.TID 0000.0001) %MON exf_vwind_max                =   3.9242492972827E+00
(PID.TID 0000.0001) %MON exf_vwind_min                =  -6.0142679292648E+00
(PID.TID 0000.0001) %MON exf_vwind_mean               =  -7.5719204270894E-01
(PID.TID 0000.0001) %MON exf_vwind_sd                 =   1.7299937065642E+00
(PID.TID 0000.0001) %MON exf_vwind_del2               =   4.8609143305425E-02
(PID.TID 0000.0001) %MON exf_wspeed_max               =   7.8835115525503E+00
(PID.TID 0000.0001) %MON exf_wspeed_min               =   4.5889518386928E-01
(PID.TID 0000.0001) %MON exf_wspeed_mean              =   4.1987383082859E+00
(PID.TID 0000.0001) %MON exf_wspeed_sd                =   1.6007122259633E+00
(PID.TID 0000.0001) %MON exf_wspeed_del2              =   2.3645323505408E-01
(PID.TID 0000.0001) %MON exf_atemp_max                =   2.8187253958280E+02
(PID.TID 0000.0001) %MON exf_atemp_min                =   2.3643497929808E+02
(PID.TID 0000.0001) %MON exf_atemp_mean               =   2.6391819332927E+02
(PID.TID 0000.0001) %MON exf_atemp_sd                 =   1.1992188200331E+01
(PID.TID 0000.0001) %MON exf_atemp_del2               =   7.0704534707978E-01
(PID.TID 0000.0001) %MON exf_aqh_max                  =   6.3189936985002E-03
(PID.TID 0000.0001) %MON exf_aqh_min                  =   1.6312812718364E-04
(PID.TID 0000.0001) %MON exf_aqh_mean                 =   2.4770007717611E-03
(PID.TID 0000.0001) %MON exf_aqh_sd                   =   1.4258893952382E-03
(PID.TID 0000.0001) %MON exf_aqh_del2                 =   7.6376219323514E-05
(PID.TID 0000.0001) %MON exf_lwflux_max               =   1.8564427439800E+02
(PID.TID 0000.0001) %MON exf_lwflux_min               =   6.7053476554269E+01
(PID.TID 0000.0001) %MON exf_lwflux_mean              =   9.7868581387124E+01
(PID.TID 0000.0001) %MON exf_lwflux_sd                =   3.1046369373828E+01
(PID.TID 0000.0001) %MON exf_lwflux_del2              =   4.6209118235969E+00
(PID.TID 0000.0001) %MON exf_evap_max                 =   4.7067627612699E-08
(PID.TID 0000.0001) %MON exf_evap_min                 =   5.5015105388805E-09
(PID.TID 0000.0001) %MON exf_evap_mean                =   2.0666123266166E-08
(PID.TID 0000.0001) %MON exf_evap_sd                  =   6.9490812729998E-09
(PID.TID 0000.0001) %MON exf_evap_del2                =   1.0638783602200E-09
(PID.TID 0000.0001) %MON exf_precip_max               =   1.0499595166344E-07
(PID.TID 0000.0001) %MON exf_precip_min               =   2.7279142810763E-10
(PID.TID 0000.0001) %MON exf_precip_mean              =   3.6390015478879E-08
(PID.TID 0000.0001) %MON exf_precip_sd                =   2.0580860600171E-08
(PID.TID 0000.0001) %MON exf_precip_del2              =   1.6851676427211E-09
(PID.TID 0000.0001) %MON exf_swflux_max               =  -8.1207452738871E-02
(PID.TID 0000.0001) %MON exf_swflux_min               =  -6.4086336117103E+01
(PID.TID 0000.0001) %MON exf_swflux_mean              =  -2.6516416318198E+01
(PID.TID 0000.0001) %MON exf_swflux_sd                =   1.9648923659484E+01
(PID.TID 0000.0001) %MON exf_swflux_del2              =   7.7300992044929E-01
(PID.TID 0000.0001) %MON exf_swdown_max               =   7.1207040130115E+01
(PID.TID 0000.0001) %MON exf_swdown_min               =   9.0230503043190E-02
(PID.TID 0000.0001) %MON exf_swdown_mean              =   2.9462684797997E+01
(PID.TID 0000.0001) %MON exf_swdown_sd                =   2.1832137399427E+01
(PID.TID 0000.0001) %MON exf_swdown_del2              =   8.5889991161032E-01
(PID.TID 0000.0001) %MON exf_lwdown_max               =   3.0562676151463E+02
(PID.TID 0000.0001) %MON exf_lwdown_min               =   1.1590705083628E+02
(PID.TID 0000.0001) %MON exf_lwdown_mean              =   2.2585507298474E+02
(PID.TID 0000.0001) %MON exf_lwdown_sd                =   4.6301263017486E+01
(PID.TID 0000.0001) %MON exf_lwdown_del2              =   8.1684723805533E+00
(PID.TID 0000.0001) %MON exf_climsss_max              =   3.5041439369077E+01
(PID.TID 0000.0001) %MON exf_climsss_min              =   3.0670869139374E+01
(PID.TID 0000.0001) %MON exf_climsss_mean             =   3.3462447601866E+01
(PID.TID 0000.0001) %MON exf_climsss_sd               =   1.0315283113566E+00
(PID.TID 0000.0001) %MON exf_climsss_del2             =   2.6970144903599E-02
(PID.TID 0000.0001) // =======================================================
(PID.TID 0000.0001) // End MONITOR EXF statistics
(PID.TID 0000.0001) // =======================================================
 SEAICE_LSR: Residual Initial ipass,Uice,Vice=    1  4.56592319E-03  2.57641199E-03
 SEAICE_LSR: Residual FrDrift U_fd,V_fd=  1.46806215E+01  5.06858252E+00
 SEAICE_LSR (ipass=   1) iters,dU,Resid=    14  9.33280447E-05  7.35074017E-05
 SEAICE_LSR (ipass=   1) iters,dV,Resid=     6  4.54282053E-05  1.40747485E-05
 SEAICE_LSR: Residual Initial ipass,Uice,Vice=    2  4.10704573E-03  2.32004187E-03
 SEAICE_LSR: Residual FrDrift U_fd,V_fd=  1.47096701E+01  5.07928581E+00
 SEAICE_LSR (ipass=   2) iters,dU,Resid=    10  8.35633667E-05  6.31497669E-05
 SEAICE_LSR (ipass=   2) iters,dV,Resid=     4  2.71194960E-05  4.08725680E-05
 cg2d: Sum(rhs),rhsMax =  -7.21693815819435E-10  3.93063769340666E-01
(PID.TID 0000.0001)      cg2d_init_res =   4.42686897104317E-03
(PID.TID 0000.0001)      cg2d_iters(min,last) =      -1      39
(PID.TID 0000.0001)      cg2d_last_res =   5.60888729256212E-13
(PID.TID 0000.0001) // =======================================================
(PID.TID 0000.0001) // Begin MONITOR dynamic field statistics
(PID.TID 0000.0001) // =======================================================
(PID.TID 0000.0001) %MON time_tsnumber                =                     7
(PID.TID 0000.0001) %MON time_secondsf                =   2.5200000000000E+04
(PID.TID 0000.0001) %MON dynstat_eta_max              =   1.1434077653960E-01
(PID.TID 0000.0001) %MON dynstat_eta_min              =  -1.2312608106854E-01
(PID.TID 0000.0001) %MON dynstat_eta_mean             =   6.4115186855998E-12
(PID.TID 0000.0001) %MON dynstat_eta_sd               =   5.4860441177307E-02
(PID.TID 0000.0001) %MON dynstat_eta_del2             =   2.4172125802357E-03
(PID.TID 0000.0001) %MON dynstat_uvel_max             =   2.9817457767692E-02
(PID.TID 0000.0001) %MON dynstat_uvel_min             =  -2.0257852806137E-02
(PID.TID 0000.0001) %MON dynstat_uvel_mean            =   6.9813593313414E-05
(PID.TID 0000.0001) %MON dynstat_uvel_sd              =   2.7540928459263E-03
(PID.TID 0000.0001) %MON dynstat_uvel_del2            =   1.1765671822024E-04
(PID.TID 0000.0001) %MON dynstat_vvel_max             =   2.7242692213611E-02
(PID.TID 0000.0001) %MON dynstat_vvel_min             =  -5.6318889698699E-02
(PID.TID 0000.0001) %MON dynstat_vvel_mean            =   2.3725496330775E-05
(PID.TID 0000.0001) %MON dynstat_vvel_sd              =   4.1751253186424E-03
(PID.TID 0000.0001) %MON dynstat_vvel_del2            =   1.5312402891179E-04
(PID.TID 0000.0001) %MON dynstat_wvel_max             =   1.0351516121682E-05
(PID.TID 0000.0001) %MON dynstat_wvel_min             =  -1.2912267850540E-05
(PID.TID 0000.0001) %MON dynstat_wvel_mean            =   0.0000000000000E+00
(PID.TID 0000.0001) %MON dynstat_wvel_sd              =   2.9794947961176E-06
(PID.TID 0000.0001) %MON dynstat_wvel_del2            =   6.0657352814337E-08
(PID.TID 0000.0001) %MON dynstat_theta_max            =   1.2478429901847E+01
(PID.TID 0000.0001) %MON dynstat_theta_min            =  -1.8567304312304E+00
(PID.TID 0000.0001) %MON dynstat_theta_mean           =   3.0788083823327E+00
(PID.TID 0000.0001) %MON dynstat_theta_sd             =   1.4434258901479E+00
(PID.TID 0000.0001) %MON dynstat_theta_del2           =   1.7449025769424E-02
(PID.TID 0000.0001) %MON dynstat_salt_max             =   3.5292746730376E+01
(PID.TID 0000.0001) %MON dynstat_salt_min             =   3.0708096440087E+01
(PID.TID 0000.0001) %MON dynstat_salt_mean            =   3.4757130129394E+01
(PID.TID 0000.0001) %MON dynstat_salt_sd              =   4.3054493351272E-01
(PID.TID 0000.0001) %MON dynstat_salt_del2            =   3.9771959971453E-03
(PID.TID 0000.0001) %MON forcing_qnet_max             =   2.7452057182792E+02
(PID.TID 0000.0001) %MON forcing_qnet_min             =  -3.7364084124156E+00
(PID.TID 0000.0001) %MON forcing_qnet_mean            =   9.2916624203303E+01
(PID.TID 0000.0001) %MON forcing_qnet_sd              =   6.5868879546986E+01
(PID.TID 0000.0001) %MON forcing_qnet_del2            =   4.7822713518061E+00
(PID.TID 0000.0001) %MON forcing_qsw_max              =   0.0000000000000E+00
(PID.TID 0000.0001) %MON forcing_qsw_min              =  -6.4086336117103E+01
(PID.TID 0000.0001) %MON forcing_qsw_mean             =  -2.4446828178475E+01
(PID.TID 0000.0001) %MON forcing_qsw_sd               =   2.1199736534457E+01
(PID.TID 0000.0001) %MON forcing_qsw_del2             =   3.6761012991781E-01
(PID.TID 0000.0001) %MON forcing_empmr_max            =   5.5210605585451E-04
(PID.TID 0000.0001) %MON forcing_empmr_min            =  -8.3173570560682E-05
(PID.TID 0000.0001) %MON forcing_empmr_mean           =   3.9590049230788E-05
(PID.TID 0000.0001) %MON forcing_empmr_sd             =   1.1413072684305E-04
(PID.TID 0000.0001) %MON forcing_empmr_del2           =   7.9274126873342E-06
(PID.TID 0000.0001) %MON forcing_fu_max               =   6.2109377482078E-02
(PID.TID 0000.0001) %MON forcing_fu_min               =  -1.8249931219012E-02
(PID.TID 0000.0001) %MON forcing_fu_mean              =   2.3366373709065E-02
(PID.TID 0000.0001) %MON forcing_fu_sd                =   2.1110270549083E-02
(PID.TID 0000.0001) %MON forcing_fu_del2              =   5.5066514950101E-04
(PID.TID 0000.0001) %MON forcing_fv_max               =   1.4724376355208E-02
(PID.TID 0000.0001) %MON forcing_fv_min               =  -4.1807170910681E-02
(PID.TID 0000.0001) %MON forcing_fv_mean              =  -4.6232817209973E-03
(PID.TID 0000.0001) %MON forcing_fv_sd                =   1.1526583452604E-02
(PID.TID 0000.0001) %MON forcing_fv_del2              =   4.4202785118567E-04
(PID.TID 0000.0001) %MON trAdv_CFL_u_max              =   7.5603481269408E-04
(PID.TID 0000.0001) %MON trAdv_CFL_v_max              =   9.3696686277520E-04
(PID.TID 0000.0001) %MON trAdv_CFL_w_max              =   1.0205390449486E-03
(PID.TID 0000.0001) %MON advcfl_uvel_max              =   7.3572451676443E-04
(PID.TID 0000.0001) %MON advcfl_vvel_max              =   9.1167829789308E-04
(PID.TID 0000.0001) %MON advcfl_wvel_max              =   7.7036596931089E-04
(PID.TID 0000.0001) %MON advcfl_W_hf_max              =   9.2293925916828E-04
(PID.TID 0000.0001) %MON pe_b_mean                    =   9.9218220372967E-06
(PID.TID 0000.0001) %MON ke_max                       =   1.5117375929778E-03
(PID.TID 0000.0001) %MON ke_mean                      =   9.7841882059818E-06
(PID.TID 0000.0001) %MON ke_vol                       =   5.3036189546438E+15
(PID.TID 0000.0001) %MON vort_r_min                   =  -5.2621674993403E-07
(PID.TID 0000.0001) %MON vort_r_max                   =   2.5750831060860E-07
(PID.TID 0000.0001) %MON vort_a_mean                  =   1.2067277897092E-04
(PID.TID 0000.0001) %MON vort_a_sd                    =   8.8116912422599E-06
(PID.TID 0000.0001) %MON vort_p_mean                  =   1.7734843602554E-04
(PID.TID 0000.0001) %MON vort_p_sd                    =   1.1688608083302E-04
(PID.TID 0000.0001) %MON surfExpan_theta_mean         =  -3.3461374938657E-08
(PID.TID 0000.0001) %MON surfExpan_salt_mean          =   8.6536045040328E-09
(PID.TID 0000.0001) // =======================================================
(PID.TID 0000.0001) // End MONITOR dynamic field statistics
(PID.TID 0000.0001) // =======================================================
(PID.TID 0000.0001) // =======================================================
(PID.TID 0000.0001) // Begin MONITOR SEAICE statistics
(PID.TID 0000.0001) // =======================================================
(PID.TID 0000.0001) %MON seaice_tsnumber              =                     7
(PID.TID 0000.0001) %MON seaice_time_sec              =   2.5200000000000E+04
(PID.TID 0000.0001) %MON seaice_uice_max              =   1.2932019476794E-01
(PID.TID 0000.0001) %MON seaice_uice_min              =  -6.8951710778175E-02
(PID.TID 0000.0001) %MON seaice_uice_mean             =   5.1166825693428E-02
(PID.TID 0000.0001) %MON seaice_uice_sd               =   4.9117033527615E-02
(PID.TID 0000.0001) %MON seaice_uice_del2             =   1.4150028740511E-03
(PID.TID 0000.0001) %MON seaice_vice_max              =   4.4376719881307E-02
(PID.TID 0000.0001) %MON seaice_vice_min              =  -1.1046779794785E-01
(PID.TID 0000.0001) %MON seaice_vice_mean             =  -2.2246511415564E-02
(PID.TID 0000.0001) %MON seaice_vice_sd               =   3.6461164628598E-02
(PID.TID 0000.0001) %MON seaice_vice_del2             =   1.4843096620693E-03
(PID.TID 0000.0001) %MON seaice_area_max              =   9.9999923030514E-01
(PID.TID 0000.0001) %MON seaice_area_min              =   0.0000000000000E+00
(PID.TID 0000.0001) %MON seaice_area_mean             =   3.2800970845248E-01
(PID.TID 0000.0001) %MON seaice_area_sd               =   4.4539415918750E-01
(PID.TID 0000.0001) %MON seaice_area_del2             =   2.1138020232360E-02
(PID.TID 0000.0001) %MON seaice_heff_max              =   1.6291027032559E+00
(PID.TID 0000.0001) %MON seaice_heff_min              =   0.0000000000000E+00
(PID.TID 0000.0001) %MON seaice_heff_mean             =   1.8789857812378E-01
(PID.TID 0000.0001) %MON seaice_heff_sd               =   3.5983870193912E-01
(PID.TID 0000.0001) %MON seaice_heff_del2             =   9.4561189500512E-03
(PID.TID 0000.0001) %MON seaice_hsnow_max             =   4.0256761167498E-01
(PID.TID 0000.0001) %MON seaice_hsnow_min             =   0.0000000000000E+00
(PID.TID 0000.0001) %MON seaice_hsnow_mean            =   3.5251687790076E-02
(PID.TID 0000.0001) %MON seaice_hsnow_sd              =   7.6699121116757E-02
(PID.TID 0000.0001) %MON seaice_hsnow_del2            =   2.5088932154457E-03
(PID.TID 0000.0001) %MON seaice_sitracer01_max        =   2.1600000000000E+04
(PID.TID 0000.0001) %MON seaice_sitracer01_min        =   0.0000000000000E+00
(PID.TID 0000.0001) %MON seaice_sitracer01_mean       =   7.9679362199469E+03
(PID.TID 0000.0001) %MON seaice_sitracer01_sd         =   1.0401995767977E+04
(PID.TID 0000.0001) %MON seaice_sitracer01_del2       =   7.3146998544301E+02
(PID.TID 0000.0001) %MON seaice_sitracer02_max        =   1.0000000000000E+00
(PID.TID 0000.0001) %MON seaice_sitracer02_min        =   0.0000000000000E+00
(PID.TID 0000.0001) %MON seaice_sitracer02_mean       =   3.9880510261478E-01
(PID.TID 0000.0001) %MON seaice_sitracer02_sd         =   4.8965252245158E-01
(PID.TID 0000.0001) %MON seaice_sitracer02_del2       =   2.7487370837451E-02
(PID.TID 0000.0001) // =======================================================
(PID.TID 0000.0001) // End MONITOR SEAICE statistics
(PID.TID 0000.0001) // =======================================================
(PID.TID 0000.0001) // =======================================================
(PID.TID 0000.0001) // Begin MONITOR EXF statistics
(PID.TID 0000.0001) // =======================================================
(PID.TID 0000.0001) %MON exf_tsnumber                 =                     7
(PID.TID 0000.0001) %MON exf_time_sec                 =   2.5200000000000E+04
(PID.TID 0000.0001) %MON exf_ustress_max              =   6.2670717102714E-02
(PID.TID 0000.0001) %MON exf_ustress_min              =  -9.3855875688823E-02
(PID.TID 0000.0001) %MON exf_ustress_mean             =   2.1971557078416E-02
(PID.TID 0000.0001) %MON exf_ustress_sd               =   2.6593182173726E-02
(PID.TID 0000.0001) %MON exf_ustress_del2             =   7.1532536297983E-04
(PID.TID 0000.0001) %MON exf_vstress_max              =   5.3867743703297E-02
(PID.TID 0000.0001) %MON exf_vstress_min              =  -5.9391783078465E-02
(PID.TID 0000.0001) %MON exf_vstress_mean             =  -5.3172632340317E-03
(PID.TID 0000.0001) %MON exf_vstress_sd               =   1.5050542735016E-02
(PID.TID 0000.0001) %MON exf_vstress_del2             =   5.0322538427619E-04
(PID.TID 0000.0001) %MON exf_hflux_max                =   6.3304198992462E+02
(PID.TID 0000.0001) %MON exf_hflux_min                =   8.9544462125884E+01
(PID.TID 0000.0001) %MON exf_hflux_mean               =   2.1924921232223E+02
(PID.TID 0000.0001) %MON exf_hflux_sd                 =   1.3432119649848E+02
(PID.TID 0000.0001) %MON exf_hflux_del2               =   1.3763851899054E+01
(PID.TID 0000.0001) %MON exf_sflux_max                =   4.0753007459331E-08
(PID.TID 0000.0001) %MON exf_sflux_min                =  -8.3195868915139E-08
(PID.TID 0000.0001) %MON exf_sflux_mean               =  -1.5720328201233E-08
(PID.TID 0000.0001) %MON exf_sflux_sd                 =   2.4417500901079E-08
(PID.TID 0000.0001) %MON exf_sflux_del2               =   1.6784915689173E-09
(PID.TID 0000.0001) %MON exf_uwind_max                =   6.4679267093784E+00
(PID.TID 0000.0001) %MON exf_uwind_min                =  -6.8374255452651E+00
(PID.TID 0000.0001) %MON exf_uwind_mean               =   2.7705256000140E+00
(PID.TID 0000.0001) %MON exf_uwind_sd                 =   2.9919728561678E+00
(PID.TID 0000.0001) %MON exf_uwind_del2               =   8.0270596191202E-02
(PID.TID 0000.0001) %MON exf_vwind_max                =   3.9242794780783E+00
(PID.TID 0000.0001) %MON exf_vwind_min                =  -6.0133620194399E+00
(PID.TID 0000.0001) %MON exf_vwind_mean               =  -7.5657426961883E-01
(PID.TID 0000.0001) %MON exf_vwind_sd                 =   1.7301024272674E+00
(PID.TID 0000.0001) %MON exf_vwind_del2               =   4.8609021380011E-02
(PID.TID 0000.0001) %MON exf_wspeed_max               =   7.8835498038073E+00
(PID.TID 0000.0001) %MON exf_wspeed_min               =   4.5865235699732E-01
(PID.TID 0000.0001) %MON exf_wspeed_mean              =   4.1988415259832E+00
(PID.TID 0000.0001) %MON exf_wspeed_sd                =   1.6009692521540E+00
(PID.TID 0000.0001) %MON exf_wspeed_del2              =   2.3645081120476E-01
(PID.TID 0000.0001) %MON exf_atemp_max                =   2.8187082742993E+02
(PID.TID 0000.0001) %MON exf_atemp_min                =   2.3643051433042E+02
(PID.TID 0000.0001) %MON exf_atemp_mean               =   2.6391354924392E+02
(PID.TID 0000.0001) %MON exf_atemp_sd                 =   1.1993651656543E+01
(PID.TID 0000.0001) %MON exf_atemp_del2               =   7.0734328430989E-01
(PID.TID 0000.0001) %MON exf_aqh_max                  =   6.3182971576392E-03
(PID.TID 0000.0001) %MON exf_aqh_min                  =   1.6303402368524E-04
(PID.TID 0000.0001) %MON exf_aqh_mean                 =   2.4764404153565E-03
(PID.TID 0000.0001) %MON exf_aqh_sd                   =   1.4257865072101E-03
(PID.TID 0000.0001) %MON exf_aqh_del2                 =   7.6352374459005E-05
(PID.TID 0000.0001) %MON exf_lwflux_max               =   1.8566066044459E+02
(PID.TID 0000.0001) %MON exf_lwflux_min               =   6.7054098194846E+01
(PID.TID 0000.0001) %MON exf_lwflux_mean              =   9.7881045783799E+01
(PID.TID 0000.0001) %MON exf_lwflux_sd                =   3.1059574961630E+01
(PID.TID 0000.0001) %MON exf_lwflux_del2              =   4.6217235673691E+00
(PID.TID 0000.0001) %MON exf_evap_max                 =   4.7072576306911E-08
(PID.TID 0000.0001) %MON exf_evap_min                 =   5.4957617827074E-09
(PID.TID 0000.0001) %MON exf_evap_mean                =   2.0669676433612E-08
(PID.TID 0000.0001) %MON exf_evap_sd                  =   6.9523298251695E-09
(PID.TID 0000.0001) %MON exf_evap_del2                =   1.0641983742524E-09
(PID.TID 0000.0001) %MON exf_precip_max               =   1.0499733310606E-07
(PID.TID 0000.0001) %MON exf_precip_min               =   2.7265750163496E-10
(PID.TID 0000.0001) %MON exf_precip_mean              =   3.6390004634845E-08
(PID.TID 0000.0001) %MON exf_precip_sd                =   2.0581314966068E-08
(PID.TID 0000.0001) %MON exf_precip_del2              =   1.6854450499027E-09
(PID.TID 0000.0001) %MON exf_swflux_max               =  -8.1207735616653E-02
(PID.TID 0000.0001) %MON exf_swflux_min               =  -6.4105206467675E+01
(PID.TID 0000.0001) %MON exf_swflux_mean              =  -2.6526948534072E+01
(PID.TID 0000.0001) %MON exf_swflux_sd                =   1.9652762825246E+01
(PID.TID 0000.0001) %MON exf_swflux_del2              =   7.7341216403100E-01
(PID.TID 0000.0001) %MON exf_swdown_max               =   7.1228007186306E+01
(PID.TID 0000.0001) %MON exf_swdown_min               =   9.0230817351836E-02
(PID.TID 0000.0001) %MON exf_swdown_mean              =   2.9474387260081E+01
(PID.TID 0000.0001) %MON exf_swdown_sd                =   2.1836403139162E+01
(PID.TID 0000.0001) %MON exf_swdown_del2              =   8.5934684892333E-01
(PID.TID 0000.0001) %MON exf_lwdown_max               =   3.0561793543081E+02
(PID.TID 0000.0001) %MON exf_lwdown_min               =   1.1589194395764E+02
(PID.TID 0000.0001) %MON exf_lwdown_mean              =   2.2583936565568E+02
(PID.TID 0000.0001) %MON exf_lwdown_sd                =   4.6305239399294E+01
(PID.TID 0000.0001) %MON exf_lwdown_del2              =   8.1675182607586E+00
(PID.TID 0000.0001) %MON exf_climsss_max              =   3.5041624116116E+01
(PID.TID 0000.0001) %MON exf_climsss_min              =   3.0671628467372E+01
(PID.TID 0000.0001) %MON exf_climsss_mean             =   3.3462968935345E+01
(PID.TID 0000.0001) %MON exf_climsss_sd               =   1.0314580197633E+00
(PID.TID 0000.0001) %MON exf_climsss_del2             =   2.6969273072472E-02
(PID.TID 0000.0001) // =======================================================
(PID.TID 0000.0001) // End MONITOR EXF statistics
(PID.TID 0000.0001) // =======================================================
 SEAICE_LSR: Residual Initial ipass,Uice,Vice=    1  3.43145238E-03  1.90956949E-03
 SEAICE_LSR: Residual FrDrift U_fd,V_fd=  1.47472539E+01  5.09702529E+00
 SEAICE_LSR (ipass=   1) iters,dU,Resid=    14  7.61446874E-05  5.86526646E-05
 SEAICE_LSR (ipass=   1) iters,dV,Resid=     6  9.15924792E-05  2.07330121E-05
 SEAICE_LSR: Residual Initial ipass,Uice,Vice=    2  3.13799707E-03  1.68140582E-03
 SEAICE_LSR: Residual FrDrift U_fd,V_fd=  1.47510654E+01  5.10134263E+00
 SEAICE_LSR (ipass=   2) iters,dU,Resid=     8  8.02591581E-05  6.71953967E-05
 SEAICE_LSR (ipass=   2) iters,dV,Resid=     4  7.82147472E-05  3.98676903E-05
 cg2d: Sum(rhs),rhsMax =  -7.21844445328301E-10  3.92969591999983E-01
(PID.TID 0000.0001)      cg2d_init_res =   4.02581080180723E-03
(PID.TID 0000.0001)      cg2d_iters(min,last) =      -1      39
(PID.TID 0000.0001)      cg2d_last_res =   4.67277874919387E-13
(PID.TID 0000.0001) // =======================================================
(PID.TID 0000.0001) // Begin MONITOR dynamic field statistics
(PID.TID 0000.0001) // =======================================================
(PID.TID 0000.0001) %MON time_tsnumber                =                     8
(PID.TID 0000.0001) %MON time_secondsf                =   2.8800000000000E+04
(PID.TID 0000.0001) %MON dynstat_eta_max              =   1.1296736098162E-01
(PID.TID 0000.0001) %MON dynstat_eta_min              =  -1.2311747263212E-01
(PID.TID 0000.0001) %MON dynstat_eta_mean             =   6.4114501554387E-12
(PID.TID 0000.0001) %MON dynstat_eta_sd               =   5.4794456997390E-02
(PID.TID 0000.0001) %MON dynstat_eta_del2             =   2.4113649036764E-03
(PID.TID 0000.0001) %MON dynstat_uvel_max             =   2.9809068889429E-02
(PID.TID 0000.0001) %MON dynstat_uvel_min             =  -2.0262503965812E-02
(PID.TID 0000.0001) %MON dynstat_uvel_mean            =   6.9693223548018E-05
(PID.TID 0000.0001) %MON dynstat_uvel_sd              =   2.7522018239068E-03
(PID.TID 0000.0001) %MON dynstat_uvel_del2            =   1.1780419877985E-04
(PID.TID 0000.0001) %MON dynstat_vvel_max             =   2.7245769795196E-02
(PID.TID 0000.0001) %MON dynstat_vvel_min             =  -5.7080667194287E-02
(PID.TID 0000.0001) %MON dynstat_vvel_mean            =   2.1708126058765E-05
(PID.TID 0000.0001) %MON dynstat_vvel_sd              =   4.1856381062649E-03
(PID.TID 0000.0001) %MON dynstat_vvel_del2            =   1.5284810245414E-04
(PID.TID 0000.0001) %MON dynstat_wvel_max             =   1.0346411742963E-05
(PID.TID 0000.0001) %MON dynstat_wvel_min             =  -1.2876081439710E-05
(PID.TID 0000.0001) %MON dynstat_wvel_mean            =  -6.1787515087784E-23
(PID.TID 0000.0001) %MON dynstat_wvel_sd              =   2.9768987449949E-06
(PID.TID 0000.0001) %MON dynstat_wvel_del2            =   6.0502958961457E-08
(PID.TID 0000.0001) %MON dynstat_theta_max            =   1.2478318613613E+01
(PID.TID 0000.0001) %MON dynstat_theta_min            =  -1.8564819259783E+00
(PID.TID 0000.0001) %MON dynstat_theta_mean           =   3.0787531774056E+00
(PID.TID 0000.0001) %MON dynstat_theta_sd             =   1.4433593408022E+00
(PID.TID 0000.0001) %MON dynstat_theta_del2           =   1.7454897538162E-02
(PID.TID 0000.0001) %MON dynstat_salt_max             =   3.5292721248672E+01
(PID.TID 0000.0001) %MON dynstat_salt_min             =   3.0708110171424E+01
(PID.TID 0000.0001) %MON dynstat_salt_mean            =   3.4757133839740E+01
(PID.TID 0000.0001) %MON dynstat_salt_sd              =   4.3052695097784E-01
(PID.TID 0000.0001) %MON dynstat_salt_del2            =   3.9774883386114E-03
(PID.TID 0000.0001) %MON forcing_qnet_max             =   2.7448577088506E+02
(PID.TID 0000.0001) %MON forcing_qnet_min             =  -3.1234973991643E+00
(PID.TID 0000.0001) %MON forcing_qnet_mean            =   9.3566412816506E+01
(PID.TID 0000.0001) %MON forcing_qnet_sd              =   6.5355330168460E+01
(PID.TID 0000.0001) %MON forcing_qnet_del2            =   4.9139374266576E+00
(PID.TID 0000.0001) %MON forcing_qsw_max              =   0.0000000000000E+00
(PID.TID 0000.0001) %MON forcing_qsw_min              =  -6.4105206467675E+01
(PID.TID 0000.0001) %MON forcing_qsw_mean             =  -2.4454441846875E+01
(PID.TID 0000.0001) %MON forcing_qsw_sd               =   2.1203975182184E+01
(PID.TID 0000.0001) %MON forcing_qsw_del2             =   3.6792504756853E-01
(PID.TID 0000.0001) %MON forcing_empmr_max            =   5.4419841852291E-04
(PID.TID 0000.0001) %MON forcing_empmr_min            =  -8.3179229741356E-05
(PID.TID 0000.0001) %MON forcing_empmr_mean           =   3.7553161165313E-05
(PID.TID 0000.0001) %MON forcing_empmr_sd             =   1.1078864127847E-04
(PID.TID 0000.0001) %MON forcing_empmr_del2           =   8.0313180102139E-06
(PID.TID 0000.0001) %MON forcing_fu_max               =   6.2119433311497E-02
(PID.TID 0000.0001) %MON forcing_fu_min               =  -1.8260425856718E-02
(PID.TID 0000.0001) %MON forcing_fu_mean              =   2.3354873254719E-02
(PID.TID 0000.0001) %MON forcing_fu_sd                =   2.1124086937436E-02
(PID.TID 0000.0001) %MON forcing_fu_del2              =   5.5119699734068E-04
(PID.TID 0000.0001) %MON forcing_fv_max               =   1.4728057459249E-02
(PID.TID 0000.0001) %MON forcing_fv_min               =  -4.1793104736105E-02
(PID.TID 0000.0001) %MON forcing_fv_mean              =  -4.6063587586370E-03
(PID.TID 0000.0001) %MON forcing_fv_sd                =   1.1519873114667E-02
(PID.TID 0000.0001) %MON forcing_fv_del2              =   4.4109693587276E-04
(PID.TID 0000.0001) %MON trAdv_CFL_u_max              =   7.3576187050926E-04
(PID.TID 0000.0001) %MON trAdv_CFL_v_max              =   9.3806738730741E-04
(PID.TID 0000.0001) %MON trAdv_CFL_w_max              =   9.2293925916828E-04
(PID.TID 0000.0001) %MON advcfl_uvel_max              =   7.3551752717283E-04
(PID.TID 0000.0001) %MON advcfl_vvel_max              =   9.2400979118541E-04
(PID.TID 0000.0001) %MON advcfl_wvel_max              =   7.3331492220278E-04
(PID.TID 0000.0001) %MON advcfl_W_hf_max              =   8.6216638104205E-04
(PID.TID 0000.0001) %MON pe_b_mean                    =   9.8979691640229E-06
(PID.TID 0000.0001) %MON ke_max                       =   1.6045637528324E-03
(PID.TID 0000.0001) %MON ke_mean                      =   9.8142578330420E-06
(PID.TID 0000.0001) %MON ke_vol                       =   5.3036189546438E+15
(PID.TID 0000.0001) %MON vort_r_min                   =  -5.4200335238081E-07
(PID.TID 0000.0001) %MON vort_r_max                   =   2.6642048617606E-07
(PID.TID 0000.0001) %MON vort_a_mean                  =   1.2067277897398E-04
(PID.TID 0000.0001) %MON vort_a_sd                    =   8.8116913397766E-06
(PID.TID 0000.0001) %MON vort_p_mean                  =   1.7734843603003E-04
(PID.TID 0000.0001) %MON vort_p_sd                    =   1.1688610239761E-04
(PID.TID 0000.0001) %MON surfExpan_theta_mean         =  -2.6176901249437E-08
(PID.TID 0000.0001) %MON surfExpan_salt_mean          =   8.1431745185999E-09
(PID.TID 0000.0001) // =======================================================
(PID.TID 0000.0001) // End MONITOR dynamic field statistics
(PID.TID 0000.0001) // =======================================================
(PID.TID 0000.0001) // =======================================================
(PID.TID 0000.0001) // Begin MONITOR SEAICE statistics
(PID.TID 0000.0001) // =======================================================
(PID.TID 0000.0001) %MON seaice_tsnumber              =                     8
(PID.TID 0000.0001) %MON seaice_time_sec              =   2.8800000000000E+04
(PID.TID 0000.0001) %MON seaice_uice_max              =   1.2937134499451E-01
(PID.TID 0000.0001) %MON seaice_uice_min              =  -7.0692965053996E-02
(PID.TID 0000.0001) %MON seaice_uice_mean             =   5.1394930595489E-02
(PID.TID 0000.0001) %MON seaice_uice_sd               =   4.9128814450069E-02
(PID.TID 0000.0001) %MON seaice_uice_del2             =   1.4352791505588E-03
(PID.TID 0000.0001) %MON seaice_vice_max              =   4.4805508892621E-02
(PID.TID 0000.0001) %MON seaice_vice_min              =  -1.1056041027111E-01
(PID.TID 0000.0001) %MON seaice_vice_mean             =  -2.2405423054940E-02
(PID.TID 0000.0001) %MON seaice_vice_sd               =   3.6732732872467E-02
(PID.TID 0000.0001) %MON seaice_vice_del2             =   1.4914216263854E-03
(PID.TID 0000.0001) %MON seaice_area_max              =   9.9999911534413E-01
(PID.TID 0000.0001) %MON seaice_area_min              =   0.0000000000000E+00
(PID.TID 0000.0001) %MON seaice_area_mean             =   3.2802526421769E-01
(PID.TID 0000.0001) %MON seaice_area_sd               =   4.4530720995821E-01
(PID.TID 0000.0001) %MON seaice_area_del2             =   2.1121274386457E-02
(PID.TID 0000.0001) %MON seaice_heff_max              =   1.6294849986009E+00
(PID.TID 0000.0001) %MON seaice_heff_min              =   0.0000000000000E+00
(PID.TID 0000.0001) %MON seaice_heff_mean             =   1.8812496125956E-01
(PID.TID 0000.0001) %MON seaice_heff_sd               =   3.5997357730601E-01
(PID.TID 0000.0001) %MON seaice_heff_del2             =   9.4612225936858E-03
(PID.TID 0000.0001) %MON seaice_hsnow_max             =   4.0266313715037E-01
(PID.TID 0000.0001) %MON seaice_hsnow_min             =   0.0000000000000E+00
(PID.TID 0000.0001) %MON seaice_hsnow_mean            =   3.5302484558756E-02
(PID.TID 0000.0001) %MON seaice_hsnow_sd              =   7.6739578543532E-02
(PID.TID 0000.0001) %MON seaice_hsnow_del2            =   2.5119317009394E-03
(PID.TID 0000.0001) %MON seaice_sitracer01_max        =   2.5200000000000E+04
(PID.TID 0000.0001) %MON seaice_sitracer01_min        =   0.0000000000000E+00
(PID.TID 0000.0001) %MON seaice_sitracer01_mean       =   9.2925847376761E+03
(PID.TID 0000.0001) %MON seaice_sitracer01_sd         =   1.2131700115394E+04
(PID.TID 0000.0001) %MON seaice_sitracer01_del2       =   8.5321689253684E+02
(PID.TID 0000.0001) %MON seaice_sitracer02_max        =   1.0000000000000E+00
(PID.TID 0000.0001) %MON seaice_sitracer02_min        =   0.0000000000000E+00
(PID.TID 0000.0001) %MON seaice_sitracer02_mean       =   3.9880510261478E-01
(PID.TID 0000.0001) %MON seaice_sitracer02_sd         =   4.8965252245158E-01
(PID.TID 0000.0001) %MON seaice_sitracer02_del2       =   2.7487370837451E-02
(PID.TID 0000.0001) // =======================================================
(PID.TID 0000.0001) // End MONITOR SEAICE statistics
(PID.TID 0000.0001) // =======================================================
(PID.TID 0000.0001) // =======================================================
(PID.TID 0000.0001) // Begin MONITOR EXF statistics
(PID.TID 0000.0001) // =======================================================
(PID.TID 0000.0001) %MON exf_tsnumber                 =                     8
(PID.TID 0000.0001) %MON exf_time_sec                 =   2.8800000000000E+04
(PID.TID 0000.0001) %MON exf_ustress_max              =   6.2681718221561E-02
(PID.TID 0000.0001) %MON exf_ustress_min              =  -9.3858737341103E-02
(PID.TID 0000.0001) %MON exf_ustress_mean             =   2.1974130611177E-02
(PID.TID 0000.0001) %MON exf_ustress_sd               =   2.6597405848048E-02
(PID.TID 0000.0001) %MON exf_ustress_del2             =   7.1539031107482E-04
(PID.TID 0000.0001) %MON exf_vstress_max              =   5.3869589417783E-02
(PID.TID 0000.0001) %MON exf_vstress_min              =  -5.9375168352803E-02
(PID.TID 0000.0001) %MON exf_vstress_mean             =  -5.3126829953607E-03
(PID.TID 0000.0001) %MON exf_vstress_sd               =   1.5051963531834E-02
(PID.TID 0000.0001) %MON exf_vstress_del2             =   5.0324144493890E-04
(PID.TID 0000.0001) %MON exf_hflux_max                =   6.3313604110376E+02
(PID.TID 0000.0001) %MON exf_hflux_min                =   8.9540435990984E+01
(PID.TID 0000.0001) %MON exf_hflux_mean               =   2.1929462182808E+02
(PID.TID 0000.0001) %MON exf_hflux_sd                 =   1.3437962598186E+02
(PID.TID 0000.0001) %MON exf_hflux_del2               =   1.3769550991897E+01
(PID.TID 0000.0001) %MON exf_sflux_max                =   4.0758519788583E-08
(PID.TID 0000.0001) %MON exf_sflux_min                =  -8.3201505969828E-08
(PID.TID 0000.0001) %MON exf_sflux_mean               =  -1.5717466245500E-08
(PID.TID 0000.0001) %MON exf_sflux_sd                 =   2.4422170897262E-08
(PID.TID 0000.0001) %MON exf_sflux_del2               =   1.6788675327219E-09
(PID.TID 0000.0001) %MON exf_uwind_max                =   6.4684341618272E+00
(PID.TID 0000.0001) %MON exf_uwind_min                =  -6.8374523269674E+00
(PID.TID 0000.0001) %MON exf_uwind_mean               =   2.7706331523584E+00
(PID.TID 0000.0001) %MON exf_uwind_sd                 =   2.9922491036980E+00
(PID.TID 0000.0001) %MON exf_uwind_del2               =   8.0270419655066E-02
(PID.TID 0000.0001) %MON exf_vwind_max                =   3.9243096588739E+00
(PID.TID 0000.0001) %MON exf_vwind_min                =  -6.0124561096150E+00
(PID.TID 0000.0001) %MON exf_vwind_mean               =  -7.5595649652871E-01
(PID.TID 0000.0001) %MON exf_vwind_sd                 =   1.7302112611018E+00
(PID.TID 0000.0001) %MON exf_vwind_del2               =   4.8608906280664E-02
(PID.TID 0000.0001) %MON exf_wspeed_max               =   7.8835880550853E+00
(PID.TID 0000.0001) %MON exf_wspeed_min               =   4.5840953253040E-01
(PID.TID 0000.0001) %MON exf_wspeed_mean              =   4.1989448725728E+00
(PID.TID 0000.0001) %MON exf_wspeed_sd                =   1.6012263903992E+00
(PID.TID 0000.0001) %MON exf_wspeed_del2              =   2.3644839425491E-01
(PID.TID 0000.0001) %MON exf_atemp_max                =   2.8186911527707E+02
(PID.TID 0000.0001) %MON exf_atemp_min                =   2.3642604936277E+02
(PID.TID 0000.0001) %MON exf_atemp_mean               =   2.6390890515856E+02
(PID.TID 0000.0001) %MON exf_atemp_sd                 =   1.1995115599497E+01
(PID.TID 0000.0001) %MON exf_atemp_del2               =   7.0764127833262E-01
(PID.TID 0000.0001) %MON exf_aqh_max                  =   6.3176006167781E-03
(PID.TID 0000.0001) %MON exf_aqh_min                  =   1.6293992018683E-04
(PID.TID 0000.0001) %MON exf_aqh_mean                 =   2.4758800589519E-03
(PID.TID 0000.0001) %MON exf_aqh_sd                   =   1.4256836550895E-03
(PID.TID 0000.0001) %MON exf_aqh_del2                 =   7.6328532645201E-05
(PID.TID 0000.0001) %MON exf_lwflux_max               =   1.8567907077799E+02
(PID.TID 0000.0001) %MON exf_lwflux_min               =   6.7054968937826E+01
(PID.TID 0000.0001) %MON exf_lwflux_mean              =   9.7892487827738E+01
(PID.TID 0000.0001) %MON exf_lwflux_sd                =   3.1070825238768E+01
(PID.TID 0000.0001) %MON exf_lwflux_del2              =   4.6227106637203E+00
(PID.TID 0000.0001) %MON exf_evap_max                 =   4.7077425925232E-08
(PID.TID 0000.0001) %MON exf_evap_min                 =   5.4899160242088E-09
(PID.TID 0000.0001) %MON exf_evap_mean                =   2.0672527545310E-08
(PID.TID 0000.0001) %MON exf_evap_sd                  =   6.9542468993545E-09
(PID.TID 0000.0001) %MON exf_evap_del2                =   1.0646084778895E-09
(PID.TID 0000.0001) %MON exf_precip_max               =   1.0499871454869E-07
(PID.TID 0000.0001) %MON exf_precip_min               =   2.7252357516229E-10
(PID.TID 0000.0001) %MON exf_precip_mean              =   3.6389993790810E-08
(PID.TID 0000.0001) %MON exf_precip_sd                =   2.0581769987393E-08
(PID.TID 0000.0001) %MON exf_precip_del2              =   1.6857225020784E-09
(PID.TID 0000.0001) %MON exf_swflux_max               =  -8.1208018494434E-02
(PID.TID 0000.0001) %MON exf_swflux_min               =  -6.4124076818247E+01
(PID.TID 0000.0001) %MON exf_swflux_mean              =  -2.6537480749947E+01
(PID.TID 0000.0001) %MON exf_swflux_sd                =   1.9656602581253E+01
(PID.TID 0000.0001) %MON exf_swflux_del2              =   7.7381449195700E-01
(PID.TID 0000.0001) %MON exf_swdown_max               =   7.1248974242497E+01
(PID.TID 0000.0001) %MON exf_swdown_min               =   9.0231131660482E-02
(PID.TID 0000.0001) %MON exf_swdown_mean              =   2.9486089722164E+01
(PID.TID 0000.0001) %MON exf_swdown_sd                =   2.1840669534725E+01
(PID.TID 0000.0001) %MON exf_swdown_del2              =   8.5979387995222E-01
(PID.TID 0000.0001) %MON exf_lwdown_max               =   3.0560910934698E+02
(PID.TID 0000.0001) %MON exf_lwdown_min               =   1.1587683707899E+02
(PID.TID 0000.0001) %MON exf_lwdown_mean              =   2.2582365832661E+02
(PID.TID 0000.0001) %MON exf_lwdown_sd                =   4.6309216947189E+01
(PID.TID 0000.0001) %MON exf_lwdown_del2              =   8.1665641819805E+00
(PID.TID 0000.0001) %MON exf_climsss_max              =   3.5041808863155E+01
(PID.TID 0000.0001) %MON exf_climsss_min              =   3.0672387795370E+01
(PID.TID 0000.0001) %MON exf_climsss_mean             =   3.3463490268825E+01
(PID.TID 0000.0001) %MON exf_climsss_sd               =   1.0313879583737E+00
(PID.TID 0000.0001) %MON exf_climsss_del2             =   2.6968424438251E-02
(PID.TID 0000.0001) // =======================================================
(PID.TID 0000.0001) // End MONITOR EXF statistics
(PID.TID 0000.0001) // =======================================================
 SEAICE_LSR: Residual Initial ipass,Uice,Vice=    1  2.61557601E-03  1.37061056E-03
 SEAICE_LSR: Residual FrDrift U_fd,V_fd=  1.47638890E+01  5.11105608E+00
 SEAICE_LSR (ipass=   1) iters,dU,Resid=    10  8.97520277E-05  6.80734509E-05
 SEAICE_LSR (ipass=   1) iters,dV,Resid=     8  3.80924695E-05  8.01401501E-06
 SEAICE_LSR: Residual Initial ipass,Uice,Vice=    2  2.34139817E-03  1.15776292E-03
 SEAICE_LSR: Residual FrDrift U_fd,V_fd=  1.47466691E+01  5.10819117E+00
 SEAICE_LSR (ipass=   2) iters,dU,Resid=     6  7.93557754E-05  8.06142967E-05
 SEAICE_LSR (ipass=   2) iters,dV,Resid=     6  3.42440520E-05  1.16750966E-05
 cg2d: Sum(rhs),rhsMax =  -7.21999321440236E-10  3.92882028044660E-01
(PID.TID 0000.0001)      cg2d_init_res =   3.71087565893021E-03
(PID.TID 0000.0001)      cg2d_iters(min,last) =      -1      38
(PID.TID 0000.0001)      cg2d_last_res =   8.59713162512470E-13
(PID.TID 0000.0001) // =======================================================
(PID.TID 0000.0001) // Begin MONITOR dynamic field statistics
(PID.TID 0000.0001) // =======================================================
(PID.TID 0000.0001) %MON time_tsnumber                =                     9
(PID.TID 0000.0001) %MON time_secondsf                =   3.2400000000000E+04
(PID.TID 0000.0001) %MON dynstat_eta_max              =   1.1178309602567E-01
(PID.TID 0000.0001) %MON dynstat_eta_min              =  -1.2311596559520E-01
(PID.TID 0000.0001) %MON dynstat_eta_mean             =   6.4110539654448E-12
(PID.TID 0000.0001) %MON dynstat_eta_sd               =   5.4738739750452E-02
(PID.TID 0000.0001) %MON dynstat_eta_del2             =   2.4062319727097E-03
(PID.TID 0000.0001) %MON dynstat_uvel_max             =   2.9789327272667E-02
(PID.TID 0000.0001) %MON dynstat_uvel_min             =  -2.0502477740058E-02
(PID.TID 0000.0001) %MON dynstat_uvel_mean            =   6.9535729681045E-05
(PID.TID 0000.0001) %MON dynstat_uvel_sd              =   2.7520226631171E-03
(PID.TID 0000.0001) %MON dynstat_uvel_del2            =   1.1794408949253E-04
(PID.TID 0000.0001) %MON dynstat_vvel_max             =   2.7394119450160E-02
(PID.TID 0000.0001) %MON dynstat_vvel_min             =  -5.8229370984564E-02
(PID.TID 0000.0001) %MON dynstat_vvel_mean            =   2.0551581972395E-05
(PID.TID 0000.0001) %MON dynstat_vvel_sd              =   4.1981360379965E-03
(PID.TID 0000.0001) %MON dynstat_vvel_del2            =   1.5286028235723E-04
(PID.TID 0000.0001) %MON dynstat_wvel_max             =   1.0341585812791E-05
(PID.TID 0000.0001) %MON dynstat_wvel_min             =  -1.2851507881021E-05
(PID.TID 0000.0001) %MON dynstat_wvel_mean            =  -4.9430012070227E-23
(PID.TID 0000.0001) %MON dynstat_wvel_sd              =   2.9742602090022E-06
(PID.TID 0000.0001) %MON dynstat_wvel_del2            =   6.0352685577353E-08
(PID.TID 0000.0001) %MON dynstat_theta_max            =   1.2478222965978E+01
(PID.TID 0000.0001) %MON dynstat_theta_min            =  -1.8562484307215E+00
(PID.TID 0000.0001) %MON dynstat_theta_mean           =   3.0786976718456E+00
(PID.TID 0000.0001) %MON dynstat_theta_sd             =   1.4432938209601E+00
(PID.TID 0000.0001) %MON dynstat_theta_del2           =   1.7460848680627E-02
(PID.TID 0000.0001) %MON dynstat_salt_max             =   3.5292695763061E+01
(PID.TID 0000.0001) %MON dynstat_salt_min             =   3.0708123989708E+01
(PID.TID 0000.0001) %MON dynstat_salt_mean            =   3.4757137440933E+01
(PID.TID 0000.0001) %MON dynstat_salt_sd              =   4.3050945738890E-01
(PID.TID 0000.0001) %MON dynstat_salt_del2            =   3.9776147418822E-03
(PID.TID 0000.0001) %MON forcing_qnet_max             =   2.7445113825720E+02
(PID.TID 0000.0001) %MON forcing_qnet_min             =  -2.5115329335839E+00
(PID.TID 0000.0001) %MON forcing_qnet_mean            =   9.4052021052730E+01
(PID.TID 0000.0001) %MON forcing_qnet_sd              =   6.4930446087255E+01
(PID.TID 0000.0001) %MON forcing_qnet_del2            =   4.9654776482777E+00
(PID.TID 0000.0001) %MON forcing_qsw_max              =   0.0000000000000E+00
(PID.TID 0000.0001) %MON forcing_qsw_min              =  -6.4124076818247E+01
(PID.TID 0000.0001) %MON forcing_qsw_mean             =  -2.4462215859766E+01
(PID.TID 0000.0001) %MON forcing_qsw_sd               =   2.1208102095508E+01
(PID.TID 0000.0001) %MON forcing_qsw_del2             =   3.6821991910397E-01
(PID.TID 0000.0001) %MON forcing_empmr_max            =   5.3573722216533E-04
(PID.TID 0000.0001) %MON forcing_empmr_min            =  -8.3184865668634E-05
(PID.TID 0000.0001) %MON forcing_empmr_mean           =   3.6016340110823E-05
(PID.TID 0000.0001) %MON forcing_empmr_sd             =   1.0875998113279E-04
(PID.TID 0000.0001) %MON forcing_empmr_del2           =   8.2540130076544E-06
(PID.TID 0000.0001) %MON forcing_fu_max               =   6.2129514733338E-02
(PID.TID 0000.0001) %MON forcing_fu_min               =  -1.8275151763712E-02
(PID.TID 0000.0001) %MON forcing_fu_mean              =   2.3353883301995E-02
(PID.TID 0000.0001) %MON forcing_fu_sd                =   2.1131745252070E-02
(PID.TID 0000.0001) %MON forcing_fu_del2              =   5.5153053228429E-04
(PID.TID 0000.0001) %MON forcing_fv_max               =   1.4731768369677E-02
(PID.TID 0000.0001) %MON forcing_fv_min               =  -4.1779044935959E-02
(PID.TID 0000.0001) %MON forcing_fv_mean              =  -4.5936823287875E-03
(PID.TID 0000.0001) %MON forcing_fv_sd                =   1.1520038667348E-02
(PID.TID 0000.0001) %MON forcing_fv_del2              =   4.4116904630604E-04
(PID.TID 0000.0001) %MON trAdv_CFL_u_max              =   7.3555487040852E-04
(PID.TID 0000.0001) %MON trAdv_CFL_v_max              =   9.5075582326236E-04
(PID.TID 0000.0001) %MON trAdv_CFL_w_max              =   8.6216638104205E-04
(PID.TID 0000.0001) %MON advcfl_uvel_max              =   7.3503041685089E-04
(PID.TID 0000.0001) %MON advcfl_vvel_max              =   9.4260476565856E-04
(PID.TID 0000.0001) %MON advcfl_wvel_max              =   7.1362706911339E-04
(PID.TID 0000.0001) %MON advcfl_W_hf_max              =   8.3943833009755E-04
(PID.TID 0000.0001) %MON pe_b_mean                    =   9.8778500777240E-06
(PID.TID 0000.0001) %MON ke_max                       =   1.6985609947768E-03
(PID.TID 0000.0001) %MON ke_mean                      =   9.8546382635356E-06
(PID.TID 0000.0001) %MON ke_vol                       =   5.3036189546438E+15
(PID.TID 0000.0001) %MON vort_r_min                   =  -5.5660142819707E-07
(PID.TID 0000.0001) %MON vort_r_max                   =   2.7476181506572E-07
(PID.TID 0000.0001) %MON vort_a_mean                  =   1.2067277898473E-04
(PID.TID 0000.0001) %MON vort_a_sd                    =   8.8116913436121E-06
(PID.TID 0000.0001) %MON vort_p_mean                  =   1.7734843604582E-04
(PID.TID 0000.0001) %MON vort_p_sd                    =   1.1688612367024E-04
(PID.TID 0000.0001) %MON surfExpan_theta_mean         =  -2.1504222645930E-08
(PID.TID 0000.0001) %MON surfExpan_salt_mean          =   7.6889242204286E-09
(PID.TID 0000.0001) // =======================================================
(PID.TID 0000.0001) // End MONITOR dynamic field statistics
(PID.TID 0000.0001) // =======================================================
(PID.TID 0000.0001) // =======================================================
(PID.TID 0000.0001) // Begin MONITOR SEAICE statistics
(PID.TID 0000.0001) // =======================================================
(PID.TID 0000.0001) %MON seaice_tsnumber              =                     9
(PID.TID 0000.0001) %MON seaice_time_sec              =   3.2400000000000E+04
(PID.TID 0000.0001) %MON seaice_uice_max              =   1.2934398520168E-01
(PID.TID 0000.0001) %MON seaice_uice_min              =  -7.2200205814953E-02
(PID.TID 0000.0001) %MON seaice_uice_mean             =   5.1516986016172E-02
(PID.TID 0000.0001) %MON seaice_uice_sd               =   4.9172976690769E-02
(PID.TID 0000.0001) %MON seaice_uice_del2             =   1.4521553668212E-03
(PID.TID 0000.0001) %MON seaice_vice_max              =   4.5498212983447E-02
(PID.TID 0000.0001) %MON seaice_vice_min              =  -1.1133957406732E-01
(PID.TID 0000.0001) %MON seaice_vice_mean             =  -2.2650967222860E-02
(PID.TID 0000.0001) %MON seaice_vice_sd               =   3.7130495916813E-02
(PID.TID 0000.0001) %MON seaice_vice_del2             =   1.5085031286876E-03
(PID.TID 0000.0001) %MON seaice_area_max              =   9.9999900215382E-01
(PID.TID 0000.0001) %MON seaice_area_min              =   0.0000000000000E+00
(PID.TID 0000.0001) %MON seaice_area_mean             =   3.2803030896417E-01
(PID.TID 0000.0001) %MON seaice_area_sd               =   4.4520831851101E-01
(PID.TID 0000.0001) %MON seaice_area_del2             =   2.1103260740657E-02
(PID.TID 0000.0001) %MON seaice_heff_max              =   1.6298643721164E+00
(PID.TID 0000.0001) %MON seaice_heff_min              =   0.0000000000000E+00
(PID.TID 0000.0001) %MON seaice_heff_mean             =   1.8834531113735E-01
(PID.TID 0000.0001) %MON seaice_heff_sd               =   3.6010647145662E-01
(PID.TID 0000.0001) %MON seaice_heff_del2             =   9.4668482410419E-03
(PID.TID 0000.0001) %MON seaice_hsnow_max             =   4.0275866238480E-01
(PID.TID 0000.0001) %MON seaice_hsnow_min             =   0.0000000000000E+00
(PID.TID 0000.0001) %MON seaice_hsnow_mean            =   3.5353177230731E-02
(PID.TID 0000.0001) %MON seaice_hsnow_sd              =   7.6780113368199E-02
(PID.TID 0000.0001) %MON seaice_hsnow_del2            =   2.5149838900895E-03
(PID.TID 0000.0001) %MON seaice_sitracer01_max        =   2.8800000000000E+04
(PID.TID 0000.0001) %MON seaice_sitracer01_min        =   0.0000000000000E+00
(PID.TID 0000.0001) %MON seaice_sitracer01_mean       =   1.0616554737410E+04
(PID.TID 0000.0001) %MON seaice_sitracer01_sd         =   1.3860657881105E+04
(PID.TID 0000.0001) %MON seaice_sitracer01_del2       =   9.7489855603707E+02
(PID.TID 0000.0001) %MON seaice_sitracer02_max        =   1.0000000000000E+00
(PID.TID 0000.0001) %MON seaice_sitracer02_min        =   0.0000000000000E+00
(PID.TID 0000.0001) %MON seaice_sitracer02_mean       =   3.9880510261478E-01
(PID.TID 0000.0001) %MON seaice_sitracer02_sd         =   4.8965252245158E-01
(PID.TID 0000.0001) %MON seaice_sitracer02_del2       =   2.7487370837451E-02
(PID.TID 0000.0001) // =======================================================
(PID.TID 0000.0001) // End MONITOR SEAICE statistics
(PID.TID 0000.0001) // =======================================================
(PID.TID 0000.0001) // =======================================================
(PID.TID 0000.0001) // Begin MONITOR EXF statistics
(PID.TID 0000.0001) // =======================================================
(PID.TID 0000.0001) %MON exf_tsnumber                 =                     9
(PID.TID 0000.0001) %MON exf_time_sec                 =   3.2400000000000E+04
(PID.TID 0000.0001) %MON exf_ustress_max              =   6.2692722132055E-02
(PID.TID 0000.0001) %MON exf_ustress_min              =  -9.3861590098061E-02
(PID.TID 0000.0001) %MON exf_ustress_mean             =   2.1976707634414E-02
(PID.TID 0000.0001) %MON exf_ustress_sd               =   2.6601617517769E-02
(PID.TID 0000.0001) %MON exf_ustress_del2             =   7.1545247902409E-04
(PID.TID 0000.0001) %MON exf_vstress_max              =   5.3871430037644E-02
(PID.TID 0000.0001) %MON exf_vstress_min              =  -5.9358558445028E-02
(PID.TID 0000.0001) %MON exf_vstress_mean             =  -5.3081032616667E-03
(PID.TID 0000.0001) %MON exf_vstress_sd               =   1.5053367733656E-02
(PID.TID 0000.0001) %MON exf_vstress_del2             =   5.0325620000576E-04
(PID.TID 0000.0001) %MON exf_hflux_max                =   6.3322953458358E+02
(PID.TID 0000.0001) %MON exf_hflux_min                =   8.9536165954977E+01
(PID.TID 0000.0001) %MON exf_hflux_mean               =   2.1934228424152E+02
(PID.TID 0000.0001) %MON exf_hflux_sd                 =   1.3444599120201E+02
(PID.TID 0000.0001) %MON exf_hflux_del2               =   1.3775654295731E+01
(PID.TID 0000.0001) %MON exf_sflux_max                =   4.0763958514666E-08
(PID.TID 0000.0001) %MON exf_sflux_min                =  -8.3207132196981E-08
(PID.TID 0000.0001) %MON exf_sflux_mean               =  -1.5714355159761E-08
(PID.TID 0000.0001) %MON exf_sflux_sd                 =   2.4427621206923E-08
(PID.TID 0000.0001) %MON exf_sflux_del2               =   1.6792304151226E-09
(PID.TID 0000.0001) %MON exf_uwind_max                =   6.4689416142761E+00
(PID.TID 0000.0001) %MON exf_uwind_min                =  -6.8374791086697E+00
(PID.TID 0000.0001) %MON exf_uwind_mean               =   2.7707407047028E+00
(PID.TID 0000.0001) %MON exf_uwind_sd                 =   2.9925253914175E+00
(PID.TID 0000.0001) %MON exf_uwind_del2               =   8.0270246510978E-02
(PID.TID 0000.0001) %MON exf_vwind_max                =   3.9243398396695E+00
(PID.TID 0000.0001) %MON exf_vwind_min                =  -6.0115501997901E+00
(PID.TID 0000.0001) %MON exf_vwind_mean               =  -7.5533872343860E-01
(PID.TID 0000.0001) %MON exf_vwind_sd                 =   1.7303202080462E+00
(PID.TID 0000.0001) %MON exf_vwind_del2               =   4.8608798007434E-02
(PID.TID 0000.0001) %MON exf_wspeed_max               =   7.8836263063842E+00
(PID.TID 0000.0001) %MON exf_wspeed_min               =   4.5816671047235E-01
(PID.TID 0000.0001) %MON exf_wspeed_mean              =   4.1990483480424E+00
(PID.TID 0000.0001) %MON exf_wspeed_sd                =   1.6014836406520E+00
(PID.TID 0000.0001) %MON exf_wspeed_del2              =   2.3644598421351E-01
(PID.TID 0000.0001) %MON exf_atemp_max                =   2.8186740312420E+02
(PID.TID 0000.0001) %MON exf_atemp_min                =   2.3642158439511E+02
(PID.TID 0000.0001) %MON exf_atemp_mean               =   2.6390426107320E+02
(PID.TID 0000.0001) %MON exf_atemp_sd                 =   1.1996580029013E+01
(PID.TID 0000.0001) %MON exf_atemp_del2               =   7.0793932907625E-01
(PID.TID 0000.0001) %MON exf_aqh_max                  =   6.3169040759170E-03
(PID.TID 0000.0001) %MON exf_aqh_min                  =   1.6284581668843E-04
(PID.TID 0000.0001) %MON exf_aqh_mean                 =   2.4753197025473E-03
(PID.TID 0000.0001) %MON exf_aqh_sd                   =   1.4255808388841E-03
(PID.TID 0000.0001) %MON exf_aqh_del2                 =   7.6304693884960E-05
(PID.TID 0000.0001) %MON exf_lwflux_max               =   1.8569714180631E+02
(PID.TID 0000.0001) %MON exf_lwflux_min               =   6.7055644682435E+01
(PID.TID 0000.0001) %MON exf_lwflux_mean              =   9.7904397516596E+01
(PID.TID 0000.0001) %MON exf_lwflux_sd                =   3.1083711223214E+01
(PID.TID 0000.0001) %MON exf_lwflux_del2              =   4.6237209369846E+00
(PID.TID 0000.0001) %MON exf_evap_max                 =   4.7082201940385E-08
(PID.TID 0000.0001) %MON exf_evap_min                 =   5.4839611170728E-09
(PID.TID 0000.0001) %MON exf_evap_mean                =   2.0675627787015E-08
(PID.TID 0000.0001) %MON exf_evap_sd                  =   6.9567579160262E-09
(PID.TID 0000.0001) %MON exf_evap_del2                =   1.0650678099962E-09
(PID.TID 0000.0001) %MON exf_precip_max               =   1.0500009599131E-07
(PID.TID 0000.0001) %MON exf_precip_min               =   2.7238964868961E-10
(PID.TID 0000.0001) %MON exf_precip_mean              =   3.6389982946776E-08
(PID.TID 0000.0001) %MON exf_precip_sd                =   2.0582225664103E-08
(PID.TID 0000.0001) %MON exf_precip_del2              =   1.6859999992260E-09
(PID.TID 0000.0001) %MON exf_swflux_max               =  -8.1208301372215E-02
(PID.TID 0000.0001) %MON exf_swflux_min               =  -6.4142947168819E+01
(PID.TID 0000.0001) %MON exf_swflux_mean              =  -2.6548012965822E+01
(PID.TID 0000.0001) %MON exf_swflux_sd                =   1.9660442927159E+01
(PID.TID 0000.0001) %MON exf_swflux_del2              =   7.7421690409580E-01
(PID.TID 0000.0001) %MON exf_swdown_max               =   7.1269941298688E+01
(PID.TID 0000.0001) %MON exf_swdown_min               =   9.0231445969128E-02
(PID.TID 0000.0001) %MON exf_swdown_mean              =   2.9497792184247E+01
(PID.TID 0000.0001) %MON exf_swdown_sd                =   2.1844936585733E+01
(PID.TID 0000.0001) %MON exf_swdown_del2              =   8.6024100455089E-01
(PID.TID 0000.0001) %MON exf_lwdown_max               =   3.0560028326316E+02
(PID.TID 0000.0001) %MON exf_lwdown_min               =   1.1586173020035E+02
(PID.TID 0000.0001) %MON exf_lwdown_mean              =   2.2580795099755E+02
(PID.TID 0000.0001) %MON exf_lwdown_sd                =   4.6313195660870E+01
(PID.TID 0000.0001) %MON exf_lwdown_del2              =   8.1656101442334E+00
(PID.TID 0000.0001) %MON exf_climsss_max              =   3.5041993610194E+01
(PID.TID 0000.0001) %MON exf_climsss_min              =   3.0673147123368E+01
(PID.TID 0000.0001) %MON exf_climsss_mean             =   3.3464011602304E+01
(PID.TID 0000.0001) %MON exf_climsss_sd               =   1.0313181272348E+00
(PID.TID 0000.0001) %MON exf_climsss_del2             =   2.6967599003124E-02
(PID.TID 0000.0001) // =======================================================
(PID.TID 0000.0001) // End MONITOR EXF statistics
(PID.TID 0000.0001) // =======================================================
 SEAICE_LSR: Residual Initial ipass,Uice,Vice=    1  1.79491375E-03  9.38504423E-04
 SEAICE_LSR: Residual FrDrift U_fd,V_fd=  1.46894850E+01  5.09459087E+00
 SEAICE_LSR (ipass=   1) iters,dU,Resid=     6  7.28807467E-05  8.24935047E-05
 SEAICE_LSR (ipass=   1) iters,dV,Resid=     6  9.20699816E-05  1.85876277E-05
 SEAICE_LSR: Residual Initial ipass,Uice,Vice=    2  1.57088309E-03  8.01789478E-04
 SEAICE_LSR: Residual FrDrift U_fd,V_fd=  1.46618762E+01  5.08819118E+00
 SEAICE_LSR (ipass=   2) iters,dU,Resid=     4  8.66916781E-05  1.24053642E-04
 SEAICE_LSR (ipass=   2) iters,dV,Resid=     6  3.44357334E-05  1.06311168E-05
 cg2d: Sum(rhs),rhsMax =  -7.22095938598954E-10  3.92803780422867E-01
(PID.TID 0000.0001)      cg2d_init_res =   3.55604740201024E-03
(PID.TID 0000.0001)      cg2d_iters(min,last) =      -1      38
(PID.TID 0000.0001)      cg2d_last_res =   6.63118637436436E-13
(PID.TID 0000.0001) // =======================================================
(PID.TID 0000.0001) // Begin MONITOR dynamic field statistics
(PID.TID 0000.0001) // =======================================================
(PID.TID 0000.0001) %MON time_tsnumber                =                    10
(PID.TID 0000.0001) %MON time_secondsf                =   3.6000000000000E+04
(PID.TID 0000.0001) %MON dynstat_eta_max              =   1.1065323941226E-01
(PID.TID 0000.0001) %MON dynstat_eta_min              =  -1.2311849713053E-01
(PID.TID 0000.0001) %MON dynstat_eta_mean             =   6.4108860665501E-12
(PID.TID 0000.0001) %MON dynstat_eta_sd               =   5.4688099814750E-02
(PID.TID 0000.0001) %MON dynstat_eta_del2             =   2.4013546668126E-03
(PID.TID 0000.0001) %MON dynstat_uvel_max             =   2.9765618663175E-02
(PID.TID 0000.0001) %MON dynstat_uvel_min             =  -2.1221760276167E-02
(PID.TID 0000.0001) %MON dynstat_uvel_mean            =   6.9345123003019E-05
(PID.TID 0000.0001) %MON dynstat_uvel_sd              =   2.7520081721562E-03
(PID.TID 0000.0001) %MON dynstat_uvel_del2            =   1.1796096016633E-04
(PID.TID 0000.0001) %MON dynstat_vvel_max             =   2.7620472200222E-02
(PID.TID 0000.0001) %MON dynstat_vvel_min             =  -5.9446855461632E-02
(PID.TID 0000.0001) %MON dynstat_vvel_mean            =   2.0281529884382E-05
(PID.TID 0000.0001) %MON dynstat_vvel_sd              =   4.2080466306673E-03
(PID.TID 0000.0001) %MON dynstat_vvel_del2            =   1.5296760354436E-04
(PID.TID 0000.0001) %MON dynstat_wvel_max             =   1.0337328013325E-05
(PID.TID 0000.0001) %MON dynstat_wvel_min             =  -1.2845092795336E-05
(PID.TID 0000.0001) %MON dynstat_wvel_mean            =  -6.1787515087784E-23
(PID.TID 0000.0001) %MON dynstat_wvel_sd              =   2.9722451680574E-06
(PID.TID 0000.0001) %MON dynstat_wvel_del2            =   6.0191981085386E-08
(PID.TID 0000.0001) %MON dynstat_theta_max            =   1.2478103764824E+01
(PID.TID 0000.0001) %MON dynstat_theta_min            =  -1.8560308240946E+00
(PID.TID 0000.0001) %MON dynstat_theta_mean           =   3.0786418672947E+00
(PID.TID 0000.0001) %MON dynstat_theta_sd             =   1.4432294057525E+00
(PID.TID 0000.0001) %MON dynstat_theta_del2           =   1.7466826444765E-02
(PID.TID 0000.0001) %MON dynstat_salt_max             =   3.5292670272018E+01
(PID.TID 0000.0001) %MON dynstat_salt_min             =   3.0708137890873E+01
(PID.TID 0000.0001) %MON dynstat_salt_mean            =   3.4757140930546E+01
(PID.TID 0000.0001) %MON dynstat_salt_sd              =   4.3049239439402E-01
(PID.TID 0000.0001) %MON dynstat_salt_del2            =   3.9777362583442E-03
(PID.TID 0000.0001) %MON forcing_qnet_max             =   2.7441658158186E+02
(PID.TID 0000.0001) %MON forcing_qnet_min             =  -1.9338385913243E+00
(PID.TID 0000.0001) %MON forcing_qnet_mean            =   9.4545455612327E+01
(PID.TID 0000.0001) %MON forcing_qnet_sd              =   6.4448764034322E+01
(PID.TID 0000.0001) %MON forcing_qnet_del2            =   4.9936018014292E+00
(PID.TID 0000.0001) %MON forcing_qsw_max              =  -1.3653390857792E-09
(PID.TID 0000.0001) %MON forcing_qsw_min              =  -6.4142947168819E+01
(PID.TID 0000.0001) %MON forcing_qsw_mean             =  -2.4470131238549E+01
(PID.TID 0000.0001) %MON forcing_qsw_sd               =   2.1212134949103E+01
(PID.TID 0000.0001) %MON forcing_qsw_del2             =   3.6849913697116E-01
(PID.TID 0000.0001) %MON forcing_empmr_max            =   5.2733591761407E-04
(PID.TID 0000.0001) %MON forcing_empmr_min            =  -8.3190490770541E-05
(PID.TID 0000.0001) %MON forcing_empmr_mean           =   3.4463208443572E-05
(PID.TID 0000.0001) %MON forcing_empmr_sd             =   1.0657285598412E-04
(PID.TID 0000.0001) %MON forcing_empmr_del2           =   8.5463370740536E-06
(PID.TID 0000.0001) %MON forcing_fu_max               =   6.2139576528320E-02
(PID.TID 0000.0001) %MON forcing_fu_min               =  -1.8292776598592E-02
(PID.TID 0000.0001) %MON forcing_fu_mean              =   2.3361967263617E-02
(PID.TID 0000.0001) %MON forcing_fu_sd                =   2.1134000177514E-02
(PID.TID 0000.0001) %MON forcing_fu_del2              =   5.5175033631256E-04
(PID.TID 0000.0001) %MON forcing_fv_max               =   1.4735450493421E-02
(PID.TID 0000.0001) %MON forcing_fv_min               =  -4.1764990522376E-02
(PID.TID 0000.0001) %MON forcing_fv_mean              =  -4.5841505951816E-03
(PID.TID 0000.0001) %MON forcing_fv_sd                =   1.1522042013206E-02
(PID.TID 0000.0001) %MON forcing_fv_del2              =   4.4199399127582E-04
(PID.TID 0000.0001) %MON trAdv_CFL_u_max              =   7.3506773535531E-04
(PID.TID 0000.0001) %MON trAdv_CFL_v_max              =   9.6988904071569E-04
(PID.TID 0000.0001) %MON trAdv_CFL_w_max              =   8.3943833009755E-04
(PID.TID 0000.0001) %MON advcfl_uvel_max              =   7.5669727840738E-04
(PID.TID 0000.0001) %MON advcfl_vvel_max              =   9.6231314737032E-04
(PID.TID 0000.0001) %MON advcfl_wvel_max              =   7.2039559548360E-04
(PID.TID 0000.0001) %MON advcfl_W_hf_max              =   8.4928369198609E-04
(PID.TID 0000.0001) %MON pe_b_mean                    =   9.8595821265036E-06
(PID.TID 0000.0001) %MON ke_max                       =   1.7725130880152E-03
(PID.TID 0000.0001) %MON ke_mean                      =   9.8870300231723E-06
(PID.TID 0000.0001) %MON ke_vol                       =   5.3036189546438E+15
(PID.TID 0000.0001) %MON vort_r_min                   =  -5.6725735886149E-07
(PID.TID 0000.0001) %MON vort_r_max                   =   2.7945278814374E-07
(PID.TID 0000.0001) %MON vort_a_mean                  =   1.2067277900147E-04
(PID.TID 0000.0001) %MON vort_a_sd                    =   8.8116911862208E-06
(PID.TID 0000.0001) %MON vort_p_mean                  =   1.7734843607043E-04
(PID.TID 0000.0001) %MON vort_p_sd                    =   1.1688614398377E-04
(PID.TID 0000.0001) %MON surfExpan_theta_mean         =  -1.9144391534960E-08
(PID.TID 0000.0001) %MON surfExpan_salt_mean          =   7.4943606991743E-09
(PID.TID 0000.0001) // =======================================================
(PID.TID 0000.0001) // End MONITOR dynamic field statistics
(PID.TID 0000.0001) // =======================================================
(PID.TID 0000.0001) // =======================================================
(PID.TID 0000.0001) // Begin MONITOR SEAICE statistics
(PID.TID 0000.0001) // =======================================================
(PID.TID 0000.0001) %MON seaice_tsnumber              =                    10
(PID.TID 0000.0001) %MON seaice_time_sec              =   3.6000000000000E+04
(PID.TID 0000.0001) %MON seaice_uice_max              =   1.2938383979767E-01
(PID.TID 0000.0001) %MON seaice_uice_min              =  -7.3203691199761E-02
(PID.TID 0000.0001) %MON seaice_uice_mean             =   5.1536601984639E-02
(PID.TID 0000.0001) %MON seaice_uice_sd               =   4.9234426816003E-02
(PID.TID 0000.0001) %MON seaice_uice_del2             =   1.4619370275080E-03
(PID.TID 0000.0001) %MON seaice_vice_max              =   4.6248784642339E-02
(PID.TID 0000.0001) %MON seaice_vice_min              =  -1.1249499841493E-01
(PID.TID 0000.0001) %MON seaice_vice_mean             =  -2.2890297896515E-02
(PID.TID 0000.0001) %MON seaice_vice_sd               =   3.7531048012993E-02
(PID.TID 0000.0001) %MON seaice_vice_del2             =   1.5288872239029E-03
(PID.TID 0000.0001) %MON seaice_area_max              =   9.9999887401983E-01
(PID.TID 0000.0001) %MON seaice_area_min              =   0.0000000000000E+00
(PID.TID 0000.0001) %MON seaice_area_mean             =   3.2802578848771E-01
(PID.TID 0000.0001) %MON seaice_area_sd               =   4.4509879505665E-01
(PID.TID 0000.0001) %MON seaice_area_del2             =   2.1083991725498E-02
(PID.TID 0000.0001) %MON seaice_heff_max              =   1.6302411320723E+00
(PID.TID 0000.0001) %MON seaice_heff_min              =   0.0000000000000E+00
(PID.TID 0000.0001) %MON seaice_heff_mean             =   1.8855952944758E-01
(PID.TID 0000.0001) %MON seaice_heff_sd               =   3.6023697337608E-01
(PID.TID 0000.0001) %MON seaice_heff_del2             =   9.4727763374354E-03
(PID.TID 0000.0001) %MON seaice_hsnow_max             =   4.0285418991884E-01
(PID.TID 0000.0001) %MON seaice_hsnow_min             =   0.0000000000000E+00
(PID.TID 0000.0001) %MON seaice_hsnow_mean            =   3.5403856925210E-02
(PID.TID 0000.0001) %MON seaice_hsnow_sd              =   7.6820727719479E-02
(PID.TID 0000.0001) %MON seaice_hsnow_del2            =   2.5180866949859E-03
(PID.TID 0000.0001) %MON seaice_sitracer01_max        =   3.2400000000000E+04
(PID.TID 0000.0001) %MON seaice_sitracer01_min        =   0.0000000000000E+00
(PID.TID 0000.0001) %MON seaice_sitracer01_mean       =   1.1939931390367E+04
(PID.TID 0000.0001) %MON seaice_sitracer01_sd         =   1.5588979717359E+04
(PID.TID 0000.0001) %MON seaice_sitracer01_del2       =   1.0965087303332E+03
(PID.TID 0000.0001) %MON seaice_sitracer02_max        =   1.0000000000000E+00
(PID.TID 0000.0001) %MON seaice_sitracer02_min        =   0.0000000000000E+00
(PID.TID 0000.0001) %MON seaice_sitracer02_mean       =   3.9880510261478E-01
(PID.TID 0000.0001) %MON seaice_sitracer02_sd         =   4.8965252245158E-01
(PID.TID 0000.0001) %MON seaice_sitracer02_del2       =   2.7487370837451E-02
(PID.TID 0000.0001) // =======================================================
(PID.TID 0000.0001) // End MONITOR SEAICE statistics
(PID.TID 0000.0001) // =======================================================
 Computing Diagnostic #    251  SIarea       Counter:       9   Parms: SM      M1      
 Computing Diagnostic #    254  SIheff       Counter:       9   Parms: SM      M1      
 Computing Diagnostic #    256  SIhsnow      Counter:       9   Parms: SM      M1      
 Computing Diagnostic #    272  SIuice       Counter:       9   Parms: UU      M1      
           Vector  Mate for  SIuice       Diagnostic #    273  SIvice   exists 
 Computing Diagnostic #    273  SIvice       Counter:       9   Parms: VV      M1      
           Vector  Mate for  SIvice       Diagnostic #    272  SIuice   exists 
 Computing Diagnostic #     76  MXLDEPTH     Counter:       9   Parms: SM      M1      
 Computing Diagnostic #    216  KPPhbl       Counter:       9   Parms: SM P     1      
 Computing Diagnostic #    215  KPPghatK     Counter:       9   Parms: SM P    LR      
(PID.TID 0000.0001) %CHECKPOINT        10 0000000010
(PID.TID 0000.0001)   Seconds in section "ALL                    [THE_MODEL_MAIN]":
(PID.TID 0000.0001)           User time:   2.6272949273698032
(PID.TID 0000.0001)         System time:   7.2241998976096511E-002
(PID.TID 0000.0001)     Wall clock time:   2.7030532360076904
(PID.TID 0000.0001)          No. starts:           1
(PID.TID 0000.0001)           No. stops:           1
(PID.TID 0000.0001)   Seconds in section "INITIALISE_FIXED       [THE_MODEL_MAIN]":
(PID.TID 0000.0001)           User time:  0.31997598893940449
(PID.TID 0000.0001)         System time:   2.3985000094398856E-002
(PID.TID 0000.0001)     Wall clock time:  0.34651899337768555
(PID.TID 0000.0001)          No. starts:           1
(PID.TID 0000.0001)           No. stops:           1
(PID.TID 0000.0001)   Seconds in section "THE_MAIN_LOOP          [THE_MODEL_MAIN]":
(PID.TID 0000.0001)           User time:   2.3023281097412109
(PID.TID 0000.0001)         System time:   4.8247998580336571E-002
(PID.TID 0000.0001)     Wall clock time:   2.3515429496765137
(PID.TID 0000.0001)          No. starts:           1
(PID.TID 0000.0001)           No. stops:           1
(PID.TID 0000.0001)   Seconds in section "INITIALISE_VARIA    [THE_MAIN_LOOP]":
(PID.TID 0000.0001)           User time:   8.9700996875762939E-002
(PID.TID 0000.0001)         System time:   1.2109998613595963E-002
(PID.TID 0000.0001)     Wall clock time:  0.10182380676269531
(PID.TID 0000.0001)          No. starts:           1
(PID.TID 0000.0001)           No. stops:           1
(PID.TID 0000.0001)   Seconds in section "MAIN LOOP           [THE_MAIN_LOOP]":
(PID.TID 0000.0001)           User time:   2.2126039564609528
(PID.TID 0000.0001)         System time:   3.6135997623205185E-002
(PID.TID 0000.0001)     Wall clock time:   2.2496969699859619
(PID.TID 0000.0001)          No. starts:           1
(PID.TID 0000.0001)           No. stops:           1
(PID.TID 0000.0001)   Seconds in section "MAIN_DO_LOOP        [THE_MAIN_LOOP]":
(PID.TID 0000.0001)           User time:   2.2125321626663208
(PID.TID 0000.0001)         System time:   3.6134999245405197E-002
(PID.TID 0000.0001)     Wall clock time:   2.2496256828308105
(PID.TID 0000.0001)          No. starts:           9
(PID.TID 0000.0001)           No. stops:           9
(PID.TID 0000.0001)   Seconds in section "FORWARD_STEP        [MAIN_DO_LOOP]":
(PID.TID 0000.0001)           User time:   2.2123929262161255
(PID.TID 0000.0001)         System time:   3.6132998764514923E-002
(PID.TID 0000.0001)     Wall clock time:   2.2494850158691406
(PID.TID 0000.0001)          No. starts:           9
(PID.TID 0000.0001)           No. stops:           9
(PID.TID 0000.0001)   Seconds in section "DO_STATEVARS_DIAGS  [FORWARD_STEP]":
(PID.TID 0000.0001)           User time:   7.4213743209838867E-004
(PID.TID 0000.0001)         System time:   6.9998204708099365E-006
(PID.TID 0000.0001)     Wall clock time:   7.5292587280273438E-004
(PID.TID 0000.0001)          No. starts:          18
(PID.TID 0000.0001)           No. stops:          18
(PID.TID 0000.0001)   Seconds in section "LOAD_FIELDS_DRIVER  [FORWARD_STEP]":
(PID.TID 0000.0001)           User time:   1.6640156507492065E-002
(PID.TID 0000.0001)         System time:   3.2419972121715546E-003
(PID.TID 0000.0001)     Wall clock time:   1.9884109497070312E-002
(PID.TID 0000.0001)          No. starts:           9
(PID.TID 0000.0001)           No. stops:           9
(PID.TID 0000.0001)   Seconds in section "EXF_GETFORCING     [LOAD_FLDS_DRIVER]":
(PID.TID 0000.0001)           User time:   1.6346156597137451E-002
(PID.TID 0000.0001)         System time:   3.2050013542175293E-003
(PID.TID 0000.0001)     Wall clock time:   1.9564867019653320E-002
(PID.TID 0000.0001)          No. starts:           9
(PID.TID 0000.0001)           No. stops:           9
(PID.TID 0000.0001)   Seconds in section "EXTERNAL_FLDS_LOAD [LOAD_FLDS_DRIVER]":
(PID.TID 0000.0001)           User time:   8.7082386016845703E-005
(PID.TID 0000.0001)         System time:   1.8998980522155762E-005
(PID.TID 0000.0001)     Wall clock time:   1.0752677917480469E-004
(PID.TID 0000.0001)          No. starts:           9
(PID.TID 0000.0001)           No. stops:           9
(PID.TID 0000.0001)   Seconds in section "DO_ATMOSPHERIC_PHYS [FORWARD_STEP]":
(PID.TID 0000.0001)           User time:   7.1763992309570312E-005
(PID.TID 0000.0001)         System time:   8.0019235610961914E-006
(PID.TID 0000.0001)     Wall clock time:   7.9154968261718750E-005
(PID.TID 0000.0001)          No. starts:           9
(PID.TID 0000.0001)           No. stops:           9
(PID.TID 0000.0001)   Seconds in section "DO_OCEANIC_PHYS     [FORWARD_STEP]":
(PID.TID 0000.0001)           User time:  0.64148396253585815
(PID.TID 0000.0001)         System time:   9.5099955797195435E-004
(PID.TID 0000.0001)     Wall clock time:  0.64244818687438965
(PID.TID 0000.0001)          No. starts:           9
(PID.TID 0000.0001)           No. stops:           9
(PID.TID 0000.0001)   Seconds in section "SEAICE_MODEL    [DO_OCEANIC_PHYS]":
(PID.TID 0000.0001)           User time:  0.11256515979766846
(PID.TID 0000.0001)         System time:   7.4800103902816772E-004
(PID.TID 0000.0001)     Wall clock time:  0.11331915855407715
(PID.TID 0000.0001)          No. starts:           9
(PID.TID 0000.0001)           No. stops:           9
(PID.TID 0000.0001)   Seconds in section "SEAICE_DYNSOLVER   [SEAICE_MODEL]":
(PID.TID 0000.0001)           User time:   7.3818147182464600E-002
(PID.TID 0000.0001)         System time:   6.5400078892707825E-004
(PID.TID 0000.0001)     Wall clock time:   7.4479103088378906E-002
(PID.TID 0000.0001)          No. starts:           9
(PID.TID 0000.0001)           No. stops:           9
(PID.TID 0000.0001)   Seconds in section "KPP_CALC [DO_OCEANIC_PHYS]":
(PID.TID 0000.0001)           User time:  0.39201381802558899
(PID.TID 0000.0001)         System time:   1.7099827527999878E-004
(PID.TID 0000.0001)     Wall clock time:  0.39220309257507324
(PID.TID 0000.0001)          No. starts:          36
(PID.TID 0000.0001)           No. stops:          36
(PID.TID 0000.0001)   Seconds in section "THERMODYNAMICS      [FORWARD_STEP]":
(PID.TID 0000.0001)           User time:  0.37007710337638855
(PID.TID 0000.0001)         System time:   9.0003013610839844E-006
(PID.TID 0000.0001)     Wall clock time:  0.37012648582458496
(PID.TID 0000.0001)          No. starts:           9
(PID.TID 0000.0001)           No. stops:           9
(PID.TID 0000.0001)   Seconds in section "DYNAMICS            [FORWARD_STEP]":
(PID.TID 0000.0001)           User time:  0.47776097059249878
(PID.TID 0000.0001)         System time:   2.0004808902740479E-006
(PID.TID 0000.0001)     Wall clock time:  0.47868776321411133
(PID.TID 0000.0001)          No. starts:           9
(PID.TID 0000.0001)           No. stops:           9
(PID.TID 0000.0001)   Seconds in section "SOLVE_FOR_PRESSURE  [FORWARD_STEP]":
(PID.TID 0000.0001)           User time:   4.1927278041839600E-002
(PID.TID 0000.0001)         System time:   2.2999942302703857E-005
(PID.TID 0000.0001)     Wall clock time:   4.1959762573242188E-002
(PID.TID 0000.0001)          No. starts:           9
(PID.TID 0000.0001)           No. stops:           9
(PID.TID 0000.0001)   Seconds in section "MOM_CORRECTION_STEP [FORWARD_STEP]":
(PID.TID 0000.0001)           User time:   1.5511810779571533E-002
(PID.TID 0000.0001)         System time:   3.6001205444335938E-005
(PID.TID 0000.0001)     Wall clock time:   1.5564918518066406E-002
(PID.TID 0000.0001)          No. starts:           9
(PID.TID 0000.0001)           No. stops:           9
(PID.TID 0000.0001)   Seconds in section "INTEGR_CONTINUITY   [FORWARD_STEP]":
(PID.TID 0000.0001)           User time:   8.6231827735900879E-003
(PID.TID 0000.0001)         System time:   2.0004808902740479E-006
(PID.TID 0000.0001)     Wall clock time:   8.6281299591064453E-003
(PID.TID 0000.0001)          No. starts:           9
(PID.TID 0000.0001)           No. stops:           9
(PID.TID 0000.0001)   Seconds in section "TRC_CORRECTION_STEP [FORWARD_STEP]":
(PID.TID 0000.0001)           User time:   6.6101551055908203E-005
(PID.TID 0000.0001)         System time:   9.9837779998779297E-007
(PID.TID 0000.0001)     Wall clock time:   6.6757202148437500E-005
(PID.TID 0000.0001)          No. starts:           9
(PID.TID 0000.0001)           No. stops:           9
(PID.TID 0000.0001)   Seconds in section "BLOCKING_EXCHANGES  [FORWARD_STEP]":
(PID.TID 0000.0001)           User time:   3.0904054641723633E-002
(PID.TID 0000.0001)         System time:   0.0000000000000000
(PID.TID 0000.0001)     Wall clock time:   3.0911922454833984E-002
(PID.TID 0000.0001)          No. starts:           9
(PID.TID 0000.0001)           No. stops:           9
(PID.TID 0000.0001)   Seconds in section "DO_STATEVARS_TAVE   [FORWARD_STEP]":
(PID.TID 0000.0001)           User time:   3.3601105213165283E-002
(PID.TID 0000.0001)         System time:   8.0019235610961914E-006
(PID.TID 0000.0001)     Wall clock time:   3.3637046813964844E-002
(PID.TID 0000.0001)          No. starts:           9
(PID.TID 0000.0001)           No. stops:           9
(PID.TID 0000.0001)   Seconds in section "MONITOR             [FORWARD_STEP]":
(PID.TID 0000.0001)           User time:   5.8057904243469238E-002
(PID.TID 0000.0001)         System time:   3.8960017263889313E-003
(PID.TID 0000.0001)     Wall clock time:   6.1966419219970703E-002
(PID.TID 0000.0001)          No. starts:           9
(PID.TID 0000.0001)           No. stops:           9
(PID.TID 0000.0001)   Seconds in section "DO_THE_MODEL_IO     [FORWARD_STEP]":
(PID.TID 0000.0001)           User time:  0.50864398479461670
(PID.TID 0000.0001)         System time:   2.7908001095056534E-002
(PID.TID 0000.0001)     Wall clock time:  0.53659057617187500
(PID.TID 0000.0001)          No. starts:           9
(PID.TID 0000.0001)           No. stops:           9
(PID.TID 0000.0001)   Seconds in section "DO_WRITE_PICKUP     [FORWARD_STEP]":
(PID.TID 0000.0001)           User time:   6.9756507873535156E-003
(PID.TID 0000.0001)         System time:   0.0000000000000000
(PID.TID 0000.0001)     Wall clock time:   6.9768428802490234E-003
(PID.TID 0000.0001)          No. starts:           9
(PID.TID 0000.0001)           No. stops:           9
(PID.TID 0000.0001) // ======================================================
(PID.TID 0000.0001) // Tile <-> Tile communication statistics
(PID.TID 0000.0001) // ======================================================
(PID.TID 0000.0001) // o Tile number: 000001
(PID.TID 0000.0001) //         No. X exchanges =              0
(PID.TID 0000.0001) //            Max. X spins =              0
(PID.TID 0000.0001) //            Min. X spins =     1000000000
(PID.TID 0000.0001) //          Total. X spins =              0
(PID.TID 0000.0001) //            Avg. X spins =       0.00E+00
(PID.TID 0000.0001) //         No. Y exchanges =              0
(PID.TID 0000.0001) //            Max. Y spins =              0
(PID.TID 0000.0001) //            Min. Y spins =     1000000000
(PID.TID 0000.0001) //          Total. Y spins =              0
(PID.TID 0000.0001) //            Avg. Y spins =       0.00E+00
(PID.TID 0000.0001) // o Tile number: 000002
(PID.TID 0000.0001) //         No. X exchanges =              0
(PID.TID 0000.0001) //            Max. X spins =              0
(PID.TID 0000.0001) //            Min. X spins =     1000000000
(PID.TID 0000.0001) //          Total. X spins =              0
(PID.TID 0000.0001) //            Avg. X spins =       0.00E+00
(PID.TID 0000.0001) //         No. Y exchanges =              0
(PID.TID 0000.0001) //            Max. Y spins =              0
(PID.TID 0000.0001) //            Min. Y spins =     1000000000
(PID.TID 0000.0001) //          Total. Y spins =              0
(PID.TID 0000.0001) //            Avg. Y spins =       0.00E+00
(PID.TID 0000.0001) // o Tile number: 000003
(PID.TID 0000.0001) //         No. X exchanges =              0
(PID.TID 0000.0001) //            Max. X spins =              0
(PID.TID 0000.0001) //            Min. X spins =     1000000000
(PID.TID 0000.0001) //          Total. X spins =              0
(PID.TID 0000.0001) //            Avg. X spins =       0.00E+00
(PID.TID 0000.0001) //         No. Y exchanges =              0
(PID.TID 0000.0001) //            Max. Y spins =              0
(PID.TID 0000.0001) //            Min. Y spins =     1000000000
(PID.TID 0000.0001) //          Total. Y spins =              0
(PID.TID 0000.0001) //            Avg. Y spins =       0.00E+00
(PID.TID 0000.0001) // o Tile number: 000004
(PID.TID 0000.0001) //         No. X exchanges =              0
(PID.TID 0000.0001) //            Max. X spins =              0
(PID.TID 0000.0001) //            Min. X spins =     1000000000
(PID.TID 0000.0001) //          Total. X spins =              0
(PID.TID 0000.0001) //            Avg. X spins =       0.00E+00
(PID.TID 0000.0001) //         No. Y exchanges =              0
(PID.TID 0000.0001) //            Max. Y spins =              0
(PID.TID 0000.0001) //            Min. Y spins =     1000000000
(PID.TID 0000.0001) //          Total. Y spins =              0
(PID.TID 0000.0001) //            Avg. Y spins =       0.00E+00
(PID.TID 0000.0001) // o Thread number: 000001
(PID.TID 0000.0001) //            No. barriers =           9370
(PID.TID 0000.0001) //      Max. barrier spins =              1
(PID.TID 0000.0001) //      Min. barrier spins =              1
(PID.TID 0000.0001) //     Total barrier spins =           9370
(PID.TID 0000.0001) //      Avg. barrier spins =       1.00E+00
PROGRAM MAIN: Execution ended Normally
