(PID.TID 0000.0001) 
(PID.TID 0000.0001) // ======================================================
(PID.TID 0000.0001) //                      MITgcm UV
(PID.TID 0000.0001) //                      =========
(PID.TID 0000.0001) // ======================================================
(PID.TID 0000.0001) // execution environment starting up...
(PID.TID 0000.0001) 
(PID.TID 0000.0001) // MITgcmUV version:  checkpoint65z
(PID.TID 0000.0001) // Build user:        jmc
(PID.TID 0000.0001) // Build host:        baudelaire
(PID.TID 0000.0001) // Build date:        Thu Oct  6 12:33:59 EDT 2016
(PID.TID 0000.0001) 
(PID.TID 0000.0001) // =======================================================
(PID.TID 0000.0001) // Execution Environment parameter file "eedata"
(PID.TID 0000.0001) // =======================================================
(PID.TID 0000.0001) ># Example "eedata" file
(PID.TID 0000.0001) ># Lines beginning "#" are comments
(PID.TID 0000.0001) ># nTx - No. threads per process in X
(PID.TID 0000.0001) ># nTy - No. threads per process in Y
(PID.TID 0000.0001) > &EEPARMS
(PID.TID 0000.0001) > nTx=1,
(PID.TID 0000.0001) > nTy=1,
(PID.TID 0000.0001) > /
(PID.TID 0000.0001) ># Note: Some systems use & as the
(PID.TID 0000.0001) ># namelist terminator. Other systems
(PID.TID 0000.0001) ># use a / character (as shown here).
(PID.TID 0000.0001) 
(PID.TID 0000.0001) // =======================================================
(PID.TID 0000.0001) // Computational Grid Specification ( see files "SIZE.h" )
(PID.TID 0000.0001) //                                  ( and "eedata"       )
(PID.TID 0000.0001) // =======================================================
(PID.TID 0000.0001)      nPx =    1 ; /* No. processes in X */
(PID.TID 0000.0001)      nPy =    1 ; /* No. processes in Y */
(PID.TID 0000.0001)      nSx =    2 ; /* No. tiles in X per process */
(PID.TID 0000.0001)      nSy =    2 ; /* No. tiles in Y per process */
(PID.TID 0000.0001)      sNx =   10 ; /* Tile size in X */
(PID.TID 0000.0001)      sNy =    8 ; /* Tile size in Y */
(PID.TID 0000.0001)      OLx =    4 ; /* Tile overlap distance in X */
(PID.TID 0000.0001)      OLy =    4 ; /* Tile overlap distance in Y */
(PID.TID 0000.0001)      nTx =    1 ; /* No. threads in X per process */
(PID.TID 0000.0001)      nTy =    1 ; /* No. threads in Y per process */
(PID.TID 0000.0001)       Nr =   23 ; /* No. levels in the vertical   */
(PID.TID 0000.0001)       Nx =   20 ; /* Total domain size in X ( = nPx*nSx*sNx ) */
(PID.TID 0000.0001)       Ny =   16 ; /* Total domain size in Y ( = nPy*nSy*sNy ) */
(PID.TID 0000.0001)   nTiles =    4 ; /* Total no. tiles per process ( = nSx*nSy ) */
(PID.TID 0000.0001)   nProcs =    1 ; /* Total no. processes ( = nPx*nPy ) */
(PID.TID 0000.0001) nThreads =    1 ; /* Total no. threads per process ( = nTx*nTy ) */
(PID.TID 0000.0001) usingMPI =    F ; /* Flag used to control whether MPI is in use */
(PID.TID 0000.0001)                   /*  note: To execute a program with MPI calls */
(PID.TID 0000.0001)                   /*  it must be launched appropriately e.g     */
(PID.TID 0000.0001)                   /*  "mpirun -np 64 ......"                    */
(PID.TID 0000.0001) useCoupler=    F ;/* Flag used to control communications with   */
(PID.TID 0000.0001)                   /*  other model components, through a coupler */
(PID.TID 0000.0001) debugMode =    F ; /* print debug msg. (sequence of S/R calls)  */
(PID.TID 0000.0001) printMapIncludesZeros=    F ; /* print zeros in Std.Output maps */
(PID.TID 0000.0001) maxLengthPrt1D=   65 /* maxLength of 1D array printed to StdOut */
(PID.TID 0000.0001) 
(PID.TID 0000.0001) // ======================================================
(PID.TID 0000.0001) // Mapping of tiles to threads
(PID.TID 0000.0001) // ======================================================
(PID.TID 0000.0001) // -o- Thread   1, tiles (   1:   2,   1:   2)
(PID.TID 0000.0001) 
(PID.TID 0000.0001) // ======================================================
(PID.TID 0000.0001) // Tile <-> Tile connectvity table
(PID.TID 0000.0001) // ======================================================
(PID.TID 0000.0001) // Tile number: 000001 (process no. = 000000)
(PID.TID 0000.0001) //        WEST: Tile = 000002, Process = 000000, Comm = put
(PID.TID 0000.0001) //                bi = 000002, bj = 000001
(PID.TID 0000.0001) //        EAST: Tile = 000002, Process = 000000, Comm = put
(PID.TID 0000.0001) //                bi = 000002, bj = 000001
(PID.TID 0000.0001) //       SOUTH: Tile = 000003, Process = 000000, Comm = put
(PID.TID 0000.0001) //                bi = 000001, bj = 000002
(PID.TID 0000.0001) //       NORTH: Tile = 000003, Process = 000000, Comm = put
(PID.TID 0000.0001) //                bi = 000001, bj = 000002
(PID.TID 0000.0001) // Tile number: 000002 (process no. = 000000)
(PID.TID 0000.0001) //        WEST: Tile = 000001, Process = 000000, Comm = put
(PID.TID 0000.0001) //                bi = 000001, bj = 000001
(PID.TID 0000.0001) //        EAST: Tile = 000001, Process = 000000, Comm = put
(PID.TID 0000.0001) //                bi = 000001, bj = 000001
(PID.TID 0000.0001) //       SOUTH: Tile = 000004, Process = 000000, Comm = put
(PID.TID 0000.0001) //                bi = 000002, bj = 000002
(PID.TID 0000.0001) //       NORTH: Tile = 000004, Process = 000000, Comm = put
(PID.TID 0000.0001) //                bi = 000002, bj = 000002
(PID.TID 0000.0001) // Tile number: 000003 (process no. = 000000)
(PID.TID 0000.0001) //        WEST: Tile = 000004, Process = 000000, Comm = put
(PID.TID 0000.0001) //                bi = 000002, bj = 000002
(PID.TID 0000.0001) //        EAST: Tile = 000004, Process = 000000, Comm = put
(PID.TID 0000.0001) //                bi = 000002, bj = 000002
(PID.TID 0000.0001) //       SOUTH: Tile = 000001, Process = 000000, Comm = put
(PID.TID 0000.0001) //                bi = 000001, bj = 000001
(PID.TID 0000.0001) //       NORTH: Tile = 000001, Process = 000000, Comm = put
(PID.TID 0000.0001) //                bi = 000001, bj = 000001
(PID.TID 0000.0001) // Tile number: 000004 (process no. = 000000)
(PID.TID 0000.0001) //        WEST: Tile = 000003, Process = 000000, Comm = put
(PID.TID 0000.0001) //                bi = 000001, bj = 000002
(PID.TID 0000.0001) //        EAST: Tile = 000003, Process = 000000, Comm = put
(PID.TID 0000.0001) //                bi = 000001, bj = 000002
(PID.TID 0000.0001) //       SOUTH: Tile = 000002, Process = 000000, Comm = put
(PID.TID 0000.0001) //                bi = 000002, bj = 000001
(PID.TID 0000.0001) //       NORTH: Tile = 000002, Process = 000000, Comm = put
(PID.TID 0000.0001) //                bi = 000002, bj = 000001
(PID.TID 0000.0001) 
(PID.TID 0000.0001)  INI_PARMS: opening model parameter file "data"
(PID.TID 0000.0001)  OPEN_COPY_DATA_FILE: opening file data
(PID.TID 0000.0001) // =======================================================
(PID.TID 0000.0001) // Parameter file "data"
(PID.TID 0000.0001) // =======================================================
(PID.TID 0000.0001) ># ====================
(PID.TID 0000.0001) ># | Model parameters |
(PID.TID 0000.0001) ># ====================
(PID.TID 0000.0001) >#
(PID.TID 0000.0001) ># Continuous equation parameters
(PID.TID 0000.0001) >#
(PID.TID 0000.0001) >#   tRef            - Reference vertical potential temperature          (deg C)
(PID.TID 0000.0001) >#   sRef            - Reference vertical salinity                         (PSU)
(PID.TID 0000.0001) >#   viscAh          - Horizontal eddy viscosity coefficient             (m^2/s)
(PID.TID 0000.0001) >#   viscAz          - Vertical eddy viscosity coefficient               (m^2/s)
(PID.TID 0000.0001) >#   diffKhT         - Horizontal temperature diffusivity                (m^2/s)
(PID.TID 0000.0001) >#   diffKzT         - Vertical temperature diffusivity                  (m^2/s)
(PID.TID 0000.0001) >#   diffKhS         - Horizontal salt diffusivity                       (m^2/s)
(PID.TID 0000.0001) >#   diffKzS         - Vertical salt diffusivity                         (m^2/s)
(PID.TID 0000.0001) >#   tAlpha          - Linear EOS thermal expansion coefficient           (1/oC)
(PID.TID 0000.0001) >#   sBeta           - Linear EOS haline contraction coefficient         (1/ppt)
(PID.TID 0000.0001) >#   gravity         - Acceleration due to gravity                       (m/s^2)
(PID.TID 0000.0001) >#   rigidLid        - Set to true to use rigid lid
(PID.TID 0000.0001) >#   implicitFreeSurface - Set to true to use implicit free surface
(PID.TID 0000.0001) >#   eosType         - Flag for linear or polynomial equation of state
(PID.TID 0000.0001) >#   GMkbackground   - background value of GM/Redi coefficient
(PID.TID 0000.0001) >#   momAdvection    - On/Off flag for momentum self transport
(PID.TID 0000.0001) >#   momViscosity    - On/Off flag for momentum mixing
(PID.TID 0000.0001) >#
(PID.TID 0000.0001) > &PARM01
(PID.TID 0000.0001) > viscAz             = 1.E-3,
(PID.TID 0000.0001) > diffKzT            = 1.E-5,
(PID.TID 0000.0001) > diffKzS            = 1.E-5,
(PID.TID 0000.0001) > viscAh             = 5.0E4,
(PID.TID 0000.0001) > viscA4             = 5.e12,
(PID.TID 0000.0001) >#diffKhT            = 1.0E3,
(PID.TID 0000.0001) >#diffKhS            = 1.0E3,
(PID.TID 0000.0001) >#rotationPeriod     = 86400.,
(PID.TID 0000.0001) > tAlpha             = 2.E-4,
(PID.TID 0000.0001) > sBeta              = 7.4E-4,
(PID.TID 0000.0001) > gravity            = 9.81,
(PID.TID 0000.0001) > rigidLid           = .FALSE.,
(PID.TID 0000.0001) > implicitFreeSurface= .TRUE.,
(PID.TID 0000.0001) > implicitDiffusion  = .TRUE.,
(PID.TID 0000.0001) > useCDscheme        = .TRUE.,
(PID.TID 0000.0001) > useNHMTerms        = .TRUE.,
(PID.TID 0000.0001) > eosType            = 'POLY3',
(PID.TID 0000.0001) > momAdvection       = .TRUE.,
(PID.TID 0000.0001) > momViscosity       = .TRUE.,
(PID.TID 0000.0001) > implicitDiffusion  = .TRUE.,
(PID.TID 0000.0001) > implicitViscosity  = .TRUE.,
(PID.TID 0000.0001) > no_slip_bottom     = .TRUE.,
(PID.TID 0000.0001) > no_slip_sides      = .FALSE.,
(PID.TID 0000.0001) > readBinaryPrec     = 32,
(PID.TID 0000.0001) > writeBinaryPrec    = 64,
(PID.TID 0000.0001) >#- not safe to use globalFiles in multi-processors runs
(PID.TID 0000.0001) >#globalFiles        = .TRUE.
(PID.TID 0000.0001) > /
(PID.TID 0000.0001) >
(PID.TID 0000.0001) ># Elliptic solver parameters
(PID.TID 0000.0001) >#
(PID.TID 0000.0001) >#   cg2dMaxIters       - Maximum number of 2d solver iterations
(PID.TID 0000.0001) >#   cg2dTargetResidual - Solver target residual
(PID.TID 0000.0001) >#
(PID.TID 0000.0001) > &PARM02
(PID.TID 0000.0001) > cg2dMaxIters       = 1000,
(PID.TID 0000.0001) > cg2dTargetResidual = 1.E-13,
(PID.TID 0000.0001) > /
(PID.TID 0000.0001) >
(PID.TID 0000.0001) ># Time stepping parameters
(PID.TID 0000.0001) >#
(PID.TID 0000.0001) >#   startTime         - Integration starting time                (s)
(PID.TID 0000.0001) >#   endTime           - Integration ending time                  (s)
(PID.TID 0000.0001) >#   tauCD             - CD scheme coupling timescale             (s)
(PID.TID 0000.0001) >#   deltaTMom         - Timestep for momemtum equations          (s)
(PID.TID 0000.0001) >#   deltaTtracer      - Tracer timestep                          (s)
(PID.TID 0000.0001) >#   deltaTClock       - Timestep used as model "clock"           (s)
(PID.TID 0000.0001) >#   abEps             - Adams-Bashforth stabilising factor
(PID.TID 0000.0001) >#   pChkPtFreq        - Frequency of permanent check pointing    (s)
(PID.TID 0000.0001) >#   chkPtFreq         - Frequency of rolling check pointing      (s)
(PID.TID 0000.0001) >#   dumpFreq          - Frequency at which model state is stored (s)
(PID.TID 0000.0001) >#   tauThetaClimRelax - Relaxation to climatology time scale     (s)
(PID.TID 0000.0001) >#   tauSaltClimRelax  - Relaxation to climatology time scale     (s)
(PID.TID 0000.0001) >#
(PID.TID 0000.0001) > &PARM03
(PID.TID 0000.0001) > baseTime   = 21600.,
(PID.TID 0000.0001) > startTime  = 21600.,
(PID.TID 0000.0001) > endTime    = 93600.,
(PID.TID 0000.0001) > deltaTmom  = 3600.0,
(PID.TID 0000.0001) > TauCD      = 172800.,
(PID.TID 0000.0001) > cAdjFreq   = 0.,
(PID.TID 0000.0001) > abEps      = 0.1,
(PID.TID 0000.0001) > pChkptFreq = 0.0,
(PID.TID 0000.0001) > chkptFreq  = 0.0,
(PID.TID 0000.0001) > dumpFreq   = 86400.,
(PID.TID 0000.0001) > tauSaltClimRelax = 2592000.0,
(PID.TID 0000.0001) > tauThetaClimRelax = 2592000.0,
(PID.TID 0000.0001) > periodicExternalForcing = .TRUE.,
(PID.TID 0000.0001) > externForcingPeriod = 43200.0,
(PID.TID 0000.0001) > externForcingCycle = 2764800.0,
(PID.TID 0000.0001) > monitorFreq=1.,
(PID.TID 0000.0001) > /
(PID.TID 0000.0001) >
(PID.TID 0000.0001) ># Gridding parameters
(PID.TID 0000.0001) >#
(PID.TID 0000.0001) >#   usingSphericalPolarGrid - On/Off flag for spherical polar coordinates
(PID.TID 0000.0001) >#   delX                    - Zonal grid spacing         (degrees)
(PID.TID 0000.0001) >#   delY                    - Meridional grid spacing    (degrees)
(PID.TID 0000.0001) >#   delZ                    - Vertical grid spacing      (m)
(PID.TID 0000.0001) >#   ygOrigin                - Southern boundary latitude (degrees)
(PID.TID 0000.0001) >#
(PID.TID 0000.0001) > &PARM04
(PID.TID 0000.0001) > usingSphericalPolarGrid = .TRUE.,
(PID.TID 0000.0001) > delX   = 20*2.,
(PID.TID 0000.0001) > delY   = 16*2.,
(PID.TID 0000.0001) > delZ= 10., 10., 15., 20., 20., 25., 35., 50., 75.,
(PID.TID 0000.0001) >       100., 150., 200., 275., 350., 415., 450.,
(PID.TID 0000.0001) >       500., 500., 500., 500., 500., 500., 500.,
(PID.TID 0000.0001) > ygOrigin = 10.,
(PID.TID 0000.0001) > xgOrigin= -42.,
(PID.TID 0000.0001) > /
(PID.TID 0000.0001) >
(PID.TID 0000.0001) ># Input datasets
(PID.TID 0000.0001) >#
(PID.TID 0000.0001) >#   bathyFile       - File containing bathymetry
(PID.TID 0000.0001) >#   hydrogThetaFile - File containing initial potential temperature data
(PID.TID 0000.0001) >#   hydrogSaltFile  - File containing initial salinity data
(PID.TID 0000.0001) >#   zonalWindFile   - File containing zonal wind data
(PID.TID 0000.0001) >#   meridWindFile   - File containing meridional wind data
(PID.TID 0000.0001) >#   thetaClimFile   - File containing theta climatology used for relaxation
(PID.TID 0000.0001) >#   saltClimFile    - File containing salt climatology used for relaxation
(PID.TID 0000.0001) >#
(PID.TID 0000.0001) > &PARM05
(PID.TID 0000.0001) > bathyFile       = 'kf_topog',
(PID.TID 0000.0001) > hydrogThetaFile = 'kf_climtheta',
(PID.TID 0000.0001) > hydrogSaltFile  = 'kf_climsalt',
(PID.TID 0000.0001) > zonalWindFile   = 'kf_tx',
(PID.TID 0000.0001) > meridWindFile   = 'kf_ty',
(PID.TID 0000.0001) > thetaClimFile   = 'kf_sst',
(PID.TID 0000.0001) > saltClimFile    = 'kf_sss',
(PID.TID 0000.0001) > surfQFile       = 'kf_qnet',
(PID.TID 0000.0001) > EmPmRFile       = 'kf_empmr',
(PID.TID 0000.0001) > surfQswFile     = 'kf_sw',
(PID.TID 0000.0001) > /
(PID.TID 0000.0001) 
(PID.TID 0000.0001)  INI_PARMS ; starts to read PARM01
(PID.TID 0000.0001)  INI_PARMS ; read PARM01 : OK
(PID.TID 0000.0001)  INI_PARMS ; starts to read PARM02
(PID.TID 0000.0001)  INI_PARMS ; read PARM02 : OK
(PID.TID 0000.0001)  INI_PARMS ; starts to read PARM03
(PID.TID 0000.0001)  INI_PARMS ; read PARM03 : OK
(PID.TID 0000.0001)  INI_PARMS ; starts to read PARM04
(PID.TID 0000.0001)  INI_PARMS ; read PARM04 : OK
(PID.TID 0000.0001)  INI_PARMS ; starts to read PARM05
(PID.TID 0000.0001)  INI_PARMS ; read PARM05 : OK
(PID.TID 0000.0001)  INI_PARMS: finished reading file "data"
(PID.TID 0000.0001)  PACKAGES_BOOT: opening data.pkg
(PID.TID 0000.0001)  OPEN_COPY_DATA_FILE: opening file data.pkg
(PID.TID 0000.0001) // =======================================================
(PID.TID 0000.0001) // Parameter file "data.pkg"
(PID.TID 0000.0001) // =======================================================
(PID.TID 0000.0001) ># Packages
(PID.TID 0000.0001) > &PACKAGES
(PID.TID 0000.0001) >  useGMRedi=.TRUE.,
(PID.TID 0000.0001) >  useKPP=.TRUE.,
(PID.TID 0000.0001) >  useECCO=.FALSE.,
(PID.TID 0000.0001) >  useDiagnostics=.TRUE.,
(PID.TID 0000.0001) >  usePTRACERS=.TRUE.,
(PID.TID 0000.0001) > /
(PID.TID 0000.0001) 
(PID.TID 0000.0001)  PACKAGES_BOOT: finished reading data.pkg
(PID.TID 0000.0001)  PACKAGES_BOOT: On/Off package Summary
 --------  pkgs with a standard "usePKG" On/Off switch in "data.pkg":  --------
 pkg/kpp                  compiled   and   used ( useKPP                   = T )
 pkg/gmredi               compiled   and   used ( useGMRedi                = T )
 pkg/ptracers             compiled   and   used ( usePTRACERS              = T )
 pkg/longstep             compiled   and   used ( usePTRACERS              = T )
 pkg/diagnostics          compiled   and   used ( useDiagnostics           = T )
 -------- pkgs without standard "usePKG" On/Off switch in "data.pkg":  --------
 pkg/generic_advdiff      compiled   and   used ( useGAD                   = T )
 pkg/mom_common           compiled   and   used ( momStepping              = T )
 pkg/mom_vecinv           compiled but not used ( +vectorInvariantMomentum = F )
 pkg/mom_fluxform         compiled   and   used ( & not vectorInvariantMom = T )
 pkg/cd_code              compiled   and   used ( useCDscheme              = T )
 pkg/monitor              compiled   and   used ( monitorFreq > 0.         = T )
 pkg/timeave              compiled but not used ( taveFreq > 0.            = F )
 pkg/debug                compiled but not used ( debugMode                = F )
 pkg/rw                   compiled   and   used
 pkg/mdsio                compiled   and   used
(PID.TID 0000.0001)  PACKAGES_BOOT: End of package Summary
(PID.TID 0000.0001) 
(PID.TID 0000.0001)  KPP_INIT: opening data.kpp
(PID.TID 0000.0001)  OPEN_COPY_DATA_FILE: opening file data.kpp
(PID.TID 0000.0001) // =======================================================
(PID.TID 0000.0001) // Parameter file "data.kpp"
(PID.TID 0000.0001) // =======================================================
(PID.TID 0000.0001) ># KPP parameters
(PID.TID 0000.0001) > &KPP_PARM01
(PID.TID 0000.0001) > KPPmixingMaps   = .FALSE.,
(PID.TID 0000.0001) > KPPwriteState   = .TRUE.,
(PID.TID 0000.0001) > /
(PID.TID 0000.0001) 
(PID.TID 0000.0001)  KPP_INIT: finished reading data.kpp
(PID.TID 0000.0001)  GM_READPARMS: opening data.gmredi
(PID.TID 0000.0001)  OPEN_COPY_DATA_FILE: opening file data.gmredi
(PID.TID 0000.0001) // =======================================================
(PID.TID 0000.0001) // Parameter file "data.gmredi"
(PID.TID 0000.0001) // =======================================================
(PID.TID 0000.0001) ># GM+Redi package parameters:
(PID.TID 0000.0001) >
(PID.TID 0000.0001) >#-from MOM :
(PID.TID 0000.0001) ># GM_background_K: 	G & Mc.W  diffusion coefficient
(PID.TID 0000.0001) ># GM_maxSlope    :	max slope of isopycnals
(PID.TID 0000.0001) ># GM_Scrit       :	transition for scaling diffusion coefficient
(PID.TID 0000.0001) ># GM_Sd          :	half width scaling for diffusion coefficient
(PID.TID 0000.0001) ># GM_taper_scheme:	slope clipping or one of the tapering schemes
(PID.TID 0000.0001) ># GM_Kmin_horiz  :	horizontal diffusion minimum value
(PID.TID 0000.0001) >
(PID.TID 0000.0001) >#-Option parameters (needs to "define" options in GMREDI_OPTIONS.h")
(PID.TID 0000.0001) ># GM_isopycK     :	isopycnal diffusion coefficient (default=GM_background_K)
(PID.TID 0000.0001) ># GM_AdvForm     :	turn on GM Advective form       (default=Skew flux form)
(PID.TID 0000.0001) >
(PID.TID 0000.0001) > &GM_PARM01
(PID.TID 0000.0001) >  GM_background_K    = 800.,
(PID.TID 0000.0001) >  GM_taper_scheme    = 'gkw91',
(PID.TID 0000.0001) >  GM_maxSlope        = 1.e-2,
(PID.TID 0000.0001) >  GM_Kmin_horiz      = 50.,
(PID.TID 0000.0001) >  GM_Scrit           = 4.e-3,
(PID.TID 0000.0001) >  GM_Sd              = 1.e-3,
(PID.TID 0000.0001) ># GM_Visbeck_alpha   = 0.,
(PID.TID 0000.0001) ># GM_Visbeck_length  = 2.e+5,
(PID.TID 0000.0001) ># GM_Visbeck_depth   = 1.e+3,
(PID.TID 0000.0001) ># GM_Visbeck_maxval_K= 2.5e+3,
(PID.TID 0000.0001) > /
(PID.TID 0000.0001) >
(PID.TID 0000.0001) >
(PID.TID 0000.0001) 
(PID.TID 0000.0001)  GM_READPARMS: finished reading data.gmredi
(PID.TID 0000.0001)  LONGSTEP_READPARMS: opening data.longstep
(PID.TID 0000.0001)  OPEN_COPY_DATA_FILE: opening file data.longstep
(PID.TID 0000.0001) // =======================================================
(PID.TID 0000.0001) // Parameter file "data.longstep"
(PID.TID 0000.0001) // =======================================================
(PID.TID 0000.0001) > &LONGSTEP_PARM01
(PID.TID 0000.0001) > LS_nIter=2,
(PID.TID 0000.0001) >#LS_afterTS=.TRUE.,
(PID.TID 0000.0001) >#LS_staggerTimeStep=.TRUE.,
(PID.TID 0000.0001) > /
(PID.TID 0000.0001) >
(PID.TID 0000.0001) 
(PID.TID 0000.0001)  LONGSTEP_READPARMS: finished reading data.longstep
(PID.TID 0000.0001) // ===================================
(PID.TID 0000.0001) // longstep parameters
(PID.TID 0000.0001) // ===================================
(PID.TID 0000.0001) LS_nIter = /* number of dynamics steps between ptracer steps */
(PID.TID 0000.0001)                       2
(PID.TID 0000.0001)     ;
(PID.TID 0000.0001) LS_whenToSample = /* 0: before; 1: after TD, before DYN; 2: after */
(PID.TID 0000.0001)                       0
(PID.TID 0000.0001)     ;
(PID.TID 0000.0001)  -----------------------------------
(PID.TID 0000.0001)  PTRACERS_READPARMS: opening data.ptracers
(PID.TID 0000.0001)  OPEN_COPY_DATA_FILE: opening file data.ptracers
(PID.TID 0000.0001) // =======================================================
(PID.TID 0000.0001) // Parameter file "data.ptracers"
(PID.TID 0000.0001) // =======================================================
(PID.TID 0000.0001) ># Dye set-up: tracer is initialized after 10 years
(PID.TID 0000.0001) ># of spin-up of the dynamical fields.
(PID.TID 0000.0001) ># dye.bin has a dye concentration of 1 in a single grid cell
(PID.TID 0000.0001) ># near the left boundary (i=2, j=30, k=1), zero otherwise;
(PID.TID 0000.0001) ># generated with matlab using gendata.m
(PID.TID 0000.0001) >#
(PID.TID 0000.0001) > &PTRACERS_PARM01
(PID.TID 0000.0001) > PTRACERS_numInUse=1,
(PID.TID 0000.0001) > PTRACERS_Iter0=0,
(PID.TID 0000.0001) >#
(PID.TID 0000.0001) >#PTRACERS_advScheme(1)=2,
(PID.TID 0000.0001) >#PTRACERS_diffKh(1)=1.0E3,
(PID.TID 0000.0001) >#PTRACERS_diffK4(1)=0.,
(PID.TID 0000.0001) >#PTRACERS_diffKr(1)=1.E-5,
(PID.TID 0000.0001) > PTRACERS_useKPP(1)=.TRUE.,
(PID.TID 0000.0001) > PTRACERS_useGMREDI(1)=.TRUE.,
(PID.TID 0000.0001) > PTRACERS_initialFile(1)='kf_climsalt',
(PID.TID 0000.0001) > /
(PID.TID 0000.0001) 
(PID.TID 0000.0001)  PTRACERS_READPARMS: finished reading data.ptracers
(PID.TID 0000.0001)  DIAGNOSTICS_READPARMS: opening data.diagnostics
(PID.TID 0000.0001)  OPEN_COPY_DATA_FILE: opening file data.diagnostics
(PID.TID 0000.0001) // =======================================================
(PID.TID 0000.0001) // Parameter file "data.diagnostics"
(PID.TID 0000.0001) // =======================================================
(PID.TID 0000.0001) ># Diagnostic Package Choices
(PID.TID 0000.0001) >#--------------------
(PID.TID 0000.0001) >#  dumpAtLast (logical): always write output at the end of simulation (default=F)
(PID.TID 0000.0001) >#  diag_mnc   (logical): write to NetCDF files (default=useMNC)
(PID.TID 0000.0001) >#--for each output-stream:
(PID.TID 0000.0001) >#  fileName(n) : prefix of the output file name (max 80c long) for outp.stream n
(PID.TID 0000.0001) >#  frequency(n):< 0 : write snap-shot output every |frequency| seconds
(PID.TID 0000.0001) >#               > 0 : write time-average output every frequency seconds
(PID.TID 0000.0001) >#  timePhase(n)     : write at time = timePhase + multiple of |frequency|
(PID.TID 0000.0001) >#    averagingFreq  : frequency (in s) for periodic averaging interval
(PID.TID 0000.0001) >#    averagingPhase : phase     (in s) for periodic averaging interval
(PID.TID 0000.0001) >#    repeatCycle    : number of averaging intervals in 1 cycle
(PID.TID 0000.0001) >#  levels(:,n) : list of levels to write to file (Notes: declared as REAL)
(PID.TID 0000.0001) >#                when this entry is missing, select all common levels of this list
(PID.TID 0000.0001) >#  fields(:,n) : list of selected diagnostics fields (8.c) in outp.stream n
(PID.TID 0000.0001) >#                (see "available_diagnostics.log" file for the full list of diags)
(PID.TID 0000.0001) >#  missing_value(n) : missing value for real-type fields in output file "n"
(PID.TID 0000.0001) >#  fileFlags(n)     : specific code (8c string) for output file "n"
(PID.TID 0000.0001) >#--------------------
(PID.TID 0000.0001) > &DIAGNOSTICS_LIST
(PID.TID 0000.0001) >   fields(1,1) = 'TRAC01  ',
(PID.TID 0000.0001) >   fileName(1) = 'TRAC01',
(PID.TID 0000.0001) >  frequency(1) = 10800.,
(PID.TID 0000.0001) > /
(PID.TID 0000.0001) >
(PID.TID 0000.0001) >#--------------------
(PID.TID 0000.0001) ># Parameter for Diagnostics of per level statistics:
(PID.TID 0000.0001) >#--------------------
(PID.TID 0000.0001) >#  diagSt_mnc (logical): write stat-diags to NetCDF files (default=diag_mnc)
(PID.TID 0000.0001) >#  diagSt_regMaskFile : file containing the region-mask to read-in
(PID.TID 0000.0001) >#  nSetRegMskFile   : number of region-mask sets within the region-mask file
(PID.TID 0000.0001) >#  set_regMask(i)   : region-mask set-index that identifies the region "i"
(PID.TID 0000.0001) >#  val_regMask(i)   : region "i" identifier value in the region mask
(PID.TID 0000.0001) >#--for each output-stream:
(PID.TID 0000.0001) >#  stat_fName(n) : prefix of the output file name (max 80c long) for outp.stream n
(PID.TID 0000.0001) >#  stat_freq(n):< 0 : write snap-shot output every |stat_freq| seconds
(PID.TID 0000.0001) >#               > 0 : write time-average output every stat_freq seconds
(PID.TID 0000.0001) >#  stat_phase(n)    : write at time = stat_phase + multiple of |stat_freq|
(PID.TID 0000.0001) >#  stat_region(:,n) : list of "regions" (default: 1 region only=global)
(PID.TID 0000.0001) >#  stat_fields(:,n) : list of selected diagnostics fields (8.c) in outp.stream n
(PID.TID 0000.0001) >#                (see "available_diagnostics.log" file for the full list of diags)
(PID.TID 0000.0001) >#--------------------
(PID.TID 0000.0001) > &DIAG_STATIS_PARMS
(PID.TID 0000.0001) >#- an example just to check the agreement with MONITOR output:
(PID.TID 0000.0001) >#stat_fields(1:5,1)  = 'ETAN    ','UVEL    ','VVEL    ','WVEL    ', 'THETA   ',
(PID.TID 0000.0001) ># stat_fName(1) = 'dynStDiag',
(PID.TID 0000.0001) >#  stat_freq(1) = -864000.,
(PID.TID 0000.0001) ># stat_phase(1) = 0.,
(PID.TID 0000.0001) > /
(PID.TID 0000.0001) >
(PID.TID 0000.0001) 
(PID.TID 0000.0001) S/R DIAGNOSTICS_READPARMS, read namelist "diagnostics_list": start
(PID.TID 0000.0001) S/R DIAGNOSTICS_READPARMS, read namelist "diagnostics_list": OK
(PID.TID 0000.0001) S/R DIAGNOSTICS_READPARMS, read namelist "DIAG_STATIS_PARMS": start
(PID.TID 0000.0001) S/R DIAGNOSTICS_READPARMS, read namelist "DIAG_STATIS_PARMS": OK
(PID.TID 0000.0001)  DIAGNOSTICS_READPARMS: global parameter summary:
(PID.TID 0000.0001)  dumpAtLast = /* always write time-ave diags at the end */
(PID.TID 0000.0001)                   F
(PID.TID 0000.0001)     ;
(PID.TID 0000.0001)  diag_mnc =   /* write NetCDF output files */
(PID.TID 0000.0001)                   F
(PID.TID 0000.0001)     ;
(PID.TID 0000.0001)  useMissingValue = /* put MissingValue where mask = 0 */
(PID.TID 0000.0001)                   F
(PID.TID 0000.0001)     ;
(PID.TID 0000.0001)  diagCG_maxIters = /* max number of iters in diag_cg2d */
(PID.TID 0000.0001)                    1000
(PID.TID 0000.0001)     ;
(PID.TID 0000.0001)  diagCG_resTarget = /* residual target for diag_cg2d */
(PID.TID 0000.0001)                 1.000000000000000E-13
(PID.TID 0000.0001)     ;
(PID.TID 0000.0001)  diagCG_pcOffDFac = /* preconditioner off-diagonal factor */
(PID.TID 0000.0001)                 9.611687812379854E-01
(PID.TID 0000.0001)     ;
(PID.TID 0000.0001) -----------------------------------------------------
(PID.TID 0000.0001)  DIAGNOSTICS_READPARMS: active diagnostics summary:
(PID.TID 0000.0001) -----------------------------------------------------
(PID.TID 0000.0001) Creating Output Stream: TRAC01
(PID.TID 0000.0001) Output Frequency:      10800.000000 ; Phase:           0.000000
(PID.TID 0000.0001)  Averaging Freq.:      10800.000000 , Phase:           0.000000 , Cycle:   1
(PID.TID 0000.0001)  missing value: -9.990000000000E+02
(PID.TID 0000.0001)  Levels:    will be set later
(PID.TID 0000.0001)  Fields:    TRAC01
(PID.TID 0000.0001) -----------------------------------------------------
(PID.TID 0000.0001)  DIAGNOSTICS_READPARMS: statistics diags. summary:
(PID.TID 0000.0001) -----------------------------------------------------
(PID.TID 0000.0001) 
(PID.TID 0000.0001) SET_PARMS: done
(PID.TID 0000.0001) Enter INI_VERTICAL_GRID: setInterFDr=    T ; setCenterDr=    F
(PID.TID 0000.0001) %MON XC_max                       =  -3.0000000000000E+00
(PID.TID 0000.0001) %MON XC_min                       =  -4.1000000000000E+01
(PID.TID 0000.0001) %MON XC_mean                      =  -2.2000000000000E+01
(PID.TID 0000.0001) %MON XC_sd                        =   1.1532562594671E+01
(PID.TID 0000.0001) %MON XG_max                       =  -4.0000000000000E+00
(PID.TID 0000.0001) %MON XG_min                       =  -4.2000000000000E+01
(PID.TID 0000.0001) %MON XG_mean                      =  -2.3000000000000E+01
(PID.TID 0000.0001) %MON XG_sd                        =   1.1532562594671E+01
(PID.TID 0000.0001) %MON DXC_max                      =   2.1826966005878E+05
(PID.TID 0000.0001) %MON DXC_min                      =   1.6781340848749E+05
(PID.TID 0000.0001) %MON DXC_mean                     =   1.9727395728441E+05
(PID.TID 0000.0001) %MON DXC_sd                       =   1.5731168072696E+04
(PID.TID 0000.0001) %MON DXF_max                      =   2.1826966005878E+05
(PID.TID 0000.0001) %MON DXF_min                      =   1.6781340848749E+05
(PID.TID 0000.0001) %MON DXF_mean                     =   1.9727395728441E+05
(PID.TID 0000.0001) %MON DXF_sd                       =   1.5731168072696E+04
(PID.TID 0000.0001) %MON DXG_max                      =   2.1897687543479E+05
(PID.TID 0000.0001) %MON DXG_min                      =   1.7033377132268E+05
(PID.TID 0000.0001) %MON DXG_mean                     =   1.9892312861058E+05
(PID.TID 0000.0001) %MON DXG_sd                       =   1.5180938630473E+04
(PID.TID 0000.0001) %MON DXV_max                      =   2.1897687543479E+05
(PID.TID 0000.0001) %MON DXV_min                      =   1.7033377132268E+05
(PID.TID 0000.0001) %MON DXV_mean                     =   1.9892312861058E+05
(PID.TID 0000.0001) %MON DXV_sd                       =   1.5180938630473E+04
(PID.TID 0000.0001) %MON YC_max                       =   4.1000000000000E+01
(PID.TID 0000.0001) %MON YC_min                       =   1.1000000000000E+01
(PID.TID 0000.0001) %MON YC_mean                      =   2.6000000000000E+01
(PID.TID 0000.0001) %MON YC_sd                        =   9.2195444572929E+00
(PID.TID 0000.0001) %MON YG_max                       =   4.0000000000000E+01
(PID.TID 0000.0001) %MON YG_min                       =   1.0000000000000E+01
(PID.TID 0000.0001) %MON YG_mean                      =   2.5000000000000E+01
(PID.TID 0000.0001) %MON YG_sd                        =   9.2195444572929E+00
(PID.TID 0000.0001) %MON DYC_max                      =   2.2235494670408E+05
(PID.TID 0000.0001) %MON DYC_min                      =   2.2235494670408E+05
(PID.TID 0000.0001) %MON DYC_mean                     =   2.2235494670408E+05
(PID.TID 0000.0001) %MON DYC_sd                       =   4.6566128730774E-10
(PID.TID 0000.0001) %MON DYF_max                      =   2.2235494670408E+05
(PID.TID 0000.0001) %MON DYF_min                      =   2.2235494670408E+05
(PID.TID 0000.0001) %MON DYF_mean                     =   2.2235494670408E+05
(PID.TID 0000.0001) %MON DYF_sd                       =   4.6566128730774E-10
(PID.TID 0000.0001) %MON DYG_max                      =   2.2235494670408E+05
(PID.TID 0000.0001) %MON DYG_min                      =   2.2235494670408E+05
(PID.TID 0000.0001) %MON DYG_mean                     =   2.2235494670408E+05
(PID.TID 0000.0001) %MON DYG_sd                       =   4.6566128730774E-10
(PID.TID 0000.0001) %MON DYU_max                      =   2.2235494670408E+05
(PID.TID 0000.0001) %MON DYU_min                      =   2.2235494670408E+05
(PID.TID 0000.0001) %MON DYU_mean                     =   2.2235494670408E+05
(PID.TID 0000.0001) %MON DYU_sd                       =   4.6566128730774E-10
(PID.TID 0000.0001) %MON RA_max                       =   4.8530874650285E+10
(PID.TID 0000.0001) %MON RA_min                       =   3.7312247106402E+10
(PID.TID 0000.0001) %MON RA_mean                      =   4.3862613292919E+10
(PID.TID 0000.0001) %MON RA_sd                        =   3.4977254540690E+09
(PID.TID 0000.0001) %MON RAW_max                      =   4.8530874650285E+10
(PID.TID 0000.0001) %MON RAW_min                      =   3.7312247106402E+10
(PID.TID 0000.0001) %MON RAW_mean                     =   4.3862613292919E+10
(PID.TID 0000.0001) %MON RAW_sd                       =   3.4977254540690E+09
(PID.TID 0000.0001) %MON RAS_max                      =   4.8688119503989E+10
(PID.TID 0000.0001) %MON RAS_min                      =   3.7872633798691E+10
(PID.TID 0000.0001) %MON RAS_mean                     =   4.4229296078267E+10
(PID.TID 0000.0001) %MON RAS_sd                       =   3.3753854271397E+09
(PID.TID 0000.0001) %MON RAZ_max                      =   4.8688119503989E+10
(PID.TID 0000.0001) %MON RAZ_min                      =   3.7872633798691E+10
(PID.TID 0000.0001) %MON RAZ_mean                     =   4.4229296078267E+10
(PID.TID 0000.0001) %MON RAZ_sd                       =   3.3753854271397E+09
(PID.TID 0000.0001) %MON AngleCS_max                  =   1.0000000000000E+00
(PID.TID 0000.0001) %MON AngleCS_min                  =   1.0000000000000E+00
(PID.TID 0000.0001) %MON AngleCS_mean                 =   1.0000000000000E+00
(PID.TID 0000.0001) %MON AngleCS_sd                   =   0.0000000000000E+00
(PID.TID 0000.0001) %MON AngleSN_max                  =   0.0000000000000E+00
(PID.TID 0000.0001) %MON AngleSN_min                  =   0.0000000000000E+00
(PID.TID 0000.0001) %MON AngleSN_mean                 =   0.0000000000000E+00
(PID.TID 0000.0001) %MON AngleSN_sd                   =   0.0000000000000E+00
(PID.TID 0000.0001)  MDS_READ_FIELD: opening global file: kf_topog
(PID.TID 0000.0001) // =======================================================
(PID.TID 0000.0001) // Field Model R_low (ini_masks_etc)
(PID.TID 0000.0001) // CMIN =         -5.200000000000000E+03
(PID.TID 0000.0001) // CMAX =         -3.600000000000000E+02
(PID.TID 0000.0001) // CINT =          1.792592592592593E+02
(PID.TID 0000.0001) // SYMBOLS (CMIN->CMAX): -abcdefghijklmnopqrstuvwxyz+
(PID.TID 0000.0001) //                  0.0: .
(PID.TID 0000.0001) // RANGE I (Lo:Hi:Step):(    -3:    24:     1)
(PID.TID 0000.0001) // RANGE J (Lo:Hi:Step):(    20:    -3:    -1)
(PID.TID 0000.0001) // RANGE K (Lo:Hi:Step):(   1:   1:   1)
(PID.TID 0000.0001) // =======================================================
(PID.TID 0000.0001) K =   1
(PID.TID 0000.0001) //                I=6       I=8       I=18
(PID.TID 0000.0001) // |--J--|321012345|789012347|901234567|901234
(PID.TID 0000.0001) //     20 .....cc-----cfkhkz--cfkhkz.......cc-
(PID.TID 0000.0001) //     19 .....c-------cccfy---cccfy.......c--
(PID.TID 0000.0001) //     18 .....hcc------ccfx----ccfx.......hcc
(PID.TID 0000.0001) //     17 ....................................
(PID.TID 0000.0001) //     16 ....................................
(PID.TID 0000.0001) //     15 hv+..fhknsqknnff-cqknnff-ckhhv+..fhk
(PID.TID 0000.0001) //     14 fhx..hknnnnkhcc-chnkhcc-chhhfhx..hkn
(PID.TID 0000.0001) //     13 fz...knnkhknf--chkknf--chkfffz...knn
(PID.TID 0000.0001) //     12 q....nkhfffhc--cfffhc--cffhnq....nkh
(PID.TID 0000.0001) //     11 +....khfccccc-ccfkccc-ccfkkv+....khf
(PID.TID 0000.0001) //     10 .....hcc---cc-cfhk-cc-cfhks......hcc
(PID.TID 0000.0001) //      9 .....fc-------cfkq----cfkq.......fc-
(PID.TID 0000.0001) //      8 .....c-------ccfkx---ccfkx.......c--
(PID.TID 0000.0001) //      7 .....c---cfcccfhk+fcccfhk+.......c--
(PID.TID 0000.0001) //      6 .....c---cccffhknvccffhknv.......c--
(PID.TID 0000.0001) //      5 .....c--ccccfkkkkqccfkkkkq.......c--
(PID.TID 0000.0001) //     12 q....nkhfffhc--cfffhc--cffhnq....nkh
(PID.TID 0000.0001) //     11 +....khfccccc-ccfkccc-ccfkkv+....khf
(PID.TID 0000.0001) //     10 .....hcc---cc-cfhk-cc-cfhks......hcc
(PID.TID 0000.0001) //      9 .....fc-------cfkq----cfkq.......fc-
(PID.TID 0000.0001) //      8 .....c-------ccfkx---ccfkx.......c--
(PID.TID 0000.0001) //      7 .....c---cfcccfhk+fcccfhk+.......c--
(PID.TID 0000.0001) //      6 .....c---cccffhknvccffhknv.......c--
(PID.TID 0000.0001) //      5 .....c--ccccfkkkkqccfkkkkq.......c--
(PID.TID 0000.0001) //      4 .....cc-----cfkhkz--cfkhkz.......cc-
(PID.TID 0000.0001) //      3 .....c-------cccfy---cccfy.......c--
(PID.TID 0000.0001) //      2 .....hcc------ccfx----ccfx.......hcc
(PID.TID 0000.0001) //      1 ....................................
(PID.TID 0000.0001) //      0 ....................................
(PID.TID 0000.0001) //     -1 hv+..fhknsqknnff-cqknnff-ckhhv+..fhk
(PID.TID 0000.0001) //     -2 fhx..hknnnnkhcc-chnkhcc-chhhfhx..hkn
(PID.TID 0000.0001) //     -3 fz...knnkhknf--chkknf--chkfffz...knn
(PID.TID 0000.0001) // =======================================================
(PID.TID 0000.0001) // END OF FIELD                                          =
(PID.TID 0000.0001) // =======================================================
(PID.TID 0000.0001) 
(PID.TID 0000.0001) // =======================================================
(PID.TID 0000.0001) // Field Model Ro_surf (ini_masks_etc)
(PID.TID 0000.0001) // CMIN =          1.000000000000000E+32
(PID.TID 0000.0001) // CMAX =         -1.000000000000000E+32
(PID.TID 0000.0001) // CINT =          0.000000000000000E+00
(PID.TID 0000.0001) // SYMBOLS (CMIN->CMAX): -abcdefghijklmnopqrstuvwxyz+
(PID.TID 0000.0001) //                  0.0: .
(PID.TID 0000.0001) // RANGE I (Lo:Hi:Step):(    -3:    24:     1)
(PID.TID 0000.0001) // RANGE J (Lo:Hi:Step):(    20:    -3:    -1)
(PID.TID 0000.0001) // RANGE K (Lo:Hi:Step):(   1:   1:   1)
(PID.TID 0000.0001) // =======================================================
(PID.TID 0000.0001) // =======================================================
(PID.TID 0000.0001) // END OF FIELD                                          =
(PID.TID 0000.0001) // =======================================================
(PID.TID 0000.0001) 
(PID.TID 0000.0001) // =======================================================
(PID.TID 0000.0001) // Field hFacC at iteration          0
(PID.TID 0000.0001) // CMIN =          1.000000000000000E+00
(PID.TID 0000.0001) // CMAX =          1.000000000000000E+00
(PID.TID 0000.0001) // CINT =          0.000000000000000E+00
(PID.TID 0000.0001) // SYMBOLS (CMIN->CMAX): -abcdefghijklmnopqrstuvwxyz+
(PID.TID 0000.0001) //                  0.0: .
(PID.TID 0000.0001) // RANGE I (Lo:Hi:Step):(    -3:    24:     1)
(PID.TID 0000.0001) // RANGE J (Lo:Hi:Step):(    20:    -3:    -1)
(PID.TID 0000.0001) // RANGE K (Lo:Hi:Step):(   1:   1:   1)
(PID.TID 0000.0001) // =======================================================
(PID.TID 0000.0001) // =======================================================
(PID.TID 0000.0001) // END OF FIELD                                          =
(PID.TID 0000.0001) // =======================================================
(PID.TID 0000.0001) 
(PID.TID 0000.0001) // =======================================================
(PID.TID 0000.0001) // Field hFacW at iteration          0
(PID.TID 0000.0001) // CMIN =          1.000000000000000E+00
(PID.TID 0000.0001) // CMAX =          1.000000000000000E+00
(PID.TID 0000.0001) // CINT =          0.000000000000000E+00
(PID.TID 0000.0001) // SYMBOLS (CMIN->CMAX): -abcdefghijklmnopqrstuvwxyz+
(PID.TID 0000.0001) //                  0.0: .
(PID.TID 0000.0001) // RANGE I (Lo:Hi:Step):(    -3:    24:     1)
(PID.TID 0000.0001) // RANGE J (Lo:Hi:Step):(    20:    -3:    -1)
(PID.TID 0000.0001) // RANGE K (Lo:Hi:Step):(   1:   1:   1)
(PID.TID 0000.0001) // =======================================================
(PID.TID 0000.0001) // =======================================================
(PID.TID 0000.0001) // END OF FIELD                                          =
(PID.TID 0000.0001) // =======================================================
(PID.TID 0000.0001) 
(PID.TID 0000.0001) // =======================================================
(PID.TID 0000.0001) // Field hFacS at iteration          0
(PID.TID 0000.0001) // CMIN =          1.000000000000000E+00
(PID.TID 0000.0001) // CMAX =          1.000000000000000E+00
(PID.TID 0000.0001) // CINT =          0.000000000000000E+00
(PID.TID 0000.0001) // SYMBOLS (CMIN->CMAX): -abcdefghijklmnopqrstuvwxyz+
(PID.TID 0000.0001) //                  0.0: .
(PID.TID 0000.0001) // RANGE I (Lo:Hi:Step):(    -3:    24:     1)
(PID.TID 0000.0001) // RANGE J (Lo:Hi:Step):(    20:    -3:    -1)
(PID.TID 0000.0001) // RANGE K (Lo:Hi:Step):(   1:   1:   1)
(PID.TID 0000.0001) // =======================================================
(PID.TID 0000.0001) // =======================================================
(PID.TID 0000.0001) // END OF FIELD                                          =
(PID.TID 0000.0001) // =======================================================
(PID.TID 0000.0001) 
(PID.TID 0000.0001) GAD_INIT_FIXED: GAD_OlMinSize=  1  0  1
(PID.TID 0000.0001) 
(PID.TID 0000.0001) // ===================================
(PID.TID 0000.0001) // GAD parameters :
(PID.TID 0000.0001) // ===================================
(PID.TID 0000.0001) tempAdvScheme =   /* Temp. Horiz.Advection scheme selector */
(PID.TID 0000.0001)                       2
(PID.TID 0000.0001)     ;
(PID.TID 0000.0001) tempVertAdvScheme =   /* Temp. Vert. Advection scheme selector */
(PID.TID 0000.0001)                       2
(PID.TID 0000.0001)     ;
(PID.TID 0000.0001) tempMultiDimAdvec =   /* use Muti-Dim Advec method for Temp */
(PID.TID 0000.0001)                   F
(PID.TID 0000.0001)     ;
(PID.TID 0000.0001) tempSOM_Advection = /* use 2nd Order Moment Advection for Temp */
(PID.TID 0000.0001)                   F
(PID.TID 0000.0001)     ;
(PID.TID 0000.0001) AdamsBashforthGt = /* apply Adams-Bashforth extrapolation on Gt */
(PID.TID 0000.0001)                   T
(PID.TID 0000.0001)     ;
(PID.TID 0000.0001) AdamsBashforth_T = /* apply Adams-Bashforth extrapolation on Temp */
(PID.TID 0000.0001)                   F
(PID.TID 0000.0001)     ;
(PID.TID 0000.0001) saltAdvScheme =   /* Salt. Horiz.advection scheme selector */
(PID.TID 0000.0001)                       2
(PID.TID 0000.0001)     ;
(PID.TID 0000.0001) saltVertAdvScheme =   /* Salt. Vert. Advection scheme selector */
(PID.TID 0000.0001)                       2
(PID.TID 0000.0001)     ;
(PID.TID 0000.0001) saltMultiDimAdvec =   /* use Muti-Dim Advec method for Salt */
(PID.TID 0000.0001)                   F
(PID.TID 0000.0001)     ;
(PID.TID 0000.0001) saltSOM_Advection = /* use 2nd Order Moment Advection for Salt */
(PID.TID 0000.0001)                   F
(PID.TID 0000.0001)     ;
(PID.TID 0000.0001) AdamsBashforthGs = /* apply Adams-Bashforth extrapolation on Gs */
(PID.TID 0000.0001)                   T
(PID.TID 0000.0001)     ;
(PID.TID 0000.0001) AdamsBashforth_S = /* apply Adams-Bashforth extrapolation on Salt */
(PID.TID 0000.0001)                   F
(PID.TID 0000.0001)     ;
(PID.TID 0000.0001) // ===================================
(PID.TID 0000.0001) ------------------------------------------------------------
(PID.TID 0000.0001) DIAGNOSTICS_SET_LEVELS: done
(PID.TID 0000.0001)  Total Nb of available Diagnostics: ndiagt=   250
(PID.TID 0000.0001)  write list of available Diagnostics to file: available_diagnostics.log
(PID.TID 0000.0001) SETDIAG: Allocate 23 x  1 Levels for Diagnostic #   236 TRAC01
(PID.TID 0000.0001)   space allocated for all diagnostics:      23 levels
(PID.TID 0000.0001) DIAGNOSTICS_SET_POINTERS: Set levels for Outp.Stream: TRAC01
(PID.TID 0000.0001)  Levels:       1.   2.   3.   4.   5.   6.   7.   8.   9.  10.  11.  12.  13.  14.  15.  16.  17.  18.  19.  20.
(PID.TID 0000.0001)  Levels:      21.  22.  23.
(PID.TID 0000.0001) DIAGNOSTICS_SET_POINTERS: done
(PID.TID 0000.0001) ------------------------------------------------------------
(PID.TID 0000.0001) DIAGSTATS_SET_REGIONS: define no region
(PID.TID 0000.0001) ------------------------------------------------------------
(PID.TID 0000.0001)   space allocated for all stats-diags:       0 levels
(PID.TID 0000.0001) DIAGSTATS_SET_POINTERS: done
(PID.TID 0000.0001) ------------------------------------------------------------
(PID.TID 0000.0001) %MON fCori_max                    =   9.5681269476711E-05
(PID.TID 0000.0001) %MON fCori_min                    =   2.7828055248772E-05
(PID.TID 0000.0001) %MON fCori_mean                   =   6.3108629295410E-05
(PID.TID 0000.0001) %MON fCori_sd                     =   2.0943015160624E-05
(PID.TID 0000.0001) %MON fCoriG_max                   =   9.3745732900505E-05
(PID.TID 0000.0001) %MON fCoriG_min                   =   2.5325279200951E-05
(PID.TID 0000.0001) %MON fCoriG_mean                  =   6.0840818126420E-05
(PID.TID 0000.0001) %MON fCoriG_sd                    =   2.1116986447899E-05
(PID.TID 0000.0001) %MON fCoriCos_max                 =   1.4316293338671E-04
(PID.TID 0000.0001) %MON fCoriCos_min                 =   1.1006870956881E-04
(PID.TID 0000.0001) %MON fCoriCos_mean                =   1.2939186508118E-04
(PID.TID 0000.0001) %MON fCoriCos_sd                  =   1.0318063290519E-05
(PID.TID 0000.0001) INI_CG2D: CG2D normalisation factor =  1.5752923928634454E-04
(PID.TID 0000.0001) 
(PID.TID 0000.0001) // =======================================================
(PID.TID 0000.0001) // Model configuration
(PID.TID 0000.0001) // =======================================================
(PID.TID 0000.0001) //
(PID.TID 0000.0001) // "Physical" paramters ( PARM01 in namelist )
(PID.TID 0000.0001) //
(PID.TID 0000.0001) buoyancyRelation = /* Type of relation to get Buoyancy */
(PID.TID 0000.0001)               'OCEANIC'
(PID.TID 0000.0001)     ;
(PID.TID 0000.0001) fluidIsAir   =  /* fluid major constituent is Air */
(PID.TID 0000.0001)                   F
(PID.TID 0000.0001)     ;
(PID.TID 0000.0001) fluidIsWater =  /* fluid major constituent is Water */
(PID.TID 0000.0001)                   T
(PID.TID 0000.0001)     ;
(PID.TID 0000.0001) usingPCoords =  /* use p (or p*) vertical coordinate */
(PID.TID 0000.0001)                   F
(PID.TID 0000.0001)     ;
(PID.TID 0000.0001) usingZCoords =  /* use z (or z*) vertical coordinate */
(PID.TID 0000.0001)                   T
(PID.TID 0000.0001)     ;
(PID.TID 0000.0001) tRef =   /* Reference temperature profile ( oC or K ) */
(PID.TID 0000.0001)    23 @  2.000000000000000E+01              /* K =  1: 23 */
(PID.TID 0000.0001)     ;
(PID.TID 0000.0001) sRef =   /* Reference salinity profile ( psu ) */
(PID.TID 0000.0001)    23 @  3.000000000000000E+01              /* K =  1: 23 */
(PID.TID 0000.0001)     ;
(PID.TID 0000.0001) useStrainTensionVisc= /* Use StrainTension Form of Viscous Operator */
(PID.TID 0000.0001)                   F
(PID.TID 0000.0001)     ;
(PID.TID 0000.0001) useVariableVisc = /* Use variable horizontal viscosity */
(PID.TID 0000.0001)                   F
(PID.TID 0000.0001)     ;
(PID.TID 0000.0001) useHarmonicVisc = /* Use harmonic horizontal viscosity */
(PID.TID 0000.0001)                   T
(PID.TID 0000.0001)     ;
(PID.TID 0000.0001) useBiharmonicVisc= /* Use biharmonic horiz.  viscosity */
(PID.TID 0000.0001)                   T
(PID.TID 0000.0001)     ;
(PID.TID 0000.0001) useSmag3D = /* Use isotropic 3-D Smagorinsky viscosity */
(PID.TID 0000.0001)                   F
(PID.TID 0000.0001)     ;
(PID.TID 0000.0001) viscAh  =   /* Lateral harmonic viscosity ( m^2/s ) */
(PID.TID 0000.0001)                 5.000000000000000E+04
(PID.TID 0000.0001)     ;
(PID.TID 0000.0001) viscA4  =   /* Lateral biharmonic viscosity ( m^4/s ) */
(PID.TID 0000.0001)                 5.000000000000000E+12
(PID.TID 0000.0001)     ;
(PID.TID 0000.0001) no_slip_sides =  /* Viscous BCs: No-slip sides */
(PID.TID 0000.0001)                   F
(PID.TID 0000.0001)     ;
(PID.TID 0000.0001) sideDragFactor = /* side-drag scaling factor (non-dim) */
(PID.TID 0000.0001)                 2.000000000000000E+00
(PID.TID 0000.0001)     ;
(PID.TID 0000.0001) viscArNr = /* vertical profile of vertical viscosity ( m^2/s )*/
(PID.TID 0000.0001)    23 @  1.000000000000000E-03              /* K =  1: 23 */
(PID.TID 0000.0001)     ;
(PID.TID 0000.0001) no_slip_bottom =  /* Viscous BCs: No-slip bottom */
(PID.TID 0000.0001)                   T
(PID.TID 0000.0001)     ;
(PID.TID 0000.0001) bottomVisc_pCell = /* Partial-cell in bottom Visc. BC */
(PID.TID 0000.0001)                   F
(PID.TID 0000.0001)     ;
(PID.TID 0000.0001) bottomDragLinear = /* linear bottom-drag coefficient ( m/s ) */
(PID.TID 0000.0001)                 0.000000000000000E+00
(PID.TID 0000.0001)     ;
(PID.TID 0000.0001) bottomDragQuadratic = /* quadratic bottom-drag coefficient (-) */
(PID.TID 0000.0001)                 0.000000000000000E+00
(PID.TID 0000.0001)     ;
(PID.TID 0000.0001) selectBotDragQuadr = /* select quadratic bottom drag options */
(PID.TID 0000.0001)                      -1
(PID.TID 0000.0001)     ;
(PID.TID 0000.0001) diffKhT =   /* Laplacian diffusion of heat laterally ( m^2/s ) */
(PID.TID 0000.0001)                 0.000000000000000E+00
(PID.TID 0000.0001)     ;
(PID.TID 0000.0001) diffK4T =   /* Biharmonic diffusion of heat laterally ( m^4/s ) */
(PID.TID 0000.0001)                 0.000000000000000E+00
(PID.TID 0000.0001)     ;
(PID.TID 0000.0001) diffKhS =   /* Laplacian diffusion of salt laterally ( m^2/s ) */
(PID.TID 0000.0001)                 0.000000000000000E+00
(PID.TID 0000.0001)     ;
(PID.TID 0000.0001) diffK4S =   /* Biharmonic diffusion of salt laterally ( m^4/s ) */
(PID.TID 0000.0001)                 0.000000000000000E+00
(PID.TID 0000.0001)     ;
(PID.TID 0000.0001) diffKrNrT = /* vertical profile of vertical diffusion of Temp ( m^2/s )*/
(PID.TID 0000.0001)    23 @  1.000000000000000E-05              /* K =  1: 23 */
(PID.TID 0000.0001)     ;
(PID.TID 0000.0001) diffKrNrS = /* vertical profile of vertical diffusion of Salt ( m^2/s )*/
(PID.TID 0000.0001)    23 @  1.000000000000000E-05              /* K =  1: 23 */
(PID.TID 0000.0001)     ;
(PID.TID 0000.0001) diffKrBL79surf = /* Surface diffusion for Bryan and Lewis 79 ( m^2/s ) */
(PID.TID 0000.0001)                 0.000000000000000E+00
(PID.TID 0000.0001)     ;
(PID.TID 0000.0001) diffKrBL79deep = /* Deep diffusion for Bryan and Lewis 1979 ( m^2/s ) */
(PID.TID 0000.0001)                 0.000000000000000E+00
(PID.TID 0000.0001)     ;
(PID.TID 0000.0001) diffKrBL79scl = /* Depth scale for Bryan and Lewis 1979 ( m ) */
(PID.TID 0000.0001)                 2.000000000000000E+02
(PID.TID 0000.0001)     ;
(PID.TID 0000.0001) diffKrBL79Ho = /* Turning depth for Bryan and Lewis 1979 ( m ) */
(PID.TID 0000.0001)                -2.000000000000000E+03
(PID.TID 0000.0001)     ;
(PID.TID 0000.0001) ivdc_kappa = /* Implicit Vertical Diffusivity for Convection ( m^2/s) */
(PID.TID 0000.0001)                 0.000000000000000E+00
(PID.TID 0000.0001)     ;
(PID.TID 0000.0001) hMixCriteria=  /* Criteria for mixed-layer diagnostic */
(PID.TID 0000.0001)                -8.000000000000000E-01
(PID.TID 0000.0001)     ;
(PID.TID 0000.0001) dRhoSmall =  /* Parameter for mixed-layer diagnostic */
(PID.TID 0000.0001)                 1.000000000000000E-06
(PID.TID 0000.0001)     ;
(PID.TID 0000.0001) hMixSmooth=  /* Smoothing parameter for mixed-layer diagnostic */
(PID.TID 0000.0001)                 0.000000000000000E+00
(PID.TID 0000.0001)     ;
(PID.TID 0000.0001) eosType =  /* Type of Equation of State */
(PID.TID 0000.0001)               'POLY3 '
(PID.TID 0000.0001)     ;
(PID.TID 0000.0001) Polynomial EQS parameters ( from POLY3.COEFFS ):
(PID.TID 0000.0001)   1  13.499  32.600  24.480  -0.201   0.771  -0.005  -0.002   0.000   0.000   0.000   0.000   0.000
(PID.TID 0000.0001)   2  13.498  32.600  24.525  -0.202   0.771  -0.005  -0.002   0.000   0.000   0.000   0.000   0.000
(PID.TID 0000.0001)   3  13.496  32.600  24.581  -0.202   0.771  -0.005  -0.002   0.000   0.000   0.000   0.000   0.000
(PID.TID 0000.0001)   4  13.494  32.600  24.660  -0.202   0.771  -0.005  -0.002   0.000   0.000   0.000   0.000   0.000
(PID.TID 0000.0001)   5  13.491  32.600  24.750  -0.203   0.771  -0.005  -0.002   0.000   0.000   0.000   0.000   0.000
(PID.TID 0000.0001)   6  13.488  32.600  24.851  -0.203   0.770  -0.005  -0.002   0.000   0.000   0.000   0.000   0.000
(PID.TID 0000.0001)   7  13.484  32.600  24.985  -0.204   0.770  -0.005  -0.002   0.000   0.000   0.000   0.000   0.000
(PID.TID 0000.0001)   8  13.478  32.600  25.176  -0.204   0.770  -0.005  -0.002   0.000   0.000   0.000   0.000   0.000
(PID.TID 0000.0001)   9  13.469  32.600  25.456  -0.205   0.769  -0.005  -0.002   0.000   0.000   0.000   0.000   0.000
(PID.TID 0000.0001)  10   8.467  35.150  28.748  -0.163   0.781  -0.005  -0.002   0.001   0.000   0.000   0.000   0.000
(PID.TID 0000.0001)  11   8.454  35.150  29.315  -0.166   0.780  -0.005  -0.002   0.001   0.000   0.000   0.000   0.000
(PID.TID 0000.0001)  12   5.946  34.900  30.300  -0.143   0.785  -0.006  -0.002   0.001   0.000   0.000   0.000   0.000
(PID.TID 0000.0001)  13   4.433  34.900  31.591  -0.132   0.786  -0.006  -0.003   0.000   0.000   0.000   0.000   0.000
(PID.TID 0000.0001)  14   3.909  34.750  32.966  -0.134   0.785  -0.006  -0.003   0.000   0.000   0.000   0.000   0.000
(PID.TID 0000.0001)  15   1.899  34.800  35.002  -0.121   0.787  -0.006  -0.003  -0.000   0.000   0.000   0.000   0.000
(PID.TID 0000.0001)  16   1.372  34.750  36.991  -0.127   0.785  -0.006  -0.003  -0.001   0.000   0.000   0.000   0.000
(PID.TID 0000.0001)  17   1.332  34.800  39.171  -0.140   0.782  -0.006  -0.003  -0.001   0.000   0.000   0.000   0.000
(PID.TID 0000.0001)  18   0.797  34.800  41.472  -0.147   0.779  -0.006  -0.003  -0.001   0.000   0.000   0.000   0.000
(PID.TID 0000.0001)  19   0.749  34.800  43.682  -0.160   0.775  -0.005  -0.002  -0.002   0.000   0.000   0.000   0.000
(PID.TID 0000.0001)  20   0.214  34.750  45.912  -0.168   0.772  -0.005  -0.002  -0.002   0.000   0.000   0.000   0.000
(PID.TID 0000.0001)  21   0.160  34.750  48.080  -0.181   0.768  -0.005  -0.002  -0.003   0.000   0.000   0.000   0.000
(PID.TID 0000.0001)  22   0.584  34.750  50.131  -0.197   0.763  -0.005  -0.002  -0.001   0.000   0.000   0.000   0.000
(PID.TID 0000.0001)  23   0.522  34.750  52.248  -0.209   0.760  -0.005  -0.002  -0.002   0.000   0.000   0.000   0.000
(PID.TID 0000.0001)     ;
(PID.TID 0000.0001) selectP_inEOS_Zc = /* select pressure to use in EOS (0,1,2,3) */
(PID.TID 0000.0001)                       0
(PID.TID 0000.0001)     0= -g*rhoConst*z ; 1= pRef (from tRef,sRef); 2= Hyd P ; 3= Hyd+NH P
(PID.TID 0000.0001)     ;
(PID.TID 0000.0001) HeatCapacity_Cp =  /* Specific heat capacity ( J/kg/K ) */
(PID.TID 0000.0001)                 3.994000000000000E+03
(PID.TID 0000.0001)     ;
(PID.TID 0000.0001) celsius2K = /* 0 degree Celsius converted to Kelvin ( K ) */
(PID.TID 0000.0001)                 2.731500000000000E+02
(PID.TID 0000.0001)     ;
(PID.TID 0000.0001) rhoConst  = /* Reference density (Boussinesq)  ( kg/m^3 ) */
(PID.TID 0000.0001)                 9.998000000000000E+02
(PID.TID 0000.0001)     ;
(PID.TID 0000.0001) rhoFacC = /* normalized Reference density @ cell-Center (-) */
(PID.TID 0000.0001)    23 @  1.000000000000000E+00              /* K =  1: 23 */
(PID.TID 0000.0001)     ;
(PID.TID 0000.0001) rhoFacF = /* normalized Reference density @ W-Interface (-) */
(PID.TID 0000.0001)    24 @  1.000000000000000E+00              /* K =  1: 24 */
(PID.TID 0000.0001)     ;
(PID.TID 0000.0001) rhoConstFresh = /* Fresh-water reference density ( kg/m^3 ) */
(PID.TID 0000.0001)                 9.998000000000000E+02
(PID.TID 0000.0001)     ;
(PID.TID 0000.0001) gravity =   /* Gravitational acceleration ( m/s^2 ) */
(PID.TID 0000.0001)                 9.810000000000000E+00
(PID.TID 0000.0001)     ;
(PID.TID 0000.0001) gBaro =   /* Barotropic gravity ( m/s^2 ) */
(PID.TID 0000.0001)                 9.810000000000000E+00
(PID.TID 0000.0001)     ;
(PID.TID 0000.0001) gravFacC = /* gravity factor (vs surf.) @ cell-Center (-) */
(PID.TID 0000.0001)    23 @  1.000000000000000E+00              /* K =  1: 23 */
(PID.TID 0000.0001)     ;
(PID.TID 0000.0001) gravFacF = /* gravity factor (vs surf.) @ W-Interface (-) */
(PID.TID 0000.0001)    24 @  1.000000000000000E+00              /* K =  1: 24 */
(PID.TID 0000.0001)     ;
(PID.TID 0000.0001) rotationPeriod =   /* Rotation Period ( s ) */
(PID.TID 0000.0001)                 8.616400000000000E+04
(PID.TID 0000.0001)     ;
(PID.TID 0000.0001) omega =   /* Angular velocity ( rad/s ) */
(PID.TID 0000.0001)                 7.292123516990375E-05
(PID.TID 0000.0001)     ;
(PID.TID 0000.0001) f0 =   /* Reference coriolis parameter ( 1/s ) */
(PID.TID 0000.0001)                 1.000000000000000E-04
(PID.TID 0000.0001)     ;
(PID.TID 0000.0001) beta =   /* Beta ( 1/(m.s) ) */
(PID.TID 0000.0001)                 9.999999999999999E-12
(PID.TID 0000.0001)     ;
(PID.TID 0000.0001) fPrime =   /* Second coriolis parameter ( 1/s ) */
(PID.TID 0000.0001)                 0.000000000000000E+00
(PID.TID 0000.0001)     ;
(PID.TID 0000.0001) rigidLid =   /* Rigid lid on/off flag */
(PID.TID 0000.0001)                   F
(PID.TID 0000.0001)     ;
(PID.TID 0000.0001) implicitFreeSurface =   /* Implicit free surface on/off flag */
(PID.TID 0000.0001)                   T
(PID.TID 0000.0001)     ;
(PID.TID 0000.0001) freeSurfFac =   /* Implicit free surface factor */
(PID.TID 0000.0001)                 1.000000000000000E+00
(PID.TID 0000.0001)     ;
(PID.TID 0000.0001) implicSurfPress =  /* Surface Pressure implicit factor (0-1)*/
(PID.TID 0000.0001)                 1.000000000000000E+00
(PID.TID 0000.0001)     ;
(PID.TID 0000.0001) implicDiv2Dflow =  /* Barot. Flow Div. implicit factor (0-1)*/
(PID.TID 0000.0001)                 1.000000000000000E+00
(PID.TID 0000.0001)     ;
(PID.TID 0000.0001) uniformLin_PhiSurf = /* use uniform Bo_surf on/off flag*/
(PID.TID 0000.0001)                   T
(PID.TID 0000.0001)     ;
(PID.TID 0000.0001) uniformFreeSurfLev = /* free-surface level-index is uniform */
(PID.TID 0000.0001)                   T
(PID.TID 0000.0001)     ;
(PID.TID 0000.0001) hFacMin =   /* minimum partial cell factor (hFac) */
(PID.TID 0000.0001)                 1.000000000000000E+00
(PID.TID 0000.0001)     ;
(PID.TID 0000.0001) hFacMinDr = /* minimum partial cell thickness ( m) */
(PID.TID 0000.0001)                 0.000000000000000E+00
(PID.TID 0000.0001)     ;
(PID.TID 0000.0001) exactConserv =  /* Exact Volume Conservation on/off flag*/
(PID.TID 0000.0001)                   F
(PID.TID 0000.0001)     ;
(PID.TID 0000.0001) linFSConserveTr = /* Tracer correction for Lin Free Surface on/off flag*/
(PID.TID 0000.0001)                   F
(PID.TID 0000.0001)     ;
(PID.TID 0000.0001) nonlinFreeSurf = /* Non-linear Free Surf. options (-1,0,1,2,3)*/
(PID.TID 0000.0001)                       0
(PID.TID 0000.0001)      -1,0= Off ; 1,2,3= On, 2=+rescale gU,gV, 3=+update cg2d solv.
(PID.TID 0000.0001)     ;
(PID.TID 0000.0001) hFacInf =   /* lower threshold for hFac (nonlinFreeSurf only)*/
(PID.TID 0000.0001)                 2.000000000000000E-01
(PID.TID 0000.0001)     ;
(PID.TID 0000.0001) hFacSup =   /* upper threshold for hFac (nonlinFreeSurf only)*/
(PID.TID 0000.0001)                 2.000000000000000E+00
(PID.TID 0000.0001)     ;
(PID.TID 0000.0001) select_rStar = /* r* Vertical coord. options (=0 r coord.; >0 uses r*)*/
(PID.TID 0000.0001)                       0
(PID.TID 0000.0001)     ;
(PID.TID 0000.0001) useRealFreshWaterFlux = /* Real Fresh Water Flux on/off flag*/
(PID.TID 0000.0001)                   F
(PID.TID 0000.0001)     ;
(PID.TID 0000.0001) temp_EvPrRn = /* Temp. of Evap/Prec/R (UNSET=use local T)(oC)*/
(PID.TID 0000.0001)                 1.234567000000000E+05
(PID.TID 0000.0001)     ;
(PID.TID 0000.0001) salt_EvPrRn = /* Salin. of Evap/Prec/R (UNSET=use local S)(psu)*/
(PID.TID 0000.0001)                 0.000000000000000E+00
(PID.TID 0000.0001)     ;
(PID.TID 0000.0001) selectAddFluid = /* option for mass source/sink of fluid (=0: off) */
(PID.TID 0000.0001)                       0
(PID.TID 0000.0001)     ;
(PID.TID 0000.0001) temp_addMass = /* Temp. of addMass array (UNSET=use local T)(oC)*/
(PID.TID 0000.0001)                 1.234567000000000E+05
(PID.TID 0000.0001)     ;
(PID.TID 0000.0001) salt_addMass = /* Salin. of addMass array (UNSET=use local S)(psu)*/
(PID.TID 0000.0001)                 0.000000000000000E+00
(PID.TID 0000.0001)     ;
(PID.TID 0000.0001) convertFW2Salt = /* convert F.W. Flux to Salt Flux (-1=use local S)(psu)*/
(PID.TID 0000.0001)                 3.500000000000000E+01
(PID.TID 0000.0001)     ;
(PID.TID 0000.0001) use3Dsolver = /* use 3-D pressure solver on/off flag */
(PID.TID 0000.0001)                   F
(PID.TID 0000.0001)     ;
(PID.TID 0000.0001) nonHydrostatic =  /* Non-Hydrostatic on/off flag */
(PID.TID 0000.0001)                   F
(PID.TID 0000.0001)     ;
(PID.TID 0000.0001) nh_Am2 = /* Non-Hydrostatic terms scaling factor */
(PID.TID 0000.0001)                 1.000000000000000E+00
(PID.TID 0000.0001)     ;
(PID.TID 0000.0001) implicitNHPress = /* Non-Hyd Pressure implicit factor (0-1)*/
(PID.TID 0000.0001)                 1.000000000000000E+00
(PID.TID 0000.0001)     ;
(PID.TID 0000.0001) selectNHfreeSurf = /* Non-Hyd (free-)Surface option */
(PID.TID 0000.0001)                       0
(PID.TID 0000.0001)     ;
(PID.TID 0000.0001) quasiHydrostatic = /* Quasi-Hydrostatic on/off flag */
(PID.TID 0000.0001)                   F
(PID.TID 0000.0001)     ;
(PID.TID 0000.0001) calc_wVelocity = /* vertical velocity calculation on/off flag */
(PID.TID 0000.0001)                   T
(PID.TID 0000.0001)     ;
(PID.TID 0000.0001) momStepping =  /* Momentum equation on/off flag */
(PID.TID 0000.0001)                   T
(PID.TID 0000.0001)     ;
(PID.TID 0000.0001) vectorInvariantMomentum= /* Vector-Invariant Momentum on/off */
(PID.TID 0000.0001)                   F
(PID.TID 0000.0001)     ;
(PID.TID 0000.0001) momAdvection =  /* Momentum advection on/off flag */
(PID.TID 0000.0001)                   T
(PID.TID 0000.0001)     ;
(PID.TID 0000.0001) momViscosity =  /* Momentum viscosity on/off flag */
(PID.TID 0000.0001)                   T
(PID.TID 0000.0001)     ;
(PID.TID 0000.0001) momImplVertAdv= /* Momentum implicit vert. advection on/off*/
(PID.TID 0000.0001)                   F
(PID.TID 0000.0001)     ;
(PID.TID 0000.0001) implicitViscosity = /* Implicit viscosity on/off flag */
(PID.TID 0000.0001)                   T
(PID.TID 0000.0001)     ;
(PID.TID 0000.0001) implBottomFriction= /* Implicit bottom friction on/off flag */
(PID.TID 0000.0001)                   F
(PID.TID 0000.0001)     ;
(PID.TID 0000.0001) metricTerms =  /* metric-Terms on/off flag */
(PID.TID 0000.0001)                   T
(PID.TID 0000.0001)     ;
(PID.TID 0000.0001) useNHMTerms = /* Non-Hydrostatic Metric-Terms on/off */
(PID.TID 0000.0001)                   T
(PID.TID 0000.0001)     ;
(PID.TID 0000.0001) selectCoriMap = /* Coriolis Map options (0,1,2,3)*/
(PID.TID 0000.0001)                       2
(PID.TID 0000.0001)     0= f-Plane ; 1= Beta-Plane ; 2= Spherical ; 3= read from file
(PID.TID 0000.0001)     ;
(PID.TID 0000.0001) use3dCoriolis = /* 3-D Coriolis on/off flag */
(PID.TID 0000.0001)                   F
(PID.TID 0000.0001)     ;
(PID.TID 0000.0001) useCoriolis =  /* Coriolis on/off flag */
(PID.TID 0000.0001)                   T
(PID.TID 0000.0001)     ;
(PID.TID 0000.0001) useCDscheme =  /* CD scheme on/off flag */
(PID.TID 0000.0001)                   T
(PID.TID 0000.0001)     ;
(PID.TID 0000.0001) useEnergyConservingCoriolis= /* Flx-Form Coriolis scheme flag */
(PID.TID 0000.0001)                   F
(PID.TID 0000.0001)     ;
(PID.TID 0000.0001) useJamartWetPoints= /* Coriolis WetPoints method flag */
(PID.TID 0000.0001)                   F
(PID.TID 0000.0001)     ;
(PID.TID 0000.0001) useJamartMomAdv= /* V.I Non-linear terms Jamart flag */
(PID.TID 0000.0001)                   F
(PID.TID 0000.0001)     ;
(PID.TID 0000.0001) useAbsVorticity= /* V.I Works with f+zeta in Coriolis */
(PID.TID 0000.0001)                   F
(PID.TID 0000.0001)     ;
(PID.TID 0000.0001) selectVortScheme= /* V.I Scheme selector for Vorticity-Term */
(PID.TID 0000.0001)               123456789
(PID.TID 0000.0001)    = 0 : enstrophy (Shallow-Water Eq.) conserving scheme by Sadourny, JAS 75
(PID.TID 0000.0001)    = 1 : same as 0 with modified hFac
(PID.TID 0000.0001)    = 2 : energy conserving scheme (used by Sadourny in JAS 75 paper)
(PID.TID 0000.0001)    = 3 : energy (general) and enstrophy (2D, nonDiv.) conserving scheme
(PID.TID 0000.0001)          from Sadourny (Burridge & Haseler, ECMWF Rep.4, 1977)
(PID.TID 0000.0001)     ;
(PID.TID 0000.0001) upwindVorticity= /* V.I Upwind bias vorticity flag */
(PID.TID 0000.0001)                   F
(PID.TID 0000.0001)     ;
(PID.TID 0000.0001) highOrderVorticity= /* V.I High order vort. advect. flag */
(PID.TID 0000.0001)                   F
(PID.TID 0000.0001)     ;
(PID.TID 0000.0001) upwindShear= /* V.I Upwind vertical Shear advection flag */
(PID.TID 0000.0001)                   F
(PID.TID 0000.0001)     ;
(PID.TID 0000.0001) selectKEscheme= /* V.I Kinetic Energy scheme selector */
(PID.TID 0000.0001)                       0
(PID.TID 0000.0001)     ;
(PID.TID 0000.0001) momForcing =  /* Momentum forcing on/off flag */
(PID.TID 0000.0001)                   T
(PID.TID 0000.0001)     ;
(PID.TID 0000.0001) momPressureForcing =  /* Momentum pressure term on/off flag */
(PID.TID 0000.0001)                   T
(PID.TID 0000.0001)     ;
(PID.TID 0000.0001) implicitIntGravWave= /* Implicit Internal Gravity Wave flag */
(PID.TID 0000.0001)                   F
(PID.TID 0000.0001)     ;
(PID.TID 0000.0001) staggerTimeStep =    /* Stagger time stepping on/off flag */
(PID.TID 0000.0001)                   F
(PID.TID 0000.0001)     ;
(PID.TID 0000.0001) doResetHFactors = /* reset thickness factors @ each time-step */
(PID.TID 0000.0001)                   F
(PID.TID 0000.0001)     ;
(PID.TID 0000.0001) multiDimAdvection =  /* enable/disable Multi-Dim Advection */
(PID.TID 0000.0001)                   T
(PID.TID 0000.0001)     ;
(PID.TID 0000.0001) useMultiDimAdvec =   /* Multi-Dim Advection is/is-not used */
(PID.TID 0000.0001)                   F
(PID.TID 0000.0001)     ;
(PID.TID 0000.0001) implicitDiffusion = /* Implicit Diffusion on/off flag */
(PID.TID 0000.0001)                   T
(PID.TID 0000.0001)     ;
(PID.TID 0000.0001) tempStepping =  /* Temperature equation on/off flag */
(PID.TID 0000.0001)                   T
(PID.TID 0000.0001)     ;
(PID.TID 0000.0001) tempAdvection = /* Temperature advection on/off flag */
(PID.TID 0000.0001)                   T
(PID.TID 0000.0001)     ;
(PID.TID 0000.0001) tempImplVertAdv = /* Temp. implicit vert. advection on/off */
(PID.TID 0000.0001)                   F
(PID.TID 0000.0001)     ;
(PID.TID 0000.0001) tempForcing  =  /* Temperature forcing on/off flag */
(PID.TID 0000.0001)                   T
(PID.TID 0000.0001)     ;
(PID.TID 0000.0001) doThetaClimRelax = /* apply SST relaxation on/off flag */
(PID.TID 0000.0001)                   T
(PID.TID 0000.0001)     ;
(PID.TID 0000.0001) tempIsActiveTr = /* Temp. is a dynamically Active Tracer */
(PID.TID 0000.0001)                   T
(PID.TID 0000.0001)     ;
(PID.TID 0000.0001) saltStepping =  /* Salinity equation on/off flag */
(PID.TID 0000.0001)                   T
(PID.TID 0000.0001)     ;
(PID.TID 0000.0001) saltAdvection = /* Salinity advection on/off flag */
(PID.TID 0000.0001)                   T
(PID.TID 0000.0001)     ;
(PID.TID 0000.0001) saltImplVertAdv = /* Sali. implicit vert. advection on/off */
(PID.TID 0000.0001)                   F
(PID.TID 0000.0001)     ;
(PID.TID 0000.0001) saltForcing  =  /* Salinity forcing on/off flag */
(PID.TID 0000.0001)                   T
(PID.TID 0000.0001)     ;
(PID.TID 0000.0001) doSaltClimRelax = /* apply SSS relaxation on/off flag */
(PID.TID 0000.0001)                   T
(PID.TID 0000.0001)     ;
(PID.TID 0000.0001) saltIsActiveTr = /* Salt  is a dynamically Active Tracer */
(PID.TID 0000.0001)                   T
(PID.TID 0000.0001)     ;
(PID.TID 0000.0001)  readBinaryPrec = /* Precision used for reading binary files */
(PID.TID 0000.0001)                      32
(PID.TID 0000.0001)     ;
(PID.TID 0000.0001) writeBinaryPrec = /* Precision used for writing binary files */
(PID.TID 0000.0001)                      64
(PID.TID 0000.0001)     ;
(PID.TID 0000.0001)  globalFiles = /* write "global" (=not per tile) files */
(PID.TID 0000.0001)                   F
(PID.TID 0000.0001)     ;
(PID.TID 0000.0001)  useSingleCpuIO = /* only master MPI process does I/O */
(PID.TID 0000.0001)                   F
(PID.TID 0000.0001)     ;
(PID.TID 0000.0001)  useSingleCpuInput = /* only master process reads input */
(PID.TID 0000.0001)                   F
(PID.TID 0000.0001)     ;
(PID.TID 0000.0001) /* debLev[*]  : level of debug & auxiliary message printing */
(PID.TID 0000.0001) debLevZero =  0 ; /* level of disabled aux. msg printing */
(PID.TID 0000.0001)    debLevA =  1 ; /* level of minimum  aux. msg printing */
(PID.TID 0000.0001)    debLevB =  2 ; /* level of low aux. print (report read-file opening)*/
(PID.TID 0000.0001)    debLevC =  3 ; /* level of moderate debug prt (most pkgs debug msg) */
(PID.TID 0000.0001)    debLevD =  4 ; /* level of enhanced debug prt (add DEBUG_STATS prt) */
(PID.TID 0000.0001)    debLevE =  5 ; /* level of extensive debug printing */
(PID.TID 0000.0001) debugLevel =  /* select debug printing level */
(PID.TID 0000.0001)                       2
(PID.TID 0000.0001)     ;
(PID.TID 0000.0001) //
(PID.TID 0000.0001) // Elliptic solver(s) paramters ( PARM02 in namelist )
(PID.TID 0000.0001) //
(PID.TID 0000.0001) cg2dMaxIters =   /* Upper limit on 2d con. grad iterations  */
(PID.TID 0000.0001)                    1000
(PID.TID 0000.0001)     ;
(PID.TID 0000.0001) cg2dChkResFreq =   /* 2d con. grad convergence test frequency */
(PID.TID 0000.0001)                       1
(PID.TID 0000.0001)     ;
(PID.TID 0000.0001) cg2dUseMinResSol= /* use cg2d last-iter(=0) / min-resid.(=1) solution */
(PID.TID 0000.0001)                       0
(PID.TID 0000.0001)     ;
(PID.TID 0000.0001) cg2dTargetResidual =   /* 2d con. grad target residual  */
(PID.TID 0000.0001)                 1.000000000000000E-13
(PID.TID 0000.0001)     ;
(PID.TID 0000.0001) cg2dTargetResWunit =   /* CG2d target residual [W units] */
(PID.TID 0000.0001)                -1.000000000000000E+00
(PID.TID 0000.0001)     ;
(PID.TID 0000.0001) cg2dPreCondFreq =   /* Freq. for updating cg2d preconditioner */
(PID.TID 0000.0001)                       1
(PID.TID 0000.0001)     ;
(PID.TID 0000.0001) useSRCGSolver =  /* use single reduction CG solver(s) */
(PID.TID 0000.0001)                   F
(PID.TID 0000.0001)     ;
(PID.TID 0000.0001) printResidualFreq = /* Freq. for printing CG residual */
(PID.TID 0000.0001)                       0
(PID.TID 0000.0001)     ;
(PID.TID 0000.0001) //
(PID.TID 0000.0001) // Time stepping paramters ( PARM03 in namelist )
(PID.TID 0000.0001) //
(PID.TID 0000.0001) deltaTMom =   /* Momentum equation timestep ( s ) */
(PID.TID 0000.0001)                 3.600000000000000E+03
(PID.TID 0000.0001)     ;
(PID.TID 0000.0001) deltaTFreeSurf = /* FreeSurface equation timestep ( s ) */
(PID.TID 0000.0001)                 3.600000000000000E+03
(PID.TID 0000.0001)     ;
(PID.TID 0000.0001) dTtracerLev =  /* Tracer equation timestep ( s ) */
(PID.TID 0000.0001)    23 @  3.600000000000000E+03              /* K =  1: 23 */
(PID.TID 0000.0001)     ;
(PID.TID 0000.0001) deltaTClock  =   /* Model clock timestep ( s ) */
(PID.TID 0000.0001)                 3.600000000000000E+03
(PID.TID 0000.0001)     ;
(PID.TID 0000.0001) cAdjFreq =   /* Convective adjustment interval ( s ) */
(PID.TID 0000.0001)                 0.000000000000000E+00
(PID.TID 0000.0001)     ;
(PID.TID 0000.0001) momForcingOutAB = /* =1: take Momentum Forcing out of Adams-Bash. stepping */
(PID.TID 0000.0001)                       0
(PID.TID 0000.0001)     ;
(PID.TID 0000.0001) tracForcingOutAB = /* =1: take T,S,pTr Forcing out of Adams-Bash. stepping */
(PID.TID 0000.0001)                       0
(PID.TID 0000.0001)     ;
(PID.TID 0000.0001) momDissip_In_AB = /* put Dissipation Tendency in Adams-Bash. stepping */
(PID.TID 0000.0001)                   T
(PID.TID 0000.0001)     ;
(PID.TID 0000.0001) doAB_onGtGs = /* apply AB on Tendencies (rather than on T,S)*/
(PID.TID 0000.0001)                   T
(PID.TID 0000.0001)     ;
(PID.TID 0000.0001) abEps =   /* Adams-Bashforth-2 stabilizing weight */
(PID.TID 0000.0001)                 1.000000000000000E-01
(PID.TID 0000.0001)     ;
(PID.TID 0000.0001) applyExchUV_early = /* Apply EXCH to U,V earlier in time-step */
(PID.TID 0000.0001)                   F
(PID.TID 0000.0001)     ;
(PID.TID 0000.0001) tauCD =   /* CD coupling time-scale ( s ) */
(PID.TID 0000.0001)                 1.728000000000000E+05
(PID.TID 0000.0001)     ;
(PID.TID 0000.0001) rCD =   /* Normalised CD coupling parameter */
(PID.TID 0000.0001)                 9.791666666666666E-01
(PID.TID 0000.0001)     ;
(PID.TID 0000.0001) epsAB_CD = /* AB-2 stabilizing weight for CD-scheme*/
(PID.TID 0000.0001)                 1.000000000000000E-01
(PID.TID 0000.0001)     ;
(PID.TID 0000.0001) pickupStrictlyMatch= /* stop if pickup do not strictly match */
(PID.TID 0000.0001)                   T
(PID.TID 0000.0001)     ;
(PID.TID 0000.0001) nIter0   =   /* Run starting timestep number */
(PID.TID 0000.0001)                       0
(PID.TID 0000.0001)     ;
(PID.TID 0000.0001) nTimeSteps = /* Number of timesteps */
(PID.TID 0000.0001)                      20
(PID.TID 0000.0001)     ;
(PID.TID 0000.0001) nEndIter =   /* Run ending timestep number */
(PID.TID 0000.0001)                      20
(PID.TID 0000.0001)     ;
(PID.TID 0000.0001) baseTime =   /* Model base time ( s ) */
(PID.TID 0000.0001)                 2.160000000000000E+04
(PID.TID 0000.0001)     ;
(PID.TID 0000.0001) startTime =  /* Run start time ( s ) */
(PID.TID 0000.0001)                 2.160000000000000E+04
(PID.TID 0000.0001)     ;
(PID.TID 0000.0001) endTime  =   /* Integration ending time ( s ) */
(PID.TID 0000.0001)                 9.360000000000000E+04
(PID.TID 0000.0001)     ;
(PID.TID 0000.0001) pChkPtFreq = /* Permanent restart/pickup file interval ( s ) */
(PID.TID 0000.0001)                 0.000000000000000E+00
(PID.TID 0000.0001)     ;
(PID.TID 0000.0001) chkPtFreq  = /* Rolling restart/pickup file interval ( s ) */
(PID.TID 0000.0001)                 0.000000000000000E+00
(PID.TID 0000.0001)     ;
(PID.TID 0000.0001) pickup_write_mdsio =   /* Model IO flag. */
(PID.TID 0000.0001)                   T
(PID.TID 0000.0001)     ;
(PID.TID 0000.0001) pickup_read_mdsio =   /* Model IO flag. */
(PID.TID 0000.0001)                   T
(PID.TID 0000.0001)     ;
(PID.TID 0000.0001) pickup_write_immed =   /* Model IO flag. */
(PID.TID 0000.0001)                   F
(PID.TID 0000.0001)     ;
(PID.TID 0000.0001) writePickupAtEnd =   /* Model IO flag. */
(PID.TID 0000.0001)                   T
(PID.TID 0000.0001)     ;
(PID.TID 0000.0001) dumpFreq =   /* Model state write out interval ( s ). */
(PID.TID 0000.0001)                 8.640000000000000E+04
(PID.TID 0000.0001)     ;
(PID.TID 0000.0001) dumpInitAndLast= /* write out Initial & Last iter. model state */
(PID.TID 0000.0001)                   T
(PID.TID 0000.0001)     ;
(PID.TID 0000.0001) snapshot_mdsio =   /* Model IO flag. */
(PID.TID 0000.0001)                   T
(PID.TID 0000.0001)     ;
(PID.TID 0000.0001) monitorFreq =   /* Monitor output interval ( s ). */
(PID.TID 0000.0001)                 1.000000000000000E+00
(PID.TID 0000.0001)     ;
(PID.TID 0000.0001) monitorSelect = /* select group of variables to monitor */
(PID.TID 0000.0001)                       3
(PID.TID 0000.0001)     ;
(PID.TID 0000.0001) monitor_stdio =   /* Model IO flag. */
(PID.TID 0000.0001)                   T
(PID.TID 0000.0001)     ;
(PID.TID 0000.0001) externForcingPeriod =   /* forcing period (s) */
(PID.TID 0000.0001)                 4.320000000000000E+04
(PID.TID 0000.0001)     ;
(PID.TID 0000.0001) externForcingCycle =   /* period of the cyle (s). */
(PID.TID 0000.0001)                 2.764800000000000E+06
(PID.TID 0000.0001)     ;
(PID.TID 0000.0001) tauThetaClimRelax =   /* relaxation time scale (s) */
(PID.TID 0000.0001)                 2.592000000000000E+06
(PID.TID 0000.0001)     ;
(PID.TID 0000.0001) tauSaltClimRelax =   /* relaxation time scale (s) */
(PID.TID 0000.0001)                 2.592000000000000E+06
(PID.TID 0000.0001)     ;
(PID.TID 0000.0001) latBandClimRelax =   /* max. Lat. where relaxation */
(PID.TID 0000.0001)                 1.800000000000000E+02
(PID.TID 0000.0001)     ;
(PID.TID 0000.0001) //
(PID.TID 0000.0001) // Gridding paramters ( PARM04 in namelist )
(PID.TID 0000.0001) //
(PID.TID 0000.0001) usingCartesianGrid = /* Cartesian coordinates flag ( True/False ) */
(PID.TID 0000.0001)                   F
(PID.TID 0000.0001)     ;
(PID.TID 0000.0001) usingCylindricalGrid = /* Cylindrical coordinates flag ( True/False ) */
(PID.TID 0000.0001)                   F
(PID.TID 0000.0001)     ;
(PID.TID 0000.0001) usingSphericalPolarGrid = /* Spherical coordinates flag ( True/False ) */
(PID.TID 0000.0001)                   T
(PID.TID 0000.0001)     ;
(PID.TID 0000.0001) usingCurvilinearGrid = /* Curvilinear coordinates flag ( True/False ) */
(PID.TID 0000.0001)                   F
(PID.TID 0000.0001)     ;
(PID.TID 0000.0001) selectSigmaCoord = /* Hybrid-Sigma Vert. Coordinate option */
(PID.TID 0000.0001)                       0
(PID.TID 0000.0001)     ;
(PID.TID 0000.0001) rSigmaBnd = /* r/sigma transition ( units of r ==  m ) */
(PID.TID 0000.0001)                 1.234567000000000E+05
(PID.TID 0000.0001)     ;
(PID.TID 0000.0001) rkSign =   /* index orientation relative to vertical coordinate */
(PID.TID 0000.0001)                -1.000000000000000E+00
(PID.TID 0000.0001)     ;
(PID.TID 0000.0001) gravitySign = /* gravity orientation relative to vertical coordinate */
(PID.TID 0000.0001)                -1.000000000000000E+00
(PID.TID 0000.0001)     ;
(PID.TID 0000.0001) seaLev_Z =  /* reference height of sea-level [m] */
(PID.TID 0000.0001)                 0.000000000000000E+00
(PID.TID 0000.0001)     ;
(PID.TID 0000.0001) top_Pres =  /* reference pressure at the top [Pa] */
(PID.TID 0000.0001)                 0.000000000000000E+00
(PID.TID 0000.0001)     ;
(PID.TID 0000.0001) mass2rUnit = /* convert mass per unit area [kg/m2] to r-units [m] */
(PID.TID 0000.0001)                 1.000200040008002E-03
(PID.TID 0000.0001)     ;
(PID.TID 0000.0001) rUnit2mass = /* convert r-units [m] to mass per unit area [kg/m2] */
(PID.TID 0000.0001)                 9.998000000000000E+02
(PID.TID 0000.0001)     ;
(PID.TID 0000.0001) drC =   /* C spacing ( units of r ) */
(PID.TID 0000.0001)                 5.000000000000000E+00,      /* K =  1 */
(PID.TID 0000.0001)                 1.000000000000000E+01,      /* K =  2 */
(PID.TID 0000.0001)                 1.250000000000000E+01,      /* K =  3 */
(PID.TID 0000.0001)                 1.750000000000000E+01,      /* K =  4 */
(PID.TID 0000.0001)                 2.000000000000000E+01,      /* K =  5 */
(PID.TID 0000.0001)                 2.250000000000000E+01,      /* K =  6 */
(PID.TID 0000.0001)                 3.000000000000000E+01,      /* K =  7 */
(PID.TID 0000.0001)                 4.250000000000000E+01,      /* K =  8 */
(PID.TID 0000.0001)                 6.250000000000000E+01,      /* K =  9 */
(PID.TID 0000.0001)                 8.750000000000000E+01,      /* K = 10 */
(PID.TID 0000.0001)                 1.250000000000000E+02,      /* K = 11 */
(PID.TID 0000.0001)                 1.750000000000000E+02,      /* K = 12 */
(PID.TID 0000.0001)                 2.375000000000000E+02,      /* K = 13 */
(PID.TID 0000.0001)                 3.125000000000000E+02,      /* K = 14 */
(PID.TID 0000.0001)                 3.825000000000000E+02,      /* K = 15 */
(PID.TID 0000.0001)                 4.325000000000000E+02,      /* K = 16 */
(PID.TID 0000.0001)                 4.750000000000000E+02,      /* K = 17 */
(PID.TID 0000.0001)     6 @  5.000000000000000E+02,             /* K = 18: 23 */
(PID.TID 0000.0001)                 2.500000000000000E+02       /* K = 24 */
(PID.TID 0000.0001)     ;
(PID.TID 0000.0001) drF =   /* W spacing ( units of r ) */
(PID.TID 0000.0001)     2 @  1.000000000000000E+01,             /* K =  1:  2 */
(PID.TID 0000.0001)                 1.500000000000000E+01,      /* K =  3 */
(PID.TID 0000.0001)     2 @  2.000000000000000E+01,             /* K =  4:  5 */
(PID.TID 0000.0001)                 2.500000000000000E+01,      /* K =  6 */
(PID.TID 0000.0001)                 3.500000000000000E+01,      /* K =  7 */
(PID.TID 0000.0001)                 5.000000000000000E+01,      /* K =  8 */
(PID.TID 0000.0001)                 7.500000000000000E+01,      /* K =  9 */
(PID.TID 0000.0001)                 1.000000000000000E+02,      /* K = 10 */
(PID.TID 0000.0001)                 1.500000000000000E+02,      /* K = 11 */
(PID.TID 0000.0001)                 2.000000000000000E+02,      /* K = 12 */
(PID.TID 0000.0001)                 2.750000000000000E+02,      /* K = 13 */
(PID.TID 0000.0001)                 3.500000000000000E+02,      /* K = 14 */
(PID.TID 0000.0001)                 4.150000000000000E+02,      /* K = 15 */
(PID.TID 0000.0001)                 4.500000000000000E+02,      /* K = 16 */
(PID.TID 0000.0001)     7 @  5.000000000000000E+02              /* K = 17: 23 */
(PID.TID 0000.0001)     ;
(PID.TID 0000.0001) delX = /* U spacing ( m - cartesian, degrees - spherical ) */
(PID.TID 0000.0001)    20 @  2.000000000000000E+00              /* I =  1: 20 */
(PID.TID 0000.0001)     ;
(PID.TID 0000.0001) delY = /* V spacing ( m - cartesian, degrees - spherical ) */
(PID.TID 0000.0001)    16 @  2.000000000000000E+00              /* J =  1: 16 */
(PID.TID 0000.0001)     ;
(PID.TID 0000.0001) xgOrigin = /* X-axis origin of West  edge (cartesian: m, lat-lon: deg) */
(PID.TID 0000.0001)                -4.200000000000000E+01
(PID.TID 0000.0001)     ;
(PID.TID 0000.0001) ygOrigin = /* Y-axis origin of South edge (cartesian: m, lat-lon: deg) */
(PID.TID 0000.0001)                 1.000000000000000E+01
(PID.TID 0000.0001)     ;
(PID.TID 0000.0001) rSphere =  /* Radius ( ignored - cartesian, m - spherical ) */
(PID.TID 0000.0001)                 6.370000000000000E+06
(PID.TID 0000.0001)     ;
(PID.TID 0000.0001) deepAtmosphere = /* Deep/Shallow Atmosphere flag (True/False) */
(PID.TID 0000.0001)                   F
(PID.TID 0000.0001)     ;
(PID.TID 0000.0001) xC =  /* xC(:,1,:,1) : P-point X coord ( deg. or m if cartesian) */
(PID.TID 0000.0001)                -4.100000000000000E+01,      /* I =  1 */
(PID.TID 0000.0001)                -3.900000000000000E+01,      /* I =  2 */
(PID.TID 0000.0001)                -3.700000000000000E+01,      /* I =  3 */
(PID.TID 0000.0001)                -3.500000000000000E+01,      /* I =  4 */
(PID.TID 0000.0001)                -3.300000000000000E+01,      /* I =  5 */
(PID.TID 0000.0001)                -3.100000000000000E+01,      /* I =  6 */
(PID.TID 0000.0001)                -2.900000000000000E+01,      /* I =  7 */
(PID.TID 0000.0001)                -2.700000000000000E+01,      /* I =  8 */
(PID.TID 0000.0001)                -2.500000000000000E+01,      /* I =  9 */
(PID.TID 0000.0001)                -2.300000000000000E+01,      /* I = 10 */
(PID.TID 0000.0001)                -2.100000000000000E+01,      /* I = 11 */
(PID.TID 0000.0001)                -1.900000000000000E+01,      /* I = 12 */
(PID.TID 0000.0001)                -1.700000000000000E+01,      /* I = 13 */
(PID.TID 0000.0001)                -1.500000000000000E+01,      /* I = 14 */
(PID.TID 0000.0001)                -1.300000000000000E+01,      /* I = 15 */
(PID.TID 0000.0001)                -1.100000000000000E+01,      /* I = 16 */
(PID.TID 0000.0001)                -9.000000000000000E+00,      /* I = 17 */
(PID.TID 0000.0001)                -7.000000000000000E+00,      /* I = 18 */
(PID.TID 0000.0001)                -5.000000000000000E+00,      /* I = 19 */
(PID.TID 0000.0001)                -3.000000000000000E+00       /* I = 20 */
(PID.TID 0000.0001)     ;
(PID.TID 0000.0001) yC =  /* yC(1,:,1,:) : P-point Y coord ( deg. or m if cartesian) */
(PID.TID 0000.0001)                 1.100000000000000E+01,      /* J =  1 */
(PID.TID 0000.0001)                 1.300000000000000E+01,      /* J =  2 */
(PID.TID 0000.0001)                 1.500000000000000E+01,      /* J =  3 */
(PID.TID 0000.0001)                 1.700000000000000E+01,      /* J =  4 */
(PID.TID 0000.0001)                 1.900000000000000E+01,      /* J =  5 */
(PID.TID 0000.0001)                 2.100000000000000E+01,      /* J =  6 */
(PID.TID 0000.0001)                 2.300000000000000E+01,      /* J =  7 */
(PID.TID 0000.0001)                 2.500000000000000E+01,      /* J =  8 */
(PID.TID 0000.0001)                 2.700000000000000E+01,      /* J =  9 */
(PID.TID 0000.0001)                 2.900000000000000E+01,      /* J = 10 */
(PID.TID 0000.0001)                 3.100000000000000E+01,      /* J = 11 */
(PID.TID 0000.0001)                 3.300000000000000E+01,      /* J = 12 */
(PID.TID 0000.0001)                 3.500000000000000E+01,      /* J = 13 */
(PID.TID 0000.0001)                 3.700000000000000E+01,      /* J = 14 */
(PID.TID 0000.0001)                 3.900000000000000E+01,      /* J = 15 */
(PID.TID 0000.0001)                 4.100000000000000E+01       /* J = 16 */
(PID.TID 0000.0001)     ;
(PID.TID 0000.0001) rcoord = /* P-point R coordinate (  units of r ) */
(PID.TID 0000.0001)                -5.000000000000000E+00,      /* K =  1 */
(PID.TID 0000.0001)                -1.500000000000000E+01,      /* K =  2 */
(PID.TID 0000.0001)                -2.750000000000000E+01,      /* K =  3 */
(PID.TID 0000.0001)                -4.500000000000000E+01,      /* K =  4 */
(PID.TID 0000.0001)                -6.500000000000000E+01,      /* K =  5 */
(PID.TID 0000.0001)                -8.750000000000000E+01,      /* K =  6 */
(PID.TID 0000.0001)                -1.175000000000000E+02,      /* K =  7 */
(PID.TID 0000.0001)                -1.600000000000000E+02,      /* K =  8 */
(PID.TID 0000.0001)                -2.225000000000000E+02,      /* K =  9 */
(PID.TID 0000.0001)                -3.100000000000000E+02,      /* K = 10 */
(PID.TID 0000.0001)                -4.350000000000000E+02,      /* K = 11 */
(PID.TID 0000.0001)                -6.100000000000000E+02,      /* K = 12 */
(PID.TID 0000.0001)                -8.475000000000000E+02,      /* K = 13 */
(PID.TID 0000.0001)                -1.160000000000000E+03,      /* K = 14 */
(PID.TID 0000.0001)                -1.542500000000000E+03,      /* K = 15 */
(PID.TID 0000.0001)                -1.975000000000000E+03,      /* K = 16 */
(PID.TID 0000.0001)                -2.450000000000000E+03,      /* K = 17 */
(PID.TID 0000.0001)                -2.950000000000000E+03,      /* K = 18 */
(PID.TID 0000.0001)                -3.450000000000000E+03,      /* K = 19 */
(PID.TID 0000.0001)                -3.950000000000000E+03,      /* K = 20 */
(PID.TID 0000.0001)                -4.450000000000000E+03,      /* K = 21 */
(PID.TID 0000.0001)                -4.950000000000000E+03,      /* K = 22 */
(PID.TID 0000.0001)                -5.450000000000000E+03       /* K = 23 */
(PID.TID 0000.0001)     ;
(PID.TID 0000.0001) rF =   /* W-Interf. R coordinate (  units of r ) */
(PID.TID 0000.0001)                 0.000000000000000E+00,      /* K =  1 */
(PID.TID 0000.0001)                -1.000000000000000E+01,      /* K =  2 */
(PID.TID 0000.0001)                -2.000000000000000E+01,      /* K =  3 */
(PID.TID 0000.0001)                -3.500000000000000E+01,      /* K =  4 */
(PID.TID 0000.0001)                -5.500000000000000E+01,      /* K =  5 */
(PID.TID 0000.0001)                -7.500000000000000E+01,      /* K =  6 */
(PID.TID 0000.0001)                -1.000000000000000E+02,      /* K =  7 */
(PID.TID 0000.0001)                -1.350000000000000E+02,      /* K =  8 */
(PID.TID 0000.0001)                -1.850000000000000E+02,      /* K =  9 */
(PID.TID 0000.0001)                -2.600000000000000E+02,      /* K = 10 */
(PID.TID 0000.0001)                -3.600000000000000E+02,      /* K = 11 */
(PID.TID 0000.0001)                -5.100000000000000E+02,      /* K = 12 */
(PID.TID 0000.0001)                -7.100000000000000E+02,      /* K = 13 */
(PID.TID 0000.0001)                -9.850000000000000E+02,      /* K = 14 */
(PID.TID 0000.0001)                -1.335000000000000E+03,      /* K = 15 */
(PID.TID 0000.0001)                -1.750000000000000E+03,      /* K = 16 */
(PID.TID 0000.0001)                -2.200000000000000E+03,      /* K = 17 */
(PID.TID 0000.0001)                -2.700000000000000E+03,      /* K = 18 */
(PID.TID 0000.0001)                -3.200000000000000E+03,      /* K = 19 */
(PID.TID 0000.0001)                -3.700000000000000E+03,      /* K = 20 */
(PID.TID 0000.0001)                -4.200000000000000E+03,      /* K = 21 */
(PID.TID 0000.0001)                -4.700000000000000E+03,      /* K = 22 */
(PID.TID 0000.0001)                -5.200000000000000E+03,      /* K = 23 */
(PID.TID 0000.0001)                -5.700000000000000E+03       /* K = 24 */
(PID.TID 0000.0001)     ;
(PID.TID 0000.0001) deepFacC = /* deep-model grid factor @ cell-Center (-) */
(PID.TID 0000.0001)    23 @  1.000000000000000E+00              /* K =  1: 23 */
(PID.TID 0000.0001)     ;
(PID.TID 0000.0001) deepFacF = /* deep-model grid factor @ W-Interface (-) */
(PID.TID 0000.0001)    24 @  1.000000000000000E+00              /* K =  1: 24 */
(PID.TID 0000.0001)     ;
(PID.TID 0000.0001) rVel2wUnit = /* convert units: rVel -> wSpeed (=1 if z-coord)*/
(PID.TID 0000.0001)    24 @  1.000000000000000E+00              /* K =  1: 24 */
(PID.TID 0000.0001)     ;
(PID.TID 0000.0001) wUnit2rVel = /* convert units: wSpeed -> rVel (=1 if z-coord)*/
(PID.TID 0000.0001)    24 @  1.000000000000000E+00              /* K =  1: 24 */
(PID.TID 0000.0001)     ;
(PID.TID 0000.0001) dBdrRef = /* Vertical grad. of reference buoyancy [(m/s/r)^2] */
(PID.TID 0000.0001)    23 @  0.000000000000000E+00              /* K =  1: 23 */
(PID.TID 0000.0001)     ;
(PID.TID 0000.0001) rotateGrid = /* use rotated grid ( True/False ) */
(PID.TID 0000.0001)                   F
(PID.TID 0000.0001)     ;
(PID.TID 0000.0001) phiEuler = /* Euler angle, rotation about original z-coordinate [rad] */
(PID.TID 0000.0001)                 0.000000000000000E+00
(PID.TID 0000.0001)     ;
(PID.TID 0000.0001) thetaEuler = /* Euler angle, rotation about new x-coordinate [rad] */
(PID.TID 0000.0001)                 0.000000000000000E+00
(PID.TID 0000.0001)     ;
(PID.TID 0000.0001) psiEuler = /* Euler angle, rotation about new z-coordinate [rad] */
(PID.TID 0000.0001)                 0.000000000000000E+00
(PID.TID 0000.0001)     ;
(PID.TID 0000.0001) dxF =  /* dxF(:,1,:,1) ( units: m ) */
(PID.TID 0000.0001)    20 @  2.182696600587791E+05              /* I =  1: 20 */
(PID.TID 0000.0001)     ;
(PID.TID 0000.0001) dxF =  /* dxF(1,:,1,:) ( units: m ) */
(PID.TID 0000.0001)                 2.182696600587791E+05,      /* J =  1 */
(PID.TID 0000.0001)                 2.166560038253696E+05,      /* J =  2 */
(PID.TID 0000.0001)                 2.147783856245979E+05,      /* J =  3 */
(PID.TID 0000.0001)                 2.126390930450167E+05,      /* J =  4 */
(PID.TID 0000.0001)                 2.102407324851014E+05,      /* J =  5 */
(PID.TID 0000.0001)                 2.075862259777553E+05,      /* J =  6 */
(PID.TID 0000.0001)                 2.046788076302621E+05,      /* J =  7 */
(PID.TID 0000.0001)                 2.015220196840248E+05,      /* J =  8 */
(PID.TID 0000.0001)                 1.981197081988899E+05,      /* J =  9 */
(PID.TID 0000.0001)                 1.944760183673163E+05,      /* J = 10 */
(PID.TID 0000.0001)                 1.905953894640962E+05,      /* J = 11 */
(PID.TID 0000.0001)                 1.864825494377832E+05,      /* J = 12 */
(PID.TID 0000.0001)                 1.821425091504150E+05,      /* J = 13 */
(PID.TID 0000.0001)                 1.775805562725496E+05,      /* J = 14 */
(PID.TID 0000.0001)                 1.728022488410539E+05,      /* J = 15 */
(PID.TID 0000.0001)                 1.678134084874913E+05       /* J = 16 */
(PID.TID 0000.0001)     ;
(PID.TID 0000.0001) dyF =  /* dyF(:,1,:,1) ( units: m ) */
(PID.TID 0000.0001)    20 @  2.223549467040776E+05              /* I =  1: 20 */
(PID.TID 0000.0001)     ;
(PID.TID 0000.0001) dyF =  /* dyF(1,:,1,:) ( units: m ) */
(PID.TID 0000.0001)    16 @  2.223549467040776E+05              /* J =  1: 16 */
(PID.TID 0000.0001)     ;
(PID.TID 0000.0001) dxG =  /* dxG(:,1,:,1) ( units: m ) */
(PID.TID 0000.0001)    20 @  2.189768754347919E+05              /* I =  1: 20 */
(PID.TID 0000.0001)     ;
(PID.TID 0000.0001) dxG =  /* dxG(1,:,1,:) ( units: m ) */
(PID.TID 0000.0001)                 2.189768754347919E+05,      /* J =  1 */
(PID.TID 0000.0001)                 2.174959576298867E+05,      /* J =  2 */
(PID.TID 0000.0001)                 2.157500545032935E+05,      /* J =  3 */
(PID.TID 0000.0001)                 2.137412931690361E+05,      /* J =  4 */
(PID.TID 0000.0001)                 2.114721209933746E+05,      /* J =  5 */
(PID.TID 0000.0001)                 2.089453026130656E+05,      /* J =  6 */
(PID.TID 0000.0001)                 2.061639165670793E+05,      /* J =  7 */
(PID.TID 0000.0001)                 2.031313515458727E+05,      /* J =  8 */
(PID.TID 0000.0001)                 1.998513022627935E+05,      /* J =  9 */
(PID.TID 0000.0001)                 1.963277649526403E+05,      /* J = 10 */
(PID.TID 0000.0001)                 1.925650325028661E+05,      /* J = 11 */
(PID.TID 0000.0001)                 1.885676892233566E+05,      /* J = 12 */
(PID.TID 0000.0001)                 1.843406052611541E+05,      /* J = 13 */
(PID.TID 0000.0001)                 1.798889306669345E+05,      /* J = 14 */
(PID.TID 0000.0001)                 1.752180891204627E+05,      /* J = 15 */
(PID.TID 0000.0001)                 1.703337713226751E+05       /* J = 16 */
(PID.TID 0000.0001)     ;
(PID.TID 0000.0001) dyG =  /* dyG(:,1,:,1) ( units: m ) */
(PID.TID 0000.0001)    20 @  2.223549467040776E+05              /* I =  1: 20 */
(PID.TID 0000.0001)     ;
(PID.TID 0000.0001) dyG =  /* dyG(1,:,1,:) ( units: m ) */
(PID.TID 0000.0001)    16 @  2.223549467040776E+05              /* J =  1: 16 */
(PID.TID 0000.0001)     ;
(PID.TID 0000.0001) dxC =  /* dxC(:,1,:,1) ( units: m ) */
(PID.TID 0000.0001)    20 @  2.182696600587791E+05              /* I =  1: 20 */
(PID.TID 0000.0001)     ;
(PID.TID 0000.0001) dxC =  /* dxC(1,:,1,:) ( units: m ) */
(PID.TID 0000.0001)                 2.182696600587791E+05,      /* J =  1 */
(PID.TID 0000.0001)                 2.166560038253696E+05,      /* J =  2 */
(PID.TID 0000.0001)                 2.147783856245979E+05,      /* J =  3 */
(PID.TID 0000.0001)                 2.126390930450167E+05,      /* J =  4 */
(PID.TID 0000.0001)                 2.102407324851014E+05,      /* J =  5 */
(PID.TID 0000.0001)                 2.075862259777553E+05,      /* J =  6 */
(PID.TID 0000.0001)                 2.046788076302621E+05,      /* J =  7 */
(PID.TID 0000.0001)                 2.015220196840248E+05,      /* J =  8 */
(PID.TID 0000.0001)                 1.981197081988899E+05,      /* J =  9 */
(PID.TID 0000.0001)                 1.944760183673163E+05,      /* J = 10 */
(PID.TID 0000.0001)                 1.905953894640962E+05,      /* J = 11 */
(PID.TID 0000.0001)                 1.864825494377832E+05,      /* J = 12 */
(PID.TID 0000.0001)                 1.821425091504150E+05,      /* J = 13 */
(PID.TID 0000.0001)                 1.775805562725496E+05,      /* J = 14 */
(PID.TID 0000.0001)                 1.728022488410539E+05,      /* J = 15 */
(PID.TID 0000.0001)                 1.678134084874913E+05       /* J = 16 */
(PID.TID 0000.0001)     ;
(PID.TID 0000.0001) dyC =  /* dyC(:,1,:,1) ( units: m ) */
(PID.TID 0000.0001)    20 @  2.223549467040776E+05              /* I =  1: 20 */
(PID.TID 0000.0001)     ;
(PID.TID 0000.0001) dyC =  /* dyC(1,:,1,:) ( units: m ) */
(PID.TID 0000.0001)    16 @  2.223549467040776E+05              /* J =  1: 16 */
(PID.TID 0000.0001)     ;
(PID.TID 0000.0001) dxV =  /* dxV(:,1,:,1) ( units: m ) */
(PID.TID 0000.0001)    20 @  2.189768754347919E+05              /* I =  1: 20 */
(PID.TID 0000.0001)     ;
(PID.TID 0000.0001) dxV =  /* dxV(1,:,1,:) ( units: m ) */
(PID.TID 0000.0001)                 2.189768754347919E+05,      /* J =  1 */
(PID.TID 0000.0001)                 2.174959576298867E+05,      /* J =  2 */
(PID.TID 0000.0001)                 2.157500545032935E+05,      /* J =  3 */
(PID.TID 0000.0001)                 2.137412931690361E+05,      /* J =  4 */
(PID.TID 0000.0001)                 2.114721209933746E+05,      /* J =  5 */
(PID.TID 0000.0001)                 2.089453026130656E+05,      /* J =  6 */
(PID.TID 0000.0001)                 2.061639165670793E+05,      /* J =  7 */
(PID.TID 0000.0001)                 2.031313515458727E+05,      /* J =  8 */
(PID.TID 0000.0001)                 1.998513022627935E+05,      /* J =  9 */
(PID.TID 0000.0001)                 1.963277649526403E+05,      /* J = 10 */
(PID.TID 0000.0001)                 1.925650325028661E+05,      /* J = 11 */
(PID.TID 0000.0001)                 1.885676892233566E+05,      /* J = 12 */
(PID.TID 0000.0001)                 1.843406052611541E+05,      /* J = 13 */
(PID.TID 0000.0001)                 1.798889306669345E+05,      /* J = 14 */
(PID.TID 0000.0001)                 1.752180891204627E+05,      /* J = 15 */
(PID.TID 0000.0001)                 1.703337713226751E+05       /* J = 16 */
(PID.TID 0000.0001)     ;
(PID.TID 0000.0001) dyU =  /* dyU(:,1,:,1) ( units: m ) */
(PID.TID 0000.0001)    20 @  2.223549467040776E+05              /* I =  1: 20 */
(PID.TID 0000.0001)     ;
(PID.TID 0000.0001) dyU =  /* dyU(1,:,1,:) ( units: m ) */
(PID.TID 0000.0001)    16 @  2.223549467040776E+05              /* J =  1: 16 */
(PID.TID 0000.0001)     ;
(PID.TID 0000.0001) rA  =  /* rA (:,1,:,1) ( units: m^2 ) */
(PID.TID 0000.0001)    20 @  4.853087465028468E+10              /* I =  1: 20 */
(PID.TID 0000.0001)     ;
(PID.TID 0000.0001) rA  =  /* rA (1,:,1,:) ( units: m^2 ) */
(PID.TID 0000.0001)                 4.853087465028468E+10,      /* J =  1 */
(PID.TID 0000.0001)                 4.817208842057614E+10,      /* J =  2 */
(PID.TID 0000.0001)                 4.775461192146850E+10,      /* J =  3 */
(PID.TID 0000.0001)                 4.727895378376868E+10,      /* J =  4 */
(PID.TID 0000.0001)                 4.674569352364785E+10,      /* J =  5 */
(PID.TID 0000.0001)                 4.615548083659052E+10,      /* J =  6 */
(PID.TID 0000.0001)                 4.550903480584064E+10,      /* J =  7 */
(PID.TID 0000.0001)                 4.480714302630917E+10,      /* J =  8 */
(PID.TID 0000.0001)                 4.405066064501157E+10,      /* J =  9 */
(PID.TID 0000.0001)                 4.324050931920184E+10,      /* J = 10 */
(PID.TID 0000.0001)                 4.237767609347683E+10,      /* J = 11 */
(PID.TID 0000.0001)                 4.146321219721255E+10,      /* J = 12 */
(PID.TID 0000.0001)                 4.049823176380374E+10,      /* J = 13 */
(PID.TID 0000.0001)                 3.948391047326549E+10,      /* J = 14 */
(PID.TID 0000.0001)                 3.842148411984549E+10,      /* J = 15 */
(PID.TID 0000.0001)                 3.731224710640178E+10       /* J = 16 */
(PID.TID 0000.0001)     ;
(PID.TID 0000.0001) rAw =  /* rAw(:,1,:,1) ( units: m^2 ) */
(PID.TID 0000.0001)    20 @  4.853087465028468E+10              /* I =  1: 20 */
(PID.TID 0000.0001)     ;
(PID.TID 0000.0001) rAw =  /* rAw(1,:,1,:) ( units: m^2 ) */
(PID.TID 0000.0001)                 4.853087465028468E+10,      /* J =  1 */
(PID.TID 0000.0001)                 4.817208842057614E+10,      /* J =  2 */
(PID.TID 0000.0001)                 4.775461192146850E+10,      /* J =  3 */
(PID.TID 0000.0001)                 4.727895378376868E+10,      /* J =  4 */
(PID.TID 0000.0001)                 4.674569352364785E+10,      /* J =  5 */
(PID.TID 0000.0001)                 4.615548083659052E+10,      /* J =  6 */
(PID.TID 0000.0001)                 4.550903480584064E+10,      /* J =  7 */
(PID.TID 0000.0001)                 4.480714302630917E+10,      /* J =  8 */
(PID.TID 0000.0001)                 4.405066064501157E+10,      /* J =  9 */
(PID.TID 0000.0001)                 4.324050931920184E+10,      /* J = 10 */
(PID.TID 0000.0001)                 4.237767609347683E+10,      /* J = 11 */
(PID.TID 0000.0001)                 4.146321219721255E+10,      /* J = 12 */
(PID.TID 0000.0001)                 4.049823176380374E+10,      /* J = 13 */
(PID.TID 0000.0001)                 3.948391047326549E+10,      /* J = 14 */
(PID.TID 0000.0001)                 3.842148411984549E+10,      /* J = 15 */
(PID.TID 0000.0001)                 3.731224710640178E+10       /* J = 16 */
(PID.TID 0000.0001)     ;
(PID.TID 0000.0001) rAs =  /* rAs(:,1,:,1) ( units: m^2 ) */
(PID.TID 0000.0001)    20 @  4.868811950398895E+10              /* I =  1: 20 */
(PID.TID 0000.0001)     ;
(PID.TID 0000.0001) rAs =  /* rAs(1,:,1,:) ( units: m^2 ) */
(PID.TID 0000.0001)                 4.868811950398895E+10,      /* J =  1 */
(PID.TID 0000.0001)                 4.835884682203275E+10,      /* J =  2 */
(PID.TID 0000.0001)                 4.797065633433311E+10,      /* J =  3 */
(PID.TID 0000.0001)                 4.752402099120342E+10,      /* J =  4 */
(PID.TID 0000.0001)                 4.701948494900997E+10,      /* J =  5 */
(PID.TID 0000.0001)                 4.645766290720264E+10,      /* J =  6 */
(PID.TID 0000.0001)                 4.583923935939737E+10,      /* J =  7 */
(PID.TID 0000.0001)                 4.516496775942608E+10,      /* J =  8 */
(PID.TID 0000.0001)                 4.443566960336987E+10,      /* J =  9 */
(PID.TID 0000.0001)                 4.365223342869237E+10,      /* J = 10 */
(PID.TID 0000.0001)                 4.281561373169270E+10,      /* J = 11 */
(PID.TID 0000.0001)                 4.192682980460108E+10,      /* J = 12 */
(PID.TID 0000.0001)                 4.098696449372525E+10,      /* J = 13 */
(PID.TID 0000.0001)                 3.999716288017197E+10,      /* J = 14 */
(PID.TID 0000.0001)                 3.895863088473959E+10,      /* J = 15 */
(PID.TID 0000.0001)                 3.787263379869147E+10       /* J = 16 */
(PID.TID 0000.0001)     ;
(PID.TID 0000.0001) globalArea = /* Integrated horizontal Area (m^2) */
(PID.TID 0000.0001)                 8.853746056302287E+12
(PID.TID 0000.0001)     ;
(PID.TID 0000.0001) // =======================================================
(PID.TID 0000.0001) // End of Model config. summary
(PID.TID 0000.0001) // =======================================================
(PID.TID 0000.0001) 
(PID.TID 0000.0001) == Packages configuration : Check & print summary ==
(PID.TID 0000.0001) 
(PID.TID 0000.0001) KPP_CHECK: #define ALLOW_KPP
(PID.TID 0000.0001) GMREDI_CHECK: #define GMREDI
(PID.TID 0000.0001) GM_AdvForm =     /* if FALSE => use SkewFlux Form */
(PID.TID 0000.0001)                   F
(PID.TID 0000.0001)     ;
(PID.TID 0000.0001) GM_InMomAsStress = /* if TRUE => apply as Eddy Stress */
(PID.TID 0000.0001)                   F
(PID.TID 0000.0001)     ;
(PID.TID 0000.0001) GM_AdvSeparate = /* Calc Bolus & Euler Adv. separately */
(PID.TID 0000.0001)                   F
(PID.TID 0000.0001)     ;
(PID.TID 0000.0001) GM_ExtraDiag =   /* Tensor Extra Diag (line 1&2) non 0 */
(PID.TID 0000.0001)                   F
(PID.TID 0000.0001)     ;
(PID.TID 0000.0001) GM_isopycK =    /* Background Isopyc. Diffusivity [m^2/s] */
(PID.TID 0000.0001)                 8.000000000000000E+02
(PID.TID 0000.0001)     ;
(PID.TID 0000.0001) GM_skewflx*K =  /* Background GM_SkewFlx Diffusivity [m^2/s] */
(PID.TID 0000.0001)                 8.000000000000000E+02
(PID.TID 0000.0001)     ;
(PID.TID 0000.0001) GM_advec*K =    /* Backg. GM-Advec(=Bolus) Diffusivity [m^2/s]*/
(PID.TID 0000.0001)                 0.000000000000000E+00
(PID.TID 0000.0001)     ;
(PID.TID 0000.0001) GM_Kmin_horiz = /* Minimum Horizontal Diffusivity [m^2/s] */
(PID.TID 0000.0001)                 5.000000000000000E+01
(PID.TID 0000.0001)     ;
(PID.TID 0000.0001) GM_Visbeck_alpha = /* Visbeck alpha coeff. [-] */
(PID.TID 0000.0001)                 0.000000000000000E+00
(PID.TID 0000.0001)     ;
(PID.TID 0000.0001) GM_Small_Number =  /* epsilon used in slope calc */
(PID.TID 0000.0001)                 9.999999999999999E-21
(PID.TID 0000.0001)     ;
(PID.TID 0000.0001) GM_slopeSqCutoff = /* Slope^2 cut-off value */
(PID.TID 0000.0001)                 1.000000000000000E+48
(PID.TID 0000.0001)     ;
(PID.TID 0000.0001) GM_taper_scheme =  /* Type of Tapering/Clipping scheme */
(PID.TID 0000.0001)               'gkw91                                   '
(PID.TID 0000.0001)     ;
(PID.TID 0000.0001) GM_maxSlope =  /* Maximum Slope (Tapering/Clipping) */
(PID.TID 0000.0001)                 1.000000000000000E-02
(PID.TID 0000.0001)     ;
(PID.TID 0000.0001) GM_facTrL2dz = /* Minimum Trans.Layer Thick. (factor of dz) */
(PID.TID 0000.0001)                 1.000000000000000E+00
(PID.TID 0000.0001)     ;
(PID.TID 0000.0001) GM_facTrL2ML = /* Max.Trans.Layer Thick. (factor of MxL Depth)*/
(PID.TID 0000.0001)                 5.000000000000000E+00
(PID.TID 0000.0001)     ;
(PID.TID 0000.0001) GM_maxTransLay = /* Maximum Transition Layer Thickness [m] */
(PID.TID 0000.0001)                 5.000000000000000E+02
(PID.TID 0000.0001)     ;
(PID.TID 0000.0001) GM_UseBVP = /* if TRUE => use bvp a la Ferrari et al. (2010) */
(PID.TID 0000.0001)                   F
(PID.TID 0000.0001)     ;
(PID.TID 0000.0001) GM_BVP_ModeNumber = /* Vertical mode number for BVP wave speed */
(PID.TID 0000.0001)                       1
(PID.TID 0000.0001)     ;
(PID.TID 0000.0001) GM_BVP_cMin = /* Minimum wave speed for BVP [m/s] */
(PID.TID 0000.0001)                 1.000000000000000E-01
(PID.TID 0000.0001)     ;
(PID.TID 0000.0001) GM_useSubMeso = /* if TRUE => use Sub-Meso param. (B.Fox-Kemper) */
(PID.TID 0000.0001)                   F
(PID.TID 0000.0001)     ;
(PID.TID 0000.0001) subMeso_Ceff = /* efficiency coeff. of Mixed-Layer Eddies [-] */
(PID.TID 0000.0001)                 7.000000000000001E-02
(PID.TID 0000.0001)     ;
(PID.TID 0000.0001) subMeso_invTau = /* inverse of Sub-Meso mixing time-scale [/s] */
(PID.TID 0000.0001)                 2.000000000000000E-06
(PID.TID 0000.0001)     ;
(PID.TID 0000.0001) subMeso_LfMin = /* minimum length-scale "Lf" [m] */
(PID.TID 0000.0001)                 1.000000000000000E+03
(PID.TID 0000.0001)     ;
(PID.TID 0000.0001) subMeso_Lmax = /* maximum grid-scale length [m] */
(PID.TID 0000.0001)                 1.100000000000000E+05
(PID.TID 0000.0001)     ;
(PID.TID 0000.0001) PTRACERS_CHECK: #define ALLOW_PTRACERS
(PID.TID 0000.0001) // ===================================
(PID.TID 0000.0001) // PTRACERS parameters
(PID.TID 0000.0001) // ===================================
(PID.TID 0000.0001) PTRACERS_numInUse = /* number of tracers */
(PID.TID 0000.0001)                       1
(PID.TID 0000.0001)     ;
(PID.TID 0000.0001) PTRACERS_Iter0 = /* timestep number when tracers are initialized */
(PID.TID 0000.0001)                       0
(PID.TID 0000.0001)     ;
(PID.TID 0000.0001) PTRACERS_startAllTrc =/* all tracers start @ startTime */
(PID.TID 0000.0001)                   T
(PID.TID 0000.0001)     ;
(PID.TID 0000.0001) PTRACERS_doAB_onGpTr =/* apply AB on Tendencies (rather than on Tracers) */
(PID.TID 0000.0001)                   T
(PID.TID 0000.0001)     ;
(PID.TID 0000.0001) PTRACERS_addSrelax2EmP =/* add Salt relaxation to EmP */
(PID.TID 0000.0001)                   F
(PID.TID 0000.0001)     ;
(PID.TID 0000.0001) PTRACERS_dTLev =   /* Ptracer timestep ( s ) */
(PID.TID 0000.0001)    23 @  7.200000000000000E+03              /* K =  1: 23 */
(PID.TID 0000.0001)     ;
(PID.TID 0000.0001) PTRACERS_monitorFreq = /* Frequency^-1 for monitor output (s) */
(PID.TID 0000.0001)                 1.000000000000000E+00
(PID.TID 0000.0001)     ;
(PID.TID 0000.0001) PTRACERS_dumpFreq = /* Frequency^-1 for snapshot output (s) */
(PID.TID 0000.0001)                 8.640000000000000E+04
(PID.TID 0000.0001)     ;
(PID.TID 0000.0001) PTRACERS_taveFreq = /* Frequency^-1 for time-Aver. output (s) */
(PID.TID 0000.0001)                 0.000000000000000E+00
(PID.TID 0000.0001)     ;
(PID.TID 0000.0001) PTRACERS_useRecords = /* all tracers in 1 file */
(PID.TID 0000.0001)                   F
(PID.TID 0000.0001)     ;
(PID.TID 0000.0001) PTRACERS_timeave_mnc = /* use MNC for Tave output */
(PID.TID 0000.0001)                   F
(PID.TID 0000.0001)     ;
(PID.TID 0000.0001) PTRACERS_snapshot_mnc = /* use MNC for snapshot output */
(PID.TID 0000.0001)                   F
(PID.TID 0000.0001)     ;
(PID.TID 0000.0001) PTRACERS_pickup_write_mnc = /* use MNC for writing pickups */
(PID.TID 0000.0001)                   F
(PID.TID 0000.0001)     ;
(PID.TID 0000.0001) PTRACERS_pickup_read_mnc = /* use MNC for reading pickups */
(PID.TID 0000.0001)                   F
(PID.TID 0000.0001)     ;
(PID.TID 0000.0001)  -----------------------------------
(PID.TID 0000.0001)  tracer number :    1
(PID.TID 0000.0001) PTRACERS_names = /* Tracer short name */
(PID.TID 0000.0001)               ''
(PID.TID 0000.0001)     ;
(PID.TID 0000.0001) PTRACERS_long_names = /* Tracer long name */
(PID.TID 0000.0001)               ''
(PID.TID 0000.0001)     ;
(PID.TID 0000.0001) PTRACERS_ioLabel = /* tracer IO Label */
(PID.TID 0000.0001)               '01'
(PID.TID 0000.0001)     ;
(PID.TID 0000.0001) PTRACERS_advScheme = /* Advection Scheme */
(PID.TID 0000.0001)                       2
(PID.TID 0000.0001)     ;
(PID.TID 0000.0001) PTRACERS_SOM_Advection = /* tracer uses SOM advection scheme */
(PID.TID 0000.0001)                   F
(PID.TID 0000.0001)     ;
(PID.TID 0000.0001) PTRACERS_ImplVertAdv = /* implicit vert. advection flag */
(PID.TID 0000.0001)                   F
(PID.TID 0000.0001)     ;
(PID.TID 0000.0001) PTRACERS_MultiDimAdv = /* tracer uses Multi-Dim advection */
(PID.TID 0000.0001)                   F
(PID.TID 0000.0001)     ;
(PID.TID 0000.0001) PTRACERS_AdamsBashGtr = /* apply AB on tracer tendency */
(PID.TID 0000.0001)                   T
(PID.TID 0000.0001)     ;
(PID.TID 0000.0001) PTRACERS_AdamsBash_Tr = /* apply AB on passive tracer */
(PID.TID 0000.0001)                   F
(PID.TID 0000.0001)     ;
(PID.TID 0000.0001) PTRACERS_diffKh = /* Laplacian Diffusivity */
(PID.TID 0000.0001)                 0.000000000000000E+00
(PID.TID 0000.0001)     ;
(PID.TID 0000.0001) PTRACERS_diffK4 = /* Biharmonic Diffusivity */
(PID.TID 0000.0001)                 0.000000000000000E+00
(PID.TID 0000.0001)     ;
(PID.TID 0000.0001) PTRACERS_diffKrNr = /* Vertical Diffusivity */
(PID.TID 0000.0001)    23 @  1.000000000000000E-05              /* K =  1: 23 */
(PID.TID 0000.0001)     ;
(PID.TID 0000.0001) PTRACERS_useGMRedi = /* apply GM-Redi */
(PID.TID 0000.0001)                   T
(PID.TID 0000.0001)     ;
(PID.TID 0000.0001) PTRACERS_useDWNSLP = /* apply DOWN-SLOPE Flow */
(PID.TID 0000.0001)                   F
(PID.TID 0000.0001)     ;
(PID.TID 0000.0001) PTRACERS_useKPP = /* apply KPP scheme */
(PID.TID 0000.0001)                   T
(PID.TID 0000.0001)     ;
(PID.TID 0000.0001) PTRACERS_ref = /* Reference vertical profile */
(PID.TID 0000.0001)    23 @  0.000000000000000E+00              /* K =  1: 23 */
(PID.TID 0000.0001)     ;
(PID.TID 0000.0001) PTRACERS_EvPrRn =/* tracer conc. in Evap. & Rain */
(PID.TID 0000.0001)                 1.234567000000000E+05
(PID.TID 0000.0001)     ;
(PID.TID 0000.0001)  -----------------------------------
(PID.TID 0000.0001) GAD_CHECK: #define ALLOW_GENERIC_ADVDIFF
(PID.TID 0000.0001) // =======================================================
(PID.TID 0000.0001) // Check Model config. (CONFIG_CHECK):
(PID.TID 0000.0001) // CONFIG_CHECK : Normal End
(PID.TID 0000.0001) // =======================================================
(PID.TID 0000.0001) 
(PID.TID 0000.0001)  MDS_READ_FIELD: opening global file: kf_climtheta
(PID.TID 0000.0001)  MDS_READ_FIELD: opening global file: kf_climsalt
(PID.TID 0000.0001) Start initial hydrostatic pressure computation
(PID.TID 0000.0001) Pressure is predetermined for buoyancyRelation OCEANIC
(PID.TID 0000.0001) 
(PID.TID 0000.0001)  MDS_READ_FIELD: opening global file: kf_tx
(PID.TID 0000.0001)  MDS_READ_FIELD: opening global file: kf_ty
(PID.TID 0000.0001)  MDS_READ_FIELD: opening global file: kf_qnet
(PID.TID 0000.0001)  MDS_READ_FIELD: opening global file: kf_empmr
(PID.TID 0000.0001)  MDS_READ_FIELD: opening global file: kf_sst
(PID.TID 0000.0001)  MDS_READ_FIELD: opening global file: kf_sss
(PID.TID 0000.0001)  MDS_READ_FIELD: opening global file: kf_sw
(PID.TID 0000.0001)  write diagnostics summary to file ioUnit:      6
Iter.Nb:         0 ; Time(s):  2.1600000000000E+04
------------------------------------------------------------------------
2D/3D diagnostics: Number of lists:     1
------------------------------------------------------------------------
listId=    1 ; file name: TRAC01
 nFlds, nActive,       freq     &     phase        , nLev               
    1  |    1  |     10800.000000         0.000000 |  23
 levels:   1   2   3   4   5   6   7   8   9  10  11  12  13  14  15  16  17  18  19  20  21  22  23
 diag# | name   |   ipt  |  iMate | kLev|   count |   mate.C|           
   236 |TRAC01  |      1 |      0 |  23 |       0 |
------------------------------------------------------------------------
Global & Regional Statistics diagnostics: Number of lists:     0
------------------------------------------------------------------------
(PID.TID 0000.0001)  MDS_READ_FIELD: opening global file: kf_climsalt
(PID.TID 0000.0001) // =======================================================
(PID.TID 0000.0001) // Model current state
(PID.TID 0000.0001) // =======================================================
(PID.TID 0000.0001) 
(PID.TID 0000.0001) // =======================================================
(PID.TID 0000.0001) // Begin MONITOR dynamic field statistics
(PID.TID 0000.0001) // =======================================================
(PID.TID 0000.0001) %MON time_tsnumber                =                     0
(PID.TID 0000.0001) %MON time_secondsf                =   2.1600000000000E+04
(PID.TID 0000.0001) %MON dynstat_eta_max              =   0.0000000000000E+00
(PID.TID 0000.0001) %MON dynstat_eta_min              =   0.0000000000000E+00
(PID.TID 0000.0001) %MON dynstat_eta_mean             =   0.0000000000000E+00
(PID.TID 0000.0001) %MON dynstat_eta_sd               =   0.0000000000000E+00
(PID.TID 0000.0001) %MON dynstat_eta_del2             =   0.0000000000000E+00
(PID.TID 0000.0001) %MON dynstat_uvel_max             =   0.0000000000000E+00
(PID.TID 0000.0001) %MON dynstat_uvel_min             =   0.0000000000000E+00
(PID.TID 0000.0001) %MON dynstat_uvel_mean            =   0.0000000000000E+00
(PID.TID 0000.0001) %MON dynstat_uvel_sd              =   0.0000000000000E+00
(PID.TID 0000.0001) %MON dynstat_uvel_del2            =   0.0000000000000E+00
(PID.TID 0000.0001) %MON dynstat_vvel_max             =   0.0000000000000E+00
(PID.TID 0000.0001) %MON dynstat_vvel_min             =   0.0000000000000E+00
(PID.TID 0000.0001) %MON dynstat_vvel_mean            =   0.0000000000000E+00
(PID.TID 0000.0001) %MON dynstat_vvel_sd              =   0.0000000000000E+00
(PID.TID 0000.0001) %MON dynstat_vvel_del2            =   0.0000000000000E+00
(PID.TID 0000.0001) %MON dynstat_wvel_max             =  -0.0000000000000E+00
(PID.TID 0000.0001) %MON dynstat_wvel_min             =  -0.0000000000000E+00
(PID.TID 0000.0001) %MON dynstat_wvel_mean            =   0.0000000000000E+00
(PID.TID 0000.0001) %MON dynstat_wvel_sd              =   0.0000000000000E+00
(PID.TID 0000.0001) %MON dynstat_wvel_del2            =   0.0000000000000E+00
(PID.TID 0000.0001) %MON dynstat_theta_max            =   2.6077934265137E+01
(PID.TID 0000.0001) %MON dynstat_theta_min            =   1.8064365386963E+00
(PID.TID 0000.0001) %MON dynstat_theta_mean           =   5.4784105600004E+00
(PID.TID 0000.0001) %MON dynstat_theta_sd             =   4.5923951934310E+00
(PID.TID 0000.0001) %MON dynstat_theta_del2           =   3.2182299571167E-03
(PID.TID 0000.0001) %MON dynstat_salt_max             =   3.7401638031006E+01
(PID.TID 0000.0001) %MON dynstat_salt_min             =   3.4726768493652E+01
(PID.TID 0000.0001) %MON dynstat_salt_mean            =   3.5157555715946E+01
(PID.TID 0000.0001) %MON dynstat_salt_sd              =   4.1377404390946E-01
(PID.TID 0000.0001) %MON dynstat_salt_del2            =   7.9637690984931E-04
(PID.TID 0000.0001) %MON forcing_qnet_max             =   2.5772109985352E+01
(PID.TID 0000.0001) %MON forcing_qnet_min             =  -1.7793640136719E+02
(PID.TID 0000.0001) %MON forcing_qnet_mean            =  -8.6225629002468E+01
(PID.TID 0000.0001) %MON forcing_qnet_sd              =   5.2166051016192E+01
(PID.TID 0000.0001) %MON forcing_qnet_del2            =   2.4110381106187E+00
(PID.TID 0000.0001) %MON forcing_qsw_max              =  -1.5340605163574E+02
(PID.TID 0000.0001) %MON forcing_qsw_min              =  -3.1156558227539E+02
(PID.TID 0000.0001) %MON forcing_qsw_mean             =  -2.4622679656805E+02
(PID.TID 0000.0001) %MON forcing_qsw_sd               =   4.1213103000011E+01
(PID.TID 0000.0001) %MON forcing_qsw_del2             =   1.7433557690944E+00
(PID.TID 0000.0001) %MON forcing_empmr_max            =   6.3069694468254E-05
(PID.TID 0000.0001) %MON forcing_empmr_min            =   1.2103353894055E-05
(PID.TID 0000.0001) %MON forcing_empmr_mean           =   3.6742450533127E-05
(PID.TID 0000.0001) %MON forcing_empmr_sd             =   1.2117638039994E-05
(PID.TID 0000.0001) %MON forcing_empmr_del2           =   6.6228632669734E-07
(PID.TID 0000.0001) %MON forcing_fu_max               =   1.8047061562538E-01
(PID.TID 0000.0001) %MON forcing_fu_min               =  -1.1958009004593E-01
(PID.TID 0000.0001) %MON forcing_fu_mean              =  -2.8489985088832E-02
(PID.TID 0000.0001) %MON forcing_fu_sd                =   4.0281588068204E-02
(PID.TID 0000.0001) %MON forcing_fu_del2              =   1.8009323524424E-03
(PID.TID 0000.0001) %MON forcing_fv_max               =   1.8579313531518E-02
(PID.TID 0000.0001) %MON forcing_fv_min               =  -9.0046256780624E-02
(PID.TID 0000.0001) %MON forcing_fv_mean              =  -3.5264291717200E-02
(PID.TID 0000.0001) %MON forcing_fv_sd                =   2.3225749029442E-02
(PID.TID 0000.0001) %MON forcing_fv_del2              =   8.4400323570064E-04
(PID.TID 0000.0001) %MON trAdv_CFL_u_max              =   0.0000000000000E+00
(PID.TID 0000.0001) %MON trAdv_CFL_v_max              =   0.0000000000000E+00
(PID.TID 0000.0001) %MON trAdv_CFL_w_max              =   0.0000000000000E+00
(PID.TID 0000.0001) %MON advcfl_uvel_max              =   0.0000000000000E+00
(PID.TID 0000.0001) %MON advcfl_vvel_max              =   0.0000000000000E+00
(PID.TID 0000.0001) %MON advcfl_wvel_max              =   0.0000000000000E+00
(PID.TID 0000.0001) %MON advcfl_W_hf_max              =   0.0000000000000E+00
(PID.TID 0000.0001) %MON pe_b_mean                    =   0.0000000000000E+00
(PID.TID 0000.0001) %MON ke_max                       =   0.0000000000000E+00
(PID.TID 0000.0001) %MON ke_mean                      =   0.0000000000000E+00
(PID.TID 0000.0001) %MON ke_vol                       =   3.6027486600263E+16
(PID.TID 0000.0001) %MON vort_r_min                   =   0.0000000000000E+00
(PID.TID 0000.0001) %MON vort_r_max                   =   0.0000000000000E+00
(PID.TID 0000.0001) %MON vort_a_mean                  =   6.2114138811198E-05
(PID.TID 0000.0001) %MON vort_a_sd                    =   1.9250279297836E-05
(PID.TID 0000.0001) %MON vort_p_mean                  =   7.8095197769436E-05
(PID.TID 0000.0001) %MON vort_p_sd                    =   5.6519384286071E-05
(PID.TID 0000.0001) %MON surfExpan_theta_mean         =   0.0000000000000E+00
(PID.TID 0000.0001) %MON surfExpan_salt_mean          =   0.0000000000000E+00
(PID.TID 0000.0001) // =======================================================
(PID.TID 0000.0001) // End MONITOR dynamic field statistics
(PID.TID 0000.0001) // =======================================================
(PID.TID 0000.0001) // =======================================================
(PID.TID 0000.0001) // Begin MONITOR ptracer field statistics
(PID.TID 0000.0001) // =======================================================
(PID.TID 0000.0001) %MON trcstat_ptracer01_max        =   3.7401638031006E+01
(PID.TID 0000.0001) %MON trcstat_ptracer01_min        =   3.4726768493652E+01
(PID.TID 0000.0001) %MON trcstat_ptracer01_mean       =   3.5157555715946E+01
(PID.TID 0000.0001) %MON trcstat_ptracer01_sd         =   4.1377404390946E-01
(PID.TID 0000.0001) %MON trcstat_ptracer01_del2       =   7.9637690984931E-04
(PID.TID 0000.0001) // =======================================================
(PID.TID 0000.0001) // End MONITOR ptracers field statistics
(PID.TID 0000.0001) // =======================================================
 EXTERNAL_FIELDS_LOAD,         0 : iP,iLd,i0,i1=   64    0    1    2 ; Wght=  1.0000000000  0.0000000000
 EXTERNAL_FIELDS_LOAD, it=         0 : Reading new data, i0,i1=    1    2 (prev=   64    0 )
(PID.TID 0000.0001)  MDS_READ_FIELD: opening global file: kf_tx
(PID.TID 0000.0001)  MDS_READ_FIELD: opening global file: kf_tx
(PID.TID 0000.0001)  MDS_READ_FIELD: opening global file: kf_ty
(PID.TID 0000.0001)  MDS_READ_FIELD: opening global file: kf_ty
(PID.TID 0000.0001)  MDS_READ_FIELD: opening global file: kf_qnet
(PID.TID 0000.0001)  MDS_READ_FIELD: opening global file: kf_qnet
(PID.TID 0000.0001)  MDS_READ_FIELD: opening global file: kf_empmr
(PID.TID 0000.0001)  MDS_READ_FIELD: opening global file: kf_empmr
(PID.TID 0000.0001)  MDS_READ_FIELD: opening global file: kf_sst
(PID.TID 0000.0001)  MDS_READ_FIELD: opening global file: kf_sst
(PID.TID 0000.0001)  MDS_READ_FIELD: opening global file: kf_sss
(PID.TID 0000.0001)  MDS_READ_FIELD: opening global file: kf_sss
(PID.TID 0000.0001)  MDS_READ_FIELD: opening global file: kf_sw
(PID.TID 0000.0001)  MDS_READ_FIELD: opening global file: kf_sw
(PID.TID 0000.0001) SOLVE_FOR_PRESSURE: putPmEinXvector =    F
 cg2d: Sum(rhs),rhsMax =   1.77635683940025E-15  4.50718046056083E-01
(PID.TID 0000.0001)      cg2d_init_res =   3.97976985192654E+00
(PID.TID 0000.0001)      cg2d_iters(min,last) =      -1      50
(PID.TID 0000.0001)      cg2d_last_res =   7.13529406559850E-14
(PID.TID 0000.0001) // =======================================================
(PID.TID 0000.0001) // Begin MONITOR dynamic field statistics
(PID.TID 0000.0001) // =======================================================
(PID.TID 0000.0001) %MON time_tsnumber                =                     1
(PID.TID 0000.0001) %MON time_secondsf                =   2.5200000000000E+04
(PID.TID 0000.0001) %MON dynstat_eta_max              =   7.9836760748431E-02
(PID.TID 0000.0001) %MON dynstat_eta_min              =  -1.0327655472326E-01
(PID.TID 0000.0001) %MON dynstat_eta_mean             =   1.1029935733303E-17
(PID.TID 0000.0001) %MON dynstat_eta_sd               =   3.4052462395130E-02
(PID.TID 0000.0001) %MON dynstat_eta_del2             =   1.2647997728795E-03
(PID.TID 0000.0001) %MON dynstat_uvel_max             =   5.3768174897955E-02
(PID.TID 0000.0001) %MON dynstat_uvel_min             =  -4.2467572873595E-02
(PID.TID 0000.0001) %MON dynstat_uvel_mean            =  -1.7165275679105E-03
(PID.TID 0000.0001) %MON dynstat_uvel_sd              =   1.4723316365539E-03
(PID.TID 0000.0001) %MON dynstat_uvel_del2            =   4.2417684841446E-05
(PID.TID 0000.0001) %MON dynstat_vvel_max             =   1.0125026293970E-02
(PID.TID 0000.0001) %MON dynstat_vvel_min             =  -2.9292158438792E-02
(PID.TID 0000.0001) %MON dynstat_vvel_mean            =  -1.2875957687081E-04
(PID.TID 0000.0001) %MON dynstat_vvel_sd              =   1.6350028540545E-03
(PID.TID 0000.0001) %MON dynstat_vvel_del2            =   4.9752640558499E-05
(PID.TID 0000.0001) %MON dynstat_wvel_max             =   4.7445024309587E-05
(PID.TID 0000.0001) %MON dynstat_wvel_min             =  -9.2452810523345E-05
(PID.TID 0000.0001) %MON dynstat_wvel_mean            =  -1.5756702069268E-21
(PID.TID 0000.0001) %MON dynstat_wvel_sd              =   1.2604002795626E-05
(PID.TID 0000.0001) %MON dynstat_wvel_del2            =   2.5526490745237E-07
(PID.TID 0000.0001) %MON dynstat_theta_max            =   2.6076696687540E+01
(PID.TID 0000.0001) %MON dynstat_theta_min            =   1.8064385538720E+00
(PID.TID 0000.0001) %MON dynstat_theta_mean           =   5.4784296546519E+00
(PID.TID 0000.0001) %MON dynstat_theta_sd             =   4.5924602156105E+00
(PID.TID 0000.0001) %MON dynstat_theta_del2           =   3.2178461715665E-03
(PID.TID 0000.0001) %MON dynstat_salt_max             =   3.7400555976541E+01
(PID.TID 0000.0001) %MON dynstat_salt_min             =   3.4726771285308E+01
(PID.TID 0000.0001) %MON dynstat_salt_mean            =   3.5157556923008E+01
(PID.TID 0000.0001) %MON dynstat_salt_sd              =   4.1377705241412E-01
(PID.TID 0000.0001) %MON dynstat_salt_del2            =   7.9655386361276E-04
(PID.TID 0000.0001) %MON forcing_qnet_max             =   2.5772109985352E+01
(PID.TID 0000.0001) %MON forcing_qnet_min             =  -1.7793640136719E+02
(PID.TID 0000.0001) %MON forcing_qnet_mean            =  -8.6225629002468E+01
(PID.TID 0000.0001) %MON forcing_qnet_sd              =   5.2166051016192E+01
(PID.TID 0000.0001) %MON forcing_qnet_del2            =   2.4110381106187E+00
(PID.TID 0000.0001) %MON forcing_qsw_max              =  -1.5340605163574E+02
(PID.TID 0000.0001) %MON forcing_qsw_min              =  -3.1156558227539E+02
(PID.TID 0000.0001) %MON forcing_qsw_mean             =  -2.4622679656805E+02
(PID.TID 0000.0001) %MON forcing_qsw_sd               =   4.1213103000011E+01
(PID.TID 0000.0001) %MON forcing_qsw_del2             =   1.7433557690944E+00
(PID.TID 0000.0001) %MON forcing_empmr_max            =   6.3069694468254E-05
(PID.TID 0000.0001) %MON forcing_empmr_min            =   1.2103353894055E-05
(PID.TID 0000.0001) %MON forcing_empmr_mean           =   3.6742450533127E-05
(PID.TID 0000.0001) %MON forcing_empmr_sd             =   1.2117638039994E-05
(PID.TID 0000.0001) %MON forcing_empmr_del2           =   6.6228632669734E-07
(PID.TID 0000.0001) %MON forcing_fu_max               =   1.8047061562538E-01
(PID.TID 0000.0001) %MON forcing_fu_min               =  -1.1958009004593E-01
(PID.TID 0000.0001) %MON forcing_fu_mean              =  -2.8489985088832E-02
(PID.TID 0000.0001) %MON forcing_fu_sd                =   4.0281588068204E-02
(PID.TID 0000.0001) %MON forcing_fu_del2              =   1.8009323524424E-03
(PID.TID 0000.0001) %MON forcing_fv_max               =   1.8579313531518E-02
(PID.TID 0000.0001) %MON forcing_fv_min               =  -9.0046256780624E-02
(PID.TID 0000.0001) %MON forcing_fv_mean              =  -3.5264291717200E-02
(PID.TID 0000.0001) %MON forcing_fv_sd                =   2.3225749029442E-02
(PID.TID 0000.0001) %MON forcing_fv_del2              =   8.4400323570064E-04
(PID.TID 0000.0001) %MON trAdv_CFL_u_max              =   0.0000000000000E+00
(PID.TID 0000.0001) %MON trAdv_CFL_v_max              =   0.0000000000000E+00
(PID.TID 0000.0001) %MON trAdv_CFL_w_max              =   0.0000000000000E+00
(PID.TID 0000.0001) %MON advcfl_uvel_max              =   1.1201557325257E-03
(PID.TID 0000.0001) %MON advcfl_vvel_max              =   4.7424971624307E-04
(PID.TID 0000.0001) %MON advcfl_wvel_max              =   2.0655310944651E-02
(PID.TID 0000.0001) %MON advcfl_W_hf_max              =   1.0497648172779E-02
(PID.TID 0000.0001) %MON pe_b_mean                    =   1.3977488762187E-06
(PID.TID 0000.0001) %MON ke_max                       =   9.5722607342244E-04
(PID.TID 0000.0001) %MON ke_mean                      =   3.4842983856204E-06
(PID.TID 0000.0001) %MON ke_vol                       =   3.6027486600263E+16
(PID.TID 0000.0001) %MON vort_r_min                   =  -2.2165902330424E-07
(PID.TID 0000.0001) %MON vort_r_max                   =   2.4532916268334E-07
(PID.TID 0000.0001) %MON vort_a_mean                  =   6.2114138811197E-05
(PID.TID 0000.0001) %MON vort_a_sd                    =   1.9248843146312E-05
(PID.TID 0000.0001) %MON vort_p_mean                  =   7.8095197769435E-05
(PID.TID 0000.0001) %MON vort_p_sd                    =   5.6516399347248E-05
(PID.TID 0000.0001) %MON surfExpan_theta_mean         =   7.5374097421842E-06
(PID.TID 0000.0001) %MON surfExpan_salt_mean          =   2.1195391188754E-06
(PID.TID 0000.0001) // =======================================================
(PID.TID 0000.0001) // End MONITOR dynamic field statistics
(PID.TID 0000.0001) // =======================================================
(PID.TID 0000.0001) // =======================================================
(PID.TID 0000.0001) // Begin MONITOR ptracer field statistics
(PID.TID 0000.0001) // =======================================================
(PID.TID 0000.0001) %MON trcstat_ptracer01_max        =   3.7401638031006E+01
(PID.TID 0000.0001) %MON trcstat_ptracer01_min        =   3.4726768493652E+01
(PID.TID 0000.0001) %MON trcstat_ptracer01_mean       =   3.5157555715946E+01
(PID.TID 0000.0001) %MON trcstat_ptracer01_sd         =   4.1377404390946E-01
(PID.TID 0000.0001) %MON trcstat_ptracer01_del2       =   7.9637690984931E-04
(PID.TID 0000.0001) // =======================================================
(PID.TID 0000.0001) // End MONITOR ptracers field statistics
(PID.TID 0000.0001) // =======================================================
 EXTERNAL_FIELDS_LOAD,         1 : iP,iLd,i0,i1=    1    2    1    2 ; Wght=  0.9166666667  0.0833333333
 cg2d: Sum(rhs),rhsMax =  -1.77635683940025E-15  5.52700548638559E-01
(PID.TID 0000.0001)      cg2d_init_res =   9.06368679369284E-01
(PID.TID 0000.0001)      cg2d_iters(min,last) =      -1      47
(PID.TID 0000.0001)      cg2d_last_res =   7.16409555939576E-14
(PID.TID 0000.0001) // =======================================================
(PID.TID 0000.0001) // Begin MONITOR dynamic field statistics
(PID.TID 0000.0001) // =======================================================
(PID.TID 0000.0001) %MON time_tsnumber                =                     2
(PID.TID 0000.0001) %MON time_secondsf                =   2.8800000000000E+04
(PID.TID 0000.0001) %MON dynstat_eta_max              =   1.4598526866349E-01
(PID.TID 0000.0001) %MON dynstat_eta_min              =  -1.7949075574509E-01
(PID.TID 0000.0001) %MON dynstat_eta_mean             =   5.5149678666516E-18
(PID.TID 0000.0001) %MON dynstat_eta_sd               =   6.6445374951392E-02
(PID.TID 0000.0001) %MON dynstat_eta_del2             =   1.4281721056985E-03
(PID.TID 0000.0001) %MON dynstat_uvel_max             =   1.0060787295218E-01
(PID.TID 0000.0001) %MON dynstat_uvel_min             =  -7.2847867650602E-02
(PID.TID 0000.0001) %MON dynstat_uvel_mean            =  -2.0943065685624E-03
(PID.TID 0000.0001) %MON dynstat_uvel_sd              =   2.6376032236435E-03
(PID.TID 0000.0001) %MON dynstat_uvel_del2            =   7.7324710759768E-05
(PID.TID 0000.0001) %MON dynstat_vvel_max             =   2.0722002885527E-02
(PID.TID 0000.0001) %MON dynstat_vvel_min             =  -5.2818957750588E-02
(PID.TID 0000.0001) %MON dynstat_vvel_mean            =  -1.9871602912287E-04
(PID.TID 0000.0001) %MON dynstat_vvel_sd              =   2.9337365518996E-03
(PID.TID 0000.0001) %MON dynstat_vvel_del2            =   9.6349092041396E-05
(PID.TID 0000.0001) %MON dynstat_wvel_max             =   7.4101610339546E-05
(PID.TID 0000.0001) %MON dynstat_wvel_min             =  -1.3828640634690E-04
(PID.TID 0000.0001) %MON dynstat_wvel_mean            =  -1.5756702069268E-21
(PID.TID 0000.0001) %MON dynstat_wvel_sd              =   1.9037953438600E-05
(PID.TID 0000.0001) %MON dynstat_wvel_del2            =   4.0218569574230E-07
(PID.TID 0000.0001) %MON dynstat_theta_max            =   2.6075234507275E+01
(PID.TID 0000.0001) %MON dynstat_theta_min            =   1.8064381114613E+00
(PID.TID 0000.0001) %MON dynstat_theta_mean           =   5.4784377072088E+00
(PID.TID 0000.0001) %MON dynstat_theta_sd             =   4.5924870287441E+00
(PID.TID 0000.0001) %MON dynstat_theta_del2           =   3.2140939722959E-03
(PID.TID 0000.0001) %MON dynstat_salt_max             =   3.7400587538128E+01
(PID.TID 0000.0001) %MON dynstat_salt_min             =   3.4726777935629E+01
(PID.TID 0000.0001) %MON dynstat_salt_mean            =   3.5157555145870E+01
(PID.TID 0000.0001) %MON dynstat_salt_sd              =   4.1376961387686E-01
(PID.TID 0000.0001) %MON dynstat_salt_del2            =   7.9651801771896E-04
(PID.TID 0000.0001) %MON forcing_qnet_max             =   2.6062016805013E+01
(PID.TID 0000.0001) %MON forcing_qnet_min             =  -1.7659355545044E+02
(PID.TID 0000.0001) %MON forcing_qnet_mean            =  -8.5257431754752E+01
(PID.TID 0000.0001) %MON forcing_qnet_sd              =   5.2007111613118E+01
(PID.TID 0000.0001) %MON forcing_qnet_del2            =   2.3803458160623E+00
(PID.TID 0000.0001) %MON forcing_qsw_max              =  -1.5255920283000E+02
(PID.TID 0000.0001) %MON forcing_qsw_min              =  -3.1216041564941E+02
(PID.TID 0000.0001) %MON forcing_qsw_mean             =  -2.4650639625986E+02
(PID.TID 0000.0001) %MON forcing_qsw_sd               =   4.1246809110616E+01
(PID.TID 0000.0001) %MON forcing_qsw_del2             =   1.7277967551076E+00
(PID.TID 0000.0001) %MON forcing_empmr_max            =   6.3481127135508E-05
(PID.TID 0000.0001) %MON forcing_empmr_min            =   1.2253066312236E-05
(PID.TID 0000.0001) %MON forcing_empmr_mean           =   3.7131810081233E-05
(PID.TID 0000.0001) %MON forcing_empmr_sd             =   1.2044395715904E-05
(PID.TID 0000.0001) %MON forcing_empmr_del2           =   6.5734890976984E-07
(PID.TID 0000.0001) %MON forcing_fu_max               =   1.8893417219321E-01
(PID.TID 0000.0001) %MON forcing_fu_min               =  -1.1874365620315E-01
(PID.TID 0000.0001) %MON forcing_fu_mean              =  -2.8759187905171E-02
(PID.TID 0000.0001) %MON forcing_fu_sd                =   4.0358002523383E-02
(PID.TID 0000.0001) %MON forcing_fu_del2              =   1.8039718325811E-03
(PID.TID 0000.0001) %MON forcing_fv_max               =   1.8217393197119E-02
(PID.TID 0000.0001) %MON forcing_fv_min               =  -8.8495723282297E-02
(PID.TID 0000.0001) %MON forcing_fv_mean              =  -3.5583801411581E-02
(PID.TID 0000.0001) %MON forcing_fv_sd                =   2.2953694908501E-02
(PID.TID 0000.0001) %MON forcing_fv_del2              =   8.2270444426311E-04
(PID.TID 0000.0001) %MON trAdv_CFL_u_max              =   1.1202126043717E-03
(PID.TID 0000.0001) %MON trAdv_CFL_v_max              =   4.7771503138123E-04
(PID.TID 0000.0001) %MON trAdv_CFL_w_max              =   1.0497648172779E-02
(PID.TID 0000.0001) %MON advcfl_uvel_max              =   2.0959700759508E-03
(PID.TID 0000.0001) %MON advcfl_vvel_max              =   8.5515636472517E-04
(PID.TID 0000.0001) %MON advcfl_wvel_max              =   1.6314801987716E-02
(PID.TID 0000.0001) %MON advcfl_W_hf_max              =   1.0112279793551E-02
(PID.TID 0000.0001) %MON pe_b_mean                    =   5.3218376385920E-06
(PID.TID 0000.0001) %MON ke_max                       =   2.9062481272084E-03
(PID.TID 0000.0001) %MON ke_mean                      =   8.9053652512196E-06
(PID.TID 0000.0001) %MON ke_vol                       =   3.6027486600263E+16
(PID.TID 0000.0001) %MON vort_r_min                   =  -3.9931459011917E-07
(PID.TID 0000.0001) %MON vort_r_max                   =   4.5904562090034E-07
(PID.TID 0000.0001) %MON vort_a_mean                  =   6.2114138811197E-05
(PID.TID 0000.0001) %MON vort_a_sd                    =   1.9248533300516E-05
(PID.TID 0000.0001) %MON vort_p_mean                  =   7.8095197769435E-05
(PID.TID 0000.0001) %MON vort_p_sd                    =   5.6515609354731E-05
(PID.TID 0000.0001) %MON surfExpan_theta_mean         =   9.6277531545094E-06
(PID.TID 0000.0001) %MON surfExpan_salt_mean          =   2.0698952199502E-06
(PID.TID 0000.0001) // =======================================================
(PID.TID 0000.0001) // End MONITOR dynamic field statistics
(PID.TID 0000.0001) // =======================================================
(PID.TID 0000.0001) // =======================================================
(PID.TID 0000.0001) // Begin MONITOR ptracer field statistics
(PID.TID 0000.0001) // =======================================================
(PID.TID 0000.0001) %MON trcstat_ptracer01_max        =   3.7400378492398E+01
(PID.TID 0000.0001) %MON trcstat_ptracer01_min        =   3.4726776488869E+01
(PID.TID 0000.0001) %MON trcstat_ptracer01_mean       =   3.5157553838320E+01
(PID.TID 0000.0001) %MON trcstat_ptracer01_sd         =   4.1376620263657E-01
(PID.TID 0000.0001) %MON trcstat_ptracer01_del2       =   7.9653106751674E-04
(PID.TID 0000.0001) // =======================================================
(PID.TID 0000.0001) // End MONITOR ptracers field statistics
(PID.TID 0000.0001) // =======================================================
 EXTERNAL_FIELDS_LOAD,         2 : iP,iLd,i0,i1=    1    2    1    2 ; Wght=  0.8333333333  0.1666666667
 cg2d: Sum(rhs),rhsMax =   3.55271367880050E-15  5.79251609715920E-01
(PID.TID 0000.0001)      cg2d_init_res =   5.34067046902850E-01
(PID.TID 0000.0001)      cg2d_iters(min,last) =      -1      46
(PID.TID 0000.0001)      cg2d_last_res =   7.18419700862103E-14
(PID.TID 0000.0001) // =======================================================
(PID.TID 0000.0001) // Begin MONITOR dynamic field statistics
(PID.TID 0000.0001) // =======================================================
(PID.TID 0000.0001) %MON time_tsnumber                =                     3
(PID.TID 0000.0001) %MON time_secondsf                =   3.2400000000000E+04
(PID.TID 0000.0001) %MON dynstat_eta_max              =   1.8285668409480E-01
(PID.TID 0000.0001) %MON dynstat_eta_min              =  -2.3264915158052E-01
(PID.TID 0000.0001) %MON dynstat_eta_mean             =   5.5149678666516E-18
(PID.TID 0000.0001) %MON dynstat_eta_sd               =   8.9653436095872E-02
(PID.TID 0000.0001) %MON dynstat_eta_del2             =   1.3648177476182E-03
(PID.TID 0000.0001) %MON dynstat_uvel_max             =   1.3753347316472E-01
(PID.TID 0000.0001) %MON dynstat_uvel_min             =  -9.6146251418027E-02
(PID.TID 0000.0001) %MON dynstat_uvel_mean            =  -1.5898722087464E-03
(PID.TID 0000.0001) %MON dynstat_uvel_sd              =   3.6162946092693E-03
(PID.TID 0000.0001) %MON dynstat_uvel_del2            =   1.0941891416692E-04
(PID.TID 0000.0001) %MON dynstat_vvel_max             =   2.9610623012368E-02
(PID.TID 0000.0001) %MON dynstat_vvel_min             =  -7.1142574617820E-02
(PID.TID 0000.0001) %MON dynstat_vvel_mean            =  -4.0097326606453E-04
(PID.TID 0000.0001) %MON dynstat_vvel_sd              =   4.0546300991766E-03
(PID.TID 0000.0001) %MON dynstat_vvel_del2            =   1.3306619356004E-04
(PID.TID 0000.0001) %MON dynstat_wvel_max             =   9.3856538347092E-05
(PID.TID 0000.0001) %MON dynstat_wvel_min             =  -1.6184068466274E-04
(PID.TID 0000.0001) %MON dynstat_wvel_mean            =   2.9262446700069E-21
(PID.TID 0000.0001) %MON dynstat_wvel_sd              =   2.4202392180701E-05
(PID.TID 0000.0001) %MON dynstat_wvel_del2            =   5.3556251095530E-07
(PID.TID 0000.0001) %MON dynstat_theta_max            =   2.6073676012303E+01
(PID.TID 0000.0001) %MON dynstat_theta_min            =   1.8064382075648E+00
(PID.TID 0000.0001) %MON dynstat_theta_mean           =   5.4784465906177E+00
(PID.TID 0000.0001) %MON dynstat_theta_sd             =   4.5925160303491E+00
(PID.TID 0000.0001) %MON dynstat_theta_del2           =   3.2123932114055E-03
(PID.TID 0000.0001) %MON dynstat_salt_max             =   3.7400773046295E+01
(PID.TID 0000.0001) %MON dynstat_salt_min             =   3.4726783195621E+01
(PID.TID 0000.0001) %MON dynstat_salt_mean            =   3.5157554574882E+01
(PID.TID 0000.0001) %MON dynstat_salt_sd              =   4.1376656189006E-01
(PID.TID 0000.0001) %MON dynstat_salt_del2            =   7.9641296383550E-04
(PID.TID 0000.0001) %MON forcing_qnet_max             =   2.6353609720866E+01
(PID.TID 0000.0001) %MON forcing_qnet_min             =  -1.7525070953369E+02
(PID.TID 0000.0001) %MON forcing_qnet_mean            =  -8.4289234507036E+01
(PID.TID 0000.0001) %MON forcing_qnet_sd              =   5.1878062558190E+01
(PID.TID 0000.0001) %MON forcing_qnet_del2            =   2.3513903571809E+00
(PID.TID 0000.0001) %MON forcing_qsw_max              =  -1.5171235402425E+02
(PID.TID 0000.0001) %MON forcing_qsw_min              =  -3.1275524902344E+02
(PID.TID 0000.0001) %MON forcing_qsw_mean             =  -2.4678599595167E+02
(PID.TID 0000.0001) %MON forcing_qsw_sd               =   4.1303728041958E+01
(PID.TID 0000.0001) %MON forcing_qsw_del2             =   1.7138243902279E+00
(PID.TID 0000.0001) %MON forcing_empmr_max            =   6.3953881584903E-05
(PID.TID 0000.0001) %MON forcing_empmr_min            =   1.2402778730417E-05
(PID.TID 0000.0001) %MON forcing_empmr_mean           =   3.7521169629339E-05
(PID.TID 0000.0001) %MON forcing_empmr_sd             =   1.1981030382910E-05
(PID.TID 0000.0001) %MON forcing_empmr_del2           =   6.5299543100169E-07
(PID.TID 0000.0001) %MON forcing_fu_max               =   1.9739772876104E-01
(PID.TID 0000.0001) %MON forcing_fu_min               =  -1.1790722236037E-01
(PID.TID 0000.0001) %MON forcing_fu_mean              =  -2.9028390721510E-02
(PID.TID 0000.0001) %MON forcing_fu_sd                =   4.0466112132662E-02
(PID.TID 0000.0001) %MON forcing_fu_del2              =   1.8104808306324E-03
(PID.TID 0000.0001) %MON forcing_fv_max               =   1.9703799858689E-02
(PID.TID 0000.0001) %MON forcing_fv_min               =  -8.6945189783971E-02
(PID.TID 0000.0001) %MON forcing_fv_mean              =  -3.5903311105962E-02
(PID.TID 0000.0001) %MON forcing_fv_sd                =   2.2732602892994E-02
(PID.TID 0000.0001) %MON forcing_fv_del2              =   8.0522976737963E-04
(PID.TID 0000.0001) %MON trAdv_CFL_u_max              =   2.0960764912320E-03
(PID.TID 0000.0001) %MON trAdv_CFL_v_max              =   8.6140494262553E-04
(PID.TID 0000.0001) %MON trAdv_CFL_w_max              =   1.0112279793551E-02
(PID.TID 0000.0001) %MON advcfl_uvel_max              =   2.8652434022917E-03
(PID.TID 0000.0001) %MON advcfl_vvel_max              =   1.1518217715435E-03
(PID.TID 0000.0001) %MON advcfl_wvel_max              =   1.3271426398525E-02
(PID.TID 0000.0001) %MON advcfl_W_hf_max              =   9.3122764967608E-03
(PID.TID 0000.0001) %MON pe_b_mean                    =   9.6887106512183E-06
(PID.TID 0000.0001) %MON ke_max                       =   5.5293543312903E-03
(PID.TID 0000.0001) %MON ke_mean                      =   1.4318543119159E-05
(PID.TID 0000.0001) %MON ke_vol                       =   3.6027486600263E+16
(PID.TID 0000.0001) %MON vort_r_min                   =  -5.1645880934330E-07
(PID.TID 0000.0001) %MON vort_r_max                   =   6.2752682002817E-07
(PID.TID 0000.0001) %MON vort_a_mean                  =   6.2114138811197E-05
(PID.TID 0000.0001) %MON vort_a_sd                    =   1.9248962206611E-05
(PID.TID 0000.0001) %MON vort_p_mean                  =   7.8095197769435E-05
(PID.TID 0000.0001) %MON vort_p_sd                    =   5.6516429874236E-05
(PID.TID 0000.0001) %MON surfExpan_theta_mean         =   9.0444401891799E-06
(PID.TID 0000.0001) %MON surfExpan_salt_mean          =   1.1535902516591E-06
(PID.TID 0000.0001) // =======================================================
(PID.TID 0000.0001) // End MONITOR dynamic field statistics
(PID.TID 0000.0001) // =======================================================
(PID.TID 0000.0001) // =======================================================
(PID.TID 0000.0001) // Begin MONITOR ptracer field statistics
(PID.TID 0000.0001) // =======================================================
(PID.TID 0000.0001) %MON trcstat_ptracer01_max        =   3.7400378492398E+01
(PID.TID 0000.0001) %MON trcstat_ptracer01_min        =   3.4726776488869E+01
(PID.TID 0000.0001) %MON trcstat_ptracer01_mean       =   3.5157553838320E+01
(PID.TID 0000.0001) %MON trcstat_ptracer01_sd         =   4.1376620263657E-01
(PID.TID 0000.0001) %MON trcstat_ptracer01_del2       =   7.9653106751674E-04
(PID.TID 0000.0001) // =======================================================
(PID.TID 0000.0001) // End MONITOR ptracers field statistics
(PID.TID 0000.0001) // =======================================================
 Computing Diagnostic #    236  TRAC01       Counter:       2   Parms: SMR     MR      
 EXTERNAL_FIELDS_LOAD,         3 : iP,iLd,i0,i1=    1    2    1    2 ; Wght=  0.7500000000  0.2500000000
 cg2d: Sum(rhs),rhsMax =  -3.55271367880050E-15  6.02094359597889E-01
(PID.TID 0000.0001)      cg2d_init_res =   2.85216186495268E-01
(PID.TID 0000.0001)      cg2d_iters(min,last) =      -1      46
(PID.TID 0000.0001)      cg2d_last_res =   9.65464265694118E-14
(PID.TID 0000.0001) // =======================================================
(PID.TID 0000.0001) // Begin MONITOR dynamic field statistics
(PID.TID 0000.0001) // =======================================================
(PID.TID 0000.0001) %MON time_tsnumber                =                     4
(PID.TID 0000.0001) %MON time_secondsf                =   3.6000000000000E+04
(PID.TID 0000.0001) %MON dynstat_eta_max              =   1.9277467176432E-01
(PID.TID 0000.0001) %MON dynstat_eta_min              =  -2.6377973459629E-01
(PID.TID 0000.0001) %MON dynstat_eta_mean             =  -9.9269421599728E-17
(PID.TID 0000.0001) %MON dynstat_eta_sd               =   1.0099432878888E-01
(PID.TID 0000.0001) %MON dynstat_eta_del2             =   1.3401054512719E-03
(PID.TID 0000.0001) %MON dynstat_uvel_max             =   1.6126298482851E-01
(PID.TID 0000.0001) %MON dynstat_uvel_min             =  -1.1487958083886E-01
(PID.TID 0000.0001) %MON dynstat_uvel_mean            =  -7.7898847520556E-04
(PID.TID 0000.0001) %MON dynstat_uvel_sd              =   4.5392831755081E-03
(PID.TID 0000.0001) %MON dynstat_uvel_del2            =   1.4009517472542E-04
(PID.TID 0000.0001) %MON dynstat_vvel_max             =   3.6714390494150E-02
(PID.TID 0000.0001) %MON dynstat_vvel_min             =  -8.5527611448213E-02
(PID.TID 0000.0001) %MON dynstat_vvel_mean            =  -6.2368349260409E-04
(PID.TID 0000.0001) %MON dynstat_vvel_sd              =   4.9558926601628E-03
(PID.TID 0000.0001) %MON dynstat_vvel_del2            =   1.5905665109268E-04
(PID.TID 0000.0001) %MON dynstat_wvel_max             =   1.0536032658207E-04
(PID.TID 0000.0001) %MON dynstat_wvel_min             =  -1.6705359462018E-04
(PID.TID 0000.0001) %MON dynstat_wvel_mean            =   0.0000000000000E+00
(PID.TID 0000.0001) %MON dynstat_wvel_sd              =   2.8331060506735E-05
(PID.TID 0000.0001) %MON dynstat_wvel_del2            =   6.3725117986483E-07
(PID.TID 0000.0001) %MON dynstat_theta_max            =   2.6072024452821E+01
(PID.TID 0000.0001) %MON dynstat_theta_min            =   1.8064388021727E+00
(PID.TID 0000.0001) %MON dynstat_theta_mean           =   5.4784571934743E+00
(PID.TID 0000.0001) %MON dynstat_theta_sd             =   4.5925504004089E+00
(PID.TID 0000.0001) %MON dynstat_theta_del2           =   3.2101172918016E-03
(PID.TID 0000.0001) %MON dynstat_salt_max             =   3.7401004914413E+01
(PID.TID 0000.0001) %MON dynstat_salt_min             =   3.4726787549730E+01
(PID.TID 0000.0001) %MON dynstat_salt_mean            =   3.5157555284923E+01
(PID.TID 0000.0001) %MON dynstat_salt_sd              =   4.1376790062385E-01
(PID.TID 0000.0001) %MON dynstat_salt_del2            =   7.9628503693417E-04
(PID.TID 0000.0001) %MON forcing_qnet_max             =   2.7849277496338E+01
(PID.TID 0000.0001) %MON forcing_qnet_min             =  -1.7390786361694E+02
(PID.TID 0000.0001) %MON forcing_qnet_mean            =  -8.3321037259321E+01
(PID.TID 0000.0001) %MON forcing_qnet_sd              =   5.1779127338922E+01
(PID.TID 0000.0001) %MON forcing_qnet_del2            =   2.3242366476437E+00
(PID.TID 0000.0001) %MON forcing_qsw_max              =  -1.5086550521851E+02
(PID.TID 0000.0001) %MON forcing_qsw_min              =  -3.1335008239746E+02
(PID.TID 0000.0001) %MON forcing_qsw_mean             =  -2.4706559564349E+02
(PID.TID 0000.0001) %MON forcing_qsw_sd               =   4.1383764013908E+01
(PID.TID 0000.0001) %MON forcing_qsw_del2             =   1.7014777631147E+00
(PID.TID 0000.0001) %MON forcing_empmr_max            =   6.4426636034298E-05
(PID.TID 0000.0001) %MON forcing_empmr_min            =   1.2552491148599E-05
(PID.TID 0000.0001) %MON forcing_empmr_mean           =   3.7910529177446E-05
(PID.TID 0000.0001) %MON forcing_empmr_sd             =   1.1927699455179E-05
(PID.TID 0000.0001) %MON forcing_empmr_del2           =   6.4923763733377E-07
(PID.TID 0000.0001) %MON forcing_fu_max               =   2.0586128532887E-01
(PID.TID 0000.0001) %MON forcing_fu_min               =  -1.1707078851759E-01
(PID.TID 0000.0001) %MON forcing_fu_mean              =  -2.9297593537849E-02
(PID.TID 0000.0001) %MON forcing_fu_sd                =   4.0605663738742E-02
(PID.TID 0000.0001) %MON forcing_fu_del2              =   1.8204221307430E-03
(PID.TID 0000.0001) %MON forcing_fv_max               =   2.1190206520259E-02
(PID.TID 0000.0001) %MON forcing_fv_min               =  -8.5394656285644E-02
(PID.TID 0000.0001) %MON forcing_fv_mean              =  -3.6222820800343E-02
(PID.TID 0000.0001) %MON forcing_fv_sd                =   2.2563971082074E-02
(PID.TID 0000.0001) %MON forcing_fv_del2              =   7.9183242473716E-04
(PID.TID 0000.0001) %MON trAdv_CFL_u_max              =   2.8653888746369E-03
(PID.TID 0000.0001) %MON trAdv_CFL_v_max              =   1.1602380663449E-03
(PID.TID 0000.0001) %MON trAdv_CFL_w_max              =   9.3122764967608E-03
(PID.TID 0000.0001) %MON advcfl_uvel_max              =   3.3596017949780E-03
(PID.TID 0000.0001) %MON advcfl_vvel_max              =   1.3847202672011E-03
(PID.TID 0000.0001) %MON advcfl_wvel_max              =   8.3306288804137E-03
(PID.TID 0000.0001) %MON advcfl_W_hf_max              =   6.4162195151385E-03
(PID.TID 0000.0001) %MON pe_b_mean                    =   1.2294930613923E-05
(PID.TID 0000.0001) %MON ke_max                       =   7.8195497368598E-03
(PID.TID 0000.0001) %MON ke_mean                      =   2.0510381330225E-05
(PID.TID 0000.0001) %MON ke_vol                       =   3.6027486600263E+16
(PID.TID 0000.0001) %MON vort_r_min                   =  -5.7644139372459E-07
(PID.TID 0000.0001) %MON vort_r_max                   =   7.3579795324799E-07
(PID.TID 0000.0001) %MON vort_a_mean                  =   6.2114138811197E-05
(PID.TID 0000.0001) %MON vort_a_sd                    =   1.9249647377478E-05
(PID.TID 0000.0001) %MON vort_p_mean                  =   7.8095197769435E-05
(PID.TID 0000.0001) %MON vort_p_sd                    =   5.6517940761797E-05
(PID.TID 0000.0001) %MON surfExpan_theta_mean         =   7.3959116230134E-06
(PID.TID 0000.0001) %MON surfExpan_salt_mean          =   2.0844790294567E-07
(PID.TID 0000.0001) // =======================================================
(PID.TID 0000.0001) // End MONITOR dynamic field statistics
(PID.TID 0000.0001) // =======================================================
(PID.TID 0000.0001) // =======================================================
(PID.TID 0000.0001) // Begin MONITOR ptracer field statistics
(PID.TID 0000.0001) // =======================================================
(PID.TID 0000.0001) %MON trcstat_ptracer01_max        =   3.7400326676529E+01
(PID.TID 0000.0001) %MON trcstat_ptracer01_min        =   3.4726787571678E+01
(PID.TID 0000.0001) %MON trcstat_ptracer01_mean       =   3.5157550405180E+01
(PID.TID 0000.0001) %MON trcstat_ptracer01_sd         =   4.1375317314506E-01
(PID.TID 0000.0001) %MON trcstat_ptracer01_del2       =   7.9637685835069E-04
(PID.TID 0000.0001) // =======================================================
(PID.TID 0000.0001) // End MONITOR ptracers field statistics
(PID.TID 0000.0001) // =======================================================
 EXTERNAL_FIELDS_LOAD,         4 : iP,iLd,i0,i1=    1    2    1    2 ; Wght=  0.6666666667  0.3333333333
 cg2d: Sum(rhs),rhsMax =   1.50990331349021E-14  6.16540780658506E-01
(PID.TID 0000.0001)      cg2d_init_res =   2.30839076375730E-01
(PID.TID 0000.0001)      cg2d_iters(min,last) =      -1      46
(PID.TID 0000.0001)      cg2d_last_res =   9.54665057787857E-14
(PID.TID 0000.0001) // =======================================================
(PID.TID 0000.0001) // Begin MONITOR dynamic field statistics
(PID.TID 0000.0001) // =======================================================
(PID.TID 0000.0001) %MON time_tsnumber                =                     5
(PID.TID 0000.0001) %MON time_secondsf                =   3.9600000000000E+04
(PID.TID 0000.0001) %MON dynstat_eta_max              =   1.8522796247913E-01
(PID.TID 0000.0001) %MON dynstat_eta_min              =  -2.7597510975019E-01
(PID.TID 0000.0001) %MON dynstat_eta_mean             =  -1.1029935733303E-16
(PID.TID 0000.0001) %MON dynstat_eta_sd               =   1.0271704838661E-01
(PID.TID 0000.0001) %MON dynstat_eta_del2             =   1.3340909182610E-03
(PID.TID 0000.0001) %MON dynstat_uvel_max             =   1.6550642677752E-01
(PID.TID 0000.0001) %MON dynstat_uvel_min             =  -1.3103184257520E-01
(PID.TID 0000.0001) %MON dynstat_uvel_mean            =  -6.9355110336116E-05
(PID.TID 0000.0001) %MON dynstat_uvel_sd              =   5.4231895451297E-03
(PID.TID 0000.0001) %MON dynstat_uvel_del2            =   1.6929011676735E-04
(PID.TID 0000.0001) %MON dynstat_vvel_max             =   4.1132043180734E-02
(PID.TID 0000.0001) %MON dynstat_vvel_min             =  -9.9901349360727E-02
(PID.TID 0000.0001) %MON dynstat_vvel_mean            =  -7.1862287835553E-04
(PID.TID 0000.0001) %MON dynstat_vvel_sd              =   5.6303580504562E-03
(PID.TID 0000.0001) %MON dynstat_vvel_del2            =   1.7425262135753E-04
(PID.TID 0000.0001) %MON dynstat_wvel_max             =   1.0833859589725E-04
(PID.TID 0000.0001) %MON dynstat_wvel_min             =  -1.5634561195245E-04
(PID.TID 0000.0001) %MON dynstat_wvel_mean            =  -1.1254787192334E-22
(PID.TID 0000.0001) %MON dynstat_wvel_sd              =   3.1238991854588E-05
(PID.TID 0000.0001) %MON dynstat_wvel_del2            =   7.0233427525671E-07
(PID.TID 0000.0001) %MON dynstat_theta_max            =   2.6070349942612E+01
(PID.TID 0000.0001) %MON dynstat_theta_min            =   1.8064399451034E+00
(PID.TID 0000.0001) %MON dynstat_theta_mean           =   5.4784696054257E+00
(PID.TID 0000.0001) %MON dynstat_theta_sd             =   4.5925907560656E+00
(PID.TID 0000.0001) %MON dynstat_theta_del2           =   3.2076547257807E-03
(PID.TID 0000.0001) %MON dynstat_salt_max             =   3.7401328590107E+01
(PID.TID 0000.0001) %MON dynstat_salt_min             =   3.4726790528992E+01
(PID.TID 0000.0001) %MON dynstat_salt_mean            =   3.5157556856818E+01
(PID.TID 0000.0001) %MON dynstat_salt_sd              =   4.1377190491029E-01
(PID.TID 0000.0001) %MON dynstat_salt_del2            =   7.9614336109829E-04
(PID.TID 0000.0001) %MON forcing_qnet_max             =   2.9530278523763E+01
(PID.TID 0000.0001) %MON forcing_qnet_min             =  -1.7256501770020E+02
(PID.TID 0000.0001) %MON forcing_qnet_mean            =  -8.2352840011605E+01
(PID.TID 0000.0001) %MON forcing_qnet_sd              =   5.1710478801745E+01
(PID.TID 0000.0001) %MON forcing_qnet_del2            =   2.2989485316694E+00
(PID.TID 0000.0001) %MON forcing_qsw_max              =  -1.5001865641276E+02
(PID.TID 0000.0001) %MON forcing_qsw_min              =  -3.1394491577148E+02
(PID.TID 0000.0001) %MON forcing_qsw_mean             =  -2.4734519533530E+02
(PID.TID 0000.0001) %MON forcing_qsw_sd               =   4.1486783235049E+01
(PID.TID 0000.0001) %MON forcing_qsw_del2             =   1.6907924888827E+00
(PID.TID 0000.0001) %MON forcing_empmr_max            =   6.4899390483693E-05
(PID.TID 0000.0001) %MON forcing_empmr_min            =   1.2702203566780E-05
(PID.TID 0000.0001) %MON forcing_empmr_mean           =   3.8299888725552E-05
(PID.TID 0000.0001) %MON forcing_empmr_sd             =   1.1884538019288E-05
(PID.TID 0000.0001) %MON forcing_empmr_del2           =   6.4608592280016E-07
(PID.TID 0000.0001) %MON forcing_fu_max               =   2.1432484189669E-01
(PID.TID 0000.0001) %MON forcing_fu_min               =  -1.1623435467482E-01
(PID.TID 0000.0001) %MON forcing_fu_mean              =  -2.9566796354187E-02
(PID.TID 0000.0001) %MON forcing_fu_sd                =   4.0776334524688E-02
(PID.TID 0000.0001) %MON forcing_fu_del2              =   1.8337399108869E-03
(PID.TID 0000.0001) %MON forcing_fv_max               =   2.2676613181829E-02
(PID.TID 0000.0001) %MON forcing_fv_min               =  -8.3844122787317E-02
(PID.TID 0000.0001) %MON forcing_fv_mean              =  -3.6542330494723E-02
(PID.TID 0000.0001) %MON forcing_fv_sd                =   2.2448981715413E-02
(PID.TID 0000.0001) %MON forcing_fv_del2              =   7.8272181161821E-04
(PID.TID 0000.0001) %MON trAdv_CFL_u_max              =   3.3597723665783E-03
(PID.TID 0000.0001) %MON trAdv_CFL_v_max              =   1.4041504631548E-03
(PID.TID 0000.0001) %MON trAdv_CFL_w_max              =   6.4162195151385E-03
(PID.TID 0000.0001) %MON advcfl_uvel_max              =   3.4480056850830E-03
(PID.TID 0000.0001) %MON advcfl_vvel_max              =   1.6174358296479E-03
(PID.TID 0000.0001) %MON advcfl_wvel_max              =   3.9747037448693E-03
(PID.TID 0000.0001) %MON advcfl_W_hf_max              =   3.6507928051137E-03
(PID.TID 0000.0001) %MON pe_b_mean                    =   1.2717951671677E-05
(PID.TID 0000.0001) %MON ke_max                       =   8.6738853135024E-03
(PID.TID 0000.0001) %MON ke_mean                      =   2.7396616132413E-05
(PID.TID 0000.0001) %MON ke_vol                       =   3.6027486600263E+16
(PID.TID 0000.0001) %MON vort_r_min                   =  -5.6718291832779E-07
(PID.TID 0000.0001) %MON vort_r_max                   =   7.5515959351608E-07
(PID.TID 0000.0001) %MON vort_a_mean                  =   6.2114138811197E-05
(PID.TID 0000.0001) %MON vort_a_sd                    =   1.9250246057491E-05
(PID.TID 0000.0001) %MON vort_p_mean                  =   7.8095197769435E-05
(PID.TID 0000.0001) %MON vort_p_sd                    =   5.6519437016249E-05
(PID.TID 0000.0001) %MON surfExpan_theta_mean         =   5.2832808131548E-06
(PID.TID 0000.0001) %MON surfExpan_salt_mean          =  -4.4216213553044E-07
(PID.TID 0000.0001) // =======================================================
(PID.TID 0000.0001) // End MONITOR dynamic field statistics
(PID.TID 0000.0001) // =======================================================
(PID.TID 0000.0001) // =======================================================
(PID.TID 0000.0001) // Begin MONITOR ptracer field statistics
(PID.TID 0000.0001) // =======================================================
(PID.TID 0000.0001) %MON trcstat_ptracer01_max        =   3.7400326676529E+01
(PID.TID 0000.0001) %MON trcstat_ptracer01_min        =   3.4726787571678E+01
(PID.TID 0000.0001) %MON trcstat_ptracer01_mean       =   3.5157550405180E+01
(PID.TID 0000.0001) %MON trcstat_ptracer01_sd         =   4.1375317314506E-01
(PID.TID 0000.0001) %MON trcstat_ptracer01_del2       =   7.9637685835069E-04
(PID.TID 0000.0001) // =======================================================
(PID.TID 0000.0001) // End MONITOR ptracers field statistics
(PID.TID 0000.0001) // =======================================================
 EXTERNAL_FIELDS_LOAD,         5 : iP,iLd,i0,i1=    1    2    1    2 ; Wght=  0.5833333333  0.4166666667
 cg2d: Sum(rhs),rhsMax =   2.22044604925031E-14  6.19417403458192E-01
(PID.TID 0000.0001)      cg2d_init_res =   2.56591500314271E-01
(PID.TID 0000.0001)      cg2d_iters(min,last) =      -1      46
(PID.TID 0000.0001)      cg2d_last_res =   7.85444113837072E-14
(PID.TID 0000.0001) // =======================================================
(PID.TID 0000.0001) // Begin MONITOR dynamic field statistics
(PID.TID 0000.0001) // =======================================================
(PID.TID 0000.0001) %MON time_tsnumber                =                     6
(PID.TID 0000.0001) %MON time_secondsf                =   4.3200000000000E+04
(PID.TID 0000.0001) %MON dynstat_eta_max              =   1.8210775893233E-01
(PID.TID 0000.0001) %MON dynstat_eta_min              =  -2.7529228627852E-01
(PID.TID 0000.0001) %MON dynstat_eta_mean             =  -1.7647897173285E-16
(PID.TID 0000.0001) %MON dynstat_eta_sd               =   9.9210954522361E-02
(PID.TID 0000.0001) %MON dynstat_eta_del2             =   1.3279650552405E-03
(PID.TID 0000.0001) %MON dynstat_uvel_max             =   1.5153207469631E-01
(PID.TID 0000.0001) %MON dynstat_uvel_min             =  -1.4533698669718E-01
(PID.TID 0000.0001) %MON dynstat_uvel_mean            =   3.5930559979720E-04
(PID.TID 0000.0001) %MON dynstat_uvel_sd              =   6.2391668144500E-03
(PID.TID 0000.0001) %MON dynstat_uvel_del2            =   1.9693744469600E-04
(PID.TID 0000.0001) %MON dynstat_vvel_max             =   4.3078666042156E-02
(PID.TID 0000.0001) %MON dynstat_vvel_min             =  -1.0878808134873E-01
(PID.TID 0000.0001) %MON dynstat_vvel_mean            =  -6.2504786020672E-04
(PID.TID 0000.0001) %MON dynstat_vvel_sd              =   6.0988970974722E-03
(PID.TID 0000.0001) %MON dynstat_vvel_del2            =   1.7950765381841E-04
(PID.TID 0000.0001) %MON dynstat_wvel_max             =   1.1636436648911E-04
(PID.TID 0000.0001) %MON dynstat_wvel_min             =  -1.3960076866154E-04
(PID.TID 0000.0001) %MON dynstat_wvel_mean            =   2.8136967980836E-22
(PID.TID 0000.0001) %MON dynstat_wvel_sd              =   3.2896596992363E-05
(PID.TID 0000.0001) %MON dynstat_wvel_del2            =   7.3367136514196E-07
(PID.TID 0000.0001) %MON dynstat_theta_max            =   2.6075239181339E+01
(PID.TID 0000.0001) %MON dynstat_theta_min            =   1.8064414979257E+00
(PID.TID 0000.0001) %MON dynstat_theta_mean           =   5.4784839194154E+00
(PID.TID 0000.0001) %MON dynstat_theta_sd             =   4.5926377474558E+00
(PID.TID 0000.0001) %MON dynstat_theta_del2           =   3.2053937304725E-03
(PID.TID 0000.0001) %MON dynstat_salt_max             =   3.7401569419548E+01
(PID.TID 0000.0001) %MON dynstat_salt_min             =   3.4726792097035E+01
(PID.TID 0000.0001) %MON dynstat_salt_mean            =   3.5157558858514E+01
(PID.TID 0000.0001) %MON dynstat_salt_sd              =   4.1377715396646E-01
(PID.TID 0000.0001) %MON dynstat_salt_del2            =   7.9602828191745E-04
(PID.TID 0000.0001) %MON forcing_qnet_max             =   3.2348238627116E+01
(PID.TID 0000.0001) %MON forcing_qnet_min             =  -1.7122217178345E+02
(PID.TID 0000.0001) %MON forcing_qnet_mean            =  -8.1384642763889E+01
(PID.TID 0000.0001) %MON forcing_qnet_sd              =   5.1672237657836E+01
(PID.TID 0000.0001) %MON forcing_qnet_del2            =   2.2755882059127E+00
(PID.TID 0000.0001) %MON forcing_qsw_max              =  -1.4917180760701E+02
(PID.TID 0000.0001) %MON forcing_qsw_min              =  -3.1453974914551E+02
(PID.TID 0000.0001) %MON forcing_qsw_mean             =  -2.4762479502712E+02
(PID.TID 0000.0001) %MON forcing_qsw_sd               =   4.1612615008714E+01
(PID.TID 0000.0001) %MON forcing_qsw_del2             =   1.6818002339174E+00
(PID.TID 0000.0001) %MON forcing_empmr_max            =   6.5372144933088E-05
(PID.TID 0000.0001) %MON forcing_empmr_min            =   1.2851915984961E-05
(PID.TID 0000.0001) %MON forcing_empmr_mean           =   3.8689248273659E-05
(PID.TID 0000.0001) %MON forcing_empmr_sd             =   1.1851657181705E-05
(PID.TID 0000.0001) %MON forcing_empmr_del2           =   6.4354919208906E-07
(PID.TID 0000.0001) %MON forcing_fu_max               =   2.2278839846452E-01
(PID.TID 0000.0001) %MON forcing_fu_min               =  -1.1539792083204E-01
(PID.TID 0000.0001) %MON forcing_fu_mean              =  -2.9835999170526E-02
(PID.TID 0000.0001) %MON forcing_fu_sd                =   4.0977735661570E-02
(PID.TID 0000.0001) %MON forcing_fu_del2              =   1.8503612669232E-03
(PID.TID 0000.0001) %MON forcing_fv_max               =   2.4163019843400E-02
(PID.TID 0000.0001) %MON forcing_fv_min               =  -8.3072179928422E-02
(PID.TID 0000.0001) %MON forcing_fv_mean              =  -3.6861840189104E-02
(PID.TID 0000.0001) %MON forcing_fv_sd                =   2.2388461347071E-02
(PID.TID 0000.0001) %MON forcing_fv_del2              =   7.7804852986657E-04
(PID.TID 0000.0001) %MON trAdv_CFL_u_max              =   3.4481807450703E-03
(PID.TID 0000.0001) %MON trAdv_CFL_v_max              =   1.6401314569575E-03
(PID.TID 0000.0001) %MON trAdv_CFL_w_max              =   3.6507928051137E-03
(PID.TID 0000.0001) %MON advcfl_uvel_max              =   3.1568771388415E-03
(PID.TID 0000.0001) %MON advcfl_vvel_max              =   1.7613149545832E-03
(PID.TID 0000.0001) %MON advcfl_wvel_max              =   5.5866174580472E-03
(PID.TID 0000.0001) %MON advcfl_W_hf_max              =   3.9140814369999E-03
(PID.TID 0000.0001) %MON pe_b_mean                    =   1.1864552540138E-05
(PID.TID 0000.0001) %MON ke_max                       =   1.0544292444077E-02
(PID.TID 0000.0001) %MON ke_mean                      =   3.4096195436600E-05
(PID.TID 0000.0001) %MON ke_vol                       =   3.6027486600263E+16
(PID.TID 0000.0001) %MON vort_r_min                   =  -4.9189585856340E-07
(PID.TID 0000.0001) %MON vort_r_max                   =   6.9139852850630E-07
(PID.TID 0000.0001) %MON vort_a_mean                  =   6.2114138811197E-05
(PID.TID 0000.0001) %MON vort_a_sd                    =   1.9250606344239E-05
(PID.TID 0000.0001) %MON vort_p_mean                  =   7.8095197769435E-05
(PID.TID 0000.0001) %MON vort_p_sd                    =   5.6520528751841E-05
(PID.TID 0000.0001) %MON surfExpan_theta_mean         =   2.9587454357617E-06
(PID.TID 0000.0001) %MON surfExpan_salt_mean          =  -7.2068055707287E-07
(PID.TID 0000.0001) // =======================================================
(PID.TID 0000.0001) // End MONITOR dynamic field statistics
(PID.TID 0000.0001) // =======================================================
(PID.TID 0000.0001) // =======================================================
(PID.TID 0000.0001) // Begin MONITOR ptracer field statistics
(PID.TID 0000.0001) // =======================================================
(PID.TID 0000.0001) %MON trcstat_ptracer01_max        =   3.7400604229664E+01
(PID.TID 0000.0001) %MON trcstat_ptracer01_min        =   3.4726791147491E+01
(PID.TID 0000.0001) %MON trcstat_ptracer01_mean       =   3.5157552450524E+01
(PID.TID 0000.0001) %MON trcstat_ptracer01_sd         =   4.1375802647835E-01
(PID.TID 0000.0001) %MON trcstat_ptracer01_del2       =   7.9616544443874E-04
(PID.TID 0000.0001) // =======================================================
(PID.TID 0000.0001) // End MONITOR ptracers field statistics
(PID.TID 0000.0001) // =======================================================
 Computing Diagnostic #    236  TRAC01       Counter:       1   Parms: SMR     MR      
 EXTERNAL_FIELDS_LOAD,         6 : iP,iLd,i0,i1=    1    2    1    2 ; Wght=  0.5000000000  0.5000000000
 cg2d: Sum(rhs),rhsMax =   3.19744231092045E-14  6.13026699842146E-01
(PID.TID 0000.0001)      cg2d_init_res =   2.33865333643305E-01
(PID.TID 0000.0001)      cg2d_iters(min,last) =      -1      47
(PID.TID 0000.0001)      cg2d_last_res =   3.81078174112660E-14
(PID.TID 0000.0001) // =======================================================
(PID.TID 0000.0001) // Begin MONITOR dynamic field statistics
(PID.TID 0000.0001) // =======================================================
(PID.TID 0000.0001) %MON time_tsnumber                =                     7
(PID.TID 0000.0001) %MON time_secondsf                =   4.6800000000000E+04
(PID.TID 0000.0001) %MON dynstat_eta_max              =   1.7547609235191E-01
(PID.TID 0000.0001) %MON dynstat_eta_min              =  -2.6793381034511E-01
(PID.TID 0000.0001) %MON dynstat_eta_mean             =  -2.4265858613267E-16
(PID.TID 0000.0001) %MON dynstat_eta_sd               =   9.3869244662236E-02
(PID.TID 0000.0001) %MON dynstat_eta_del2             =   1.3223084350868E-03
(PID.TID 0000.0001) %MON dynstat_uvel_max             =   1.3083241880833E-01
(PID.TID 0000.0001) %MON dynstat_uvel_min             =  -1.5793920754352E-01
(PID.TID 0000.0001) %MON dynstat_uvel_mean            =   5.0646473204290E-04
(PID.TID 0000.0001) %MON dynstat_uvel_sd              =   6.9623271058584E-03
(PID.TID 0000.0001) %MON dynstat_uvel_del2            =   2.2282814396754E-04
(PID.TID 0000.0001) %MON dynstat_vvel_max             =   4.5938955783797E-02
(PID.TID 0000.0001) %MON dynstat_vvel_min             =  -1.1202460890926E-01
(PID.TID 0000.0001) %MON dynstat_vvel_mean            =  -3.8190317918633E-04
(PID.TID 0000.0001) %MON dynstat_vvel_sd              =   6.3974819194618E-03
(PID.TID 0000.0001) %MON dynstat_vvel_del2            =   1.7682257343455E-04
(PID.TID 0000.0001) %MON dynstat_wvel_max             =   1.2546803517752E-04
(PID.TID 0000.0001) %MON dynstat_wvel_min             =  -1.4964035561125E-04
(PID.TID 0000.0001) %MON dynstat_wvel_mean            =   8.4410903942507E-23
(PID.TID 0000.0001) %MON dynstat_wvel_sd              =   3.3457600998670E-05
(PID.TID 0000.0001) %MON dynstat_wvel_del2            =   7.3727493007603E-07
(PID.TID 0000.0001) %MON dynstat_theta_max            =   2.6081957117311E+01
(PID.TID 0000.0001) %MON dynstat_theta_min            =   1.8064432307510E+00
(PID.TID 0000.0001) %MON dynstat_theta_mean           =   5.4785001896163E+00
(PID.TID 0000.0001) %MON dynstat_theta_sd             =   4.5926918268380E+00
(PID.TID 0000.0001) %MON dynstat_theta_del2           =   3.2035888763452E-03
(PID.TID 0000.0001) %MON dynstat_salt_max             =   3.7401893168032E+01
(PID.TID 0000.0001) %MON dynstat_salt_min             =   3.4726792735933E+01
(PID.TID 0000.0001) %MON dynstat_salt_mean            =   3.5157560919595E+01
(PID.TID 0000.0001) %MON dynstat_salt_sd              =   4.1378263502500E-01
(PID.TID 0000.0001) %MON dynstat_salt_del2            =   7.9596659424076E-04
(PID.TID 0000.0001) %MON forcing_qnet_max             =   3.5166198730469E+01
(PID.TID 0000.0001) %MON forcing_qnet_min             =  -1.6987932586670E+02
(PID.TID 0000.0001) %MON forcing_qnet_mean            =  -8.0416445516173E+01
(PID.TID 0000.0001) %MON forcing_qnet_sd              =   5.1664471428311E+01
(PID.TID 0000.0001) %MON forcing_qnet_del2            =   2.2542156039565E+00
(PID.TID 0000.0001) %MON forcing_qsw_max              =  -1.4832495880127E+02
(PID.TID 0000.0001) %MON forcing_qsw_min              =  -3.1513458251953E+02
(PID.TID 0000.0001) %MON forcing_qsw_mean             =  -2.4790439471893E+02
(PID.TID 0000.0001) %MON forcing_qsw_sd               =   4.1761053123375E+01
(PID.TID 0000.0001) %MON forcing_qsw_del2             =   1.6745282730970E+00
(PID.TID 0000.0001) %MON forcing_empmr_max            =   6.5844899382483E-05
(PID.TID 0000.0001) %MON forcing_empmr_min            =   1.3001628403142E-05
(PID.TID 0000.0001) %MON forcing_empmr_mean           =   3.9078607821765E-05
(PID.TID 0000.0001) %MON forcing_empmr_sd             =   1.1829142672036E-05
(PID.TID 0000.0001) %MON forcing_empmr_del2           =   6.4163473933741E-07
(PID.TID 0000.0001) %MON forcing_fu_max               =   2.3125195503235E-01
(PID.TID 0000.0001) %MON forcing_fu_min               =  -1.1534011736512E-01
(PID.TID 0000.0001) %MON forcing_fu_mean              =  -3.0105201986865E-02
(PID.TID 0000.0001) %MON forcing_fu_sd                =   4.1209416590200E-02
(PID.TID 0000.0001) %MON forcing_fu_del2              =   1.8701981194914E-03
(PID.TID 0000.0001) %MON forcing_fv_max               =   2.5649426504970E-02
(PID.TID 0000.0001) %MON forcing_fv_min               =  -8.3588618785143E-02
(PID.TID 0000.0001) %MON forcing_fv_mean              =  -3.7181349883485E-02
(PID.TID 0000.0001) %MON forcing_fv_sd                =   2.2382851813023E-02
(PID.TID 0000.0001) %MON forcing_fv_del2              =   7.7789255697625E-04
(PID.TID 0000.0001) %MON trAdv_CFL_u_max              =   3.1570374178324E-03
(PID.TID 0000.0001) %MON trAdv_CFL_v_max              =   1.7860294731139E-03
(PID.TID 0000.0001) %MON trAdv_CFL_w_max              =   3.7717965617047E-03
(PID.TID 0000.0001) %MON advcfl_uvel_max              =   2.7256399200177E-03
(PID.TID 0000.0001) %MON advcfl_vvel_max              =   1.8137154043623E-03
(PID.TID 0000.0001) %MON advcfl_wvel_max              =   5.5459156495188E-03
(PID.TID 0000.0001) %MON advcfl_W_hf_max              =   4.7943356943958E-03
(PID.TID 0000.0001) %MON pe_b_mean                    =   1.0621326376823E-05
(PID.TID 0000.0001) %MON ke_max                       =   1.2436695487132E-02
(PID.TID 0000.0001) %MON ke_mean                      =   3.9983624039395E-05
(PID.TID 0000.0001) %MON ke_vol                       =   3.6027486600263E+16
(PID.TID 0000.0001) %MON vort_r_min                   =  -3.9386408036965E-07
(PID.TID 0000.0001) %MON vort_r_max                   =   6.9117922269065E-07
(PID.TID 0000.0001) %MON vort_a_mean                  =   6.2114138811197E-05
(PID.TID 0000.0001) %MON vort_a_sd                    =   1.9250727766467E-05
(PID.TID 0000.0001) %MON vort_p_mean                  =   7.8095197769435E-05
(PID.TID 0000.0001) %MON vort_p_sd                    =   5.6521093641697E-05
(PID.TID 0000.0001) %MON surfExpan_theta_mean         =   6.7764381719135E-07
(PID.TID 0000.0001) %MON surfExpan_salt_mean          =  -6.7294605101040E-07
(PID.TID 0000.0001) // =======================================================
(PID.TID 0000.0001) // End MONITOR dynamic field statistics
(PID.TID 0000.0001) // =======================================================
(PID.TID 0000.0001) // =======================================================
(PID.TID 0000.0001) // Begin MONITOR ptracer field statistics
(PID.TID 0000.0001) // =======================================================
(PID.TID 0000.0001) %MON trcstat_ptracer01_max        =   3.7400604229664E+01
(PID.TID 0000.0001) %MON trcstat_ptracer01_min        =   3.4726791147491E+01
(PID.TID 0000.0001) %MON trcstat_ptracer01_mean       =   3.5157552450524E+01
(PID.TID 0000.0001) %MON trcstat_ptracer01_sd         =   4.1375802647835E-01
(PID.TID 0000.0001) %MON trcstat_ptracer01_del2       =   7.9616544443874E-04
(PID.TID 0000.0001) // =======================================================
(PID.TID 0000.0001) // End MONITOR ptracers field statistics
(PID.TID 0000.0001) // =======================================================
 EXTERNAL_FIELDS_LOAD,         7 : iP,iLd,i0,i1=    1    2    1    2 ; Wght=  0.4166666667  0.5833333333
 cg2d: Sum(rhs),rhsMax =   4.17443857259059E-14  6.01776638911080E-01
(PID.TID 0000.0001)      cg2d_init_res =   1.75444936573093E-01
(PID.TID 0000.0001)      cg2d_iters(min,last) =      -1      47
(PID.TID 0000.0001)      cg2d_last_res =   3.47239378804022E-14
(PID.TID 0000.0001) // =======================================================
(PID.TID 0000.0001) // Begin MONITOR dynamic field statistics
(PID.TID 0000.0001) // =======================================================
(PID.TID 0000.0001) %MON time_tsnumber                =                     8
(PID.TID 0000.0001) %MON time_secondsf                =   5.0400000000000E+04
(PID.TID 0000.0001) %MON dynstat_eta_max              =   1.6785331863993E-01
(PID.TID 0000.0001) %MON dynstat_eta_min              =  -2.5647301866707E-01
(PID.TID 0000.0001) %MON dynstat_eta_mean             =  -2.3714361826602E-16
(PID.TID 0000.0001) %MON dynstat_eta_sd               =   8.8251360582530E-02
(PID.TID 0000.0001) %MON dynstat_eta_del2             =   1.3190977286888E-03
(PID.TID 0000.0001) %MON dynstat_uvel_max             =   1.0912895470946E-01
(PID.TID 0000.0001) %MON dynstat_uvel_min             =  -1.6880441417791E-01
(PID.TID 0000.0001) %MON dynstat_uvel_mean            =   4.6276944523157E-04
(PID.TID 0000.0001) %MON dynstat_uvel_sd              =   7.5776438480477E-03
(PID.TID 0000.0001) %MON dynstat_uvel_del2            =   2.4607571506517E-04
(PID.TID 0000.0001) %MON dynstat_vvel_max             =   5.0108251745106E-02
(PID.TID 0000.0001) %MON dynstat_vvel_min             =  -1.1612849127545E-01
(PID.TID 0000.0001) %MON dynstat_vvel_mean            =  -8.5820222977268E-05
(PID.TID 0000.0001) %MON dynstat_vvel_sd              =   6.5664010643752E-03
(PID.TID 0000.0001) %MON dynstat_vvel_del2            =   1.6902096047145E-04
(PID.TID 0000.0001) %MON dynstat_wvel_max             =   1.3400963689287E-04
(PID.TID 0000.0001) %MON dynstat_wvel_min             =  -1.5485488394397E-04
(PID.TID 0000.0001) %MON dynstat_wvel_mean            =   9.5665691134842E-22
(PID.TID 0000.0001) %MON dynstat_wvel_sd              =   3.3224907701702E-05
(PID.TID 0000.0001) %MON dynstat_wvel_del2            =   7.2151076772961E-07
(PID.TID 0000.0001) %MON dynstat_theta_max            =   2.6088720606713E+01
(PID.TID 0000.0001) %MON dynstat_theta_min            =   1.8064449652589E+00
(PID.TID 0000.0001) %MON dynstat_theta_mean           =   5.4785182422055E+00
(PID.TID 0000.0001) %MON dynstat_theta_sd             =   4.5927525317012E+00
(PID.TID 0000.0001) %MON dynstat_theta_del2           =   3.2023690158776E-03
(PID.TID 0000.0001) %MON dynstat_salt_max             =   3.7402205064085E+01
(PID.TID 0000.0001) %MON dynstat_salt_min             =   3.4726792958750E+01
(PID.TID 0000.0001) %MON dynstat_salt_mean            =   3.5157562775917E+01
(PID.TID 0000.0001) %MON dynstat_salt_sd              =   4.1378764120151E-01
(PID.TID 0000.0001) %MON dynstat_salt_del2            =   7.9593686110929E-04
(PID.TID 0000.0001) %MON forcing_qnet_max             =   3.7984158833822E+01
(PID.TID 0000.0001) %MON forcing_qnet_min             =  -1.6853647994995E+02
(PID.TID 0000.0001) %MON forcing_qnet_mean            =  -7.9448248268458E+01
(PID.TID 0000.0001) %MON forcing_qnet_sd              =   5.1687193850144E+01
(PID.TID 0000.0001) %MON forcing_qnet_del2            =   2.2348877533250E+00
(PID.TID 0000.0001) %MON forcing_qsw_max              =  -1.4661845270793E+02
(PID.TID 0000.0001) %MON forcing_qsw_min              =  -3.1572941589355E+02
(PID.TID 0000.0001) %MON forcing_qsw_mean             =  -2.4818399441075E+02
(PID.TID 0000.0001) %MON forcing_qsw_sd               =   4.1931857501445E+01
(PID.TID 0000.0001) %MON forcing_qsw_del2             =   1.6689990929453E+00
(PID.TID 0000.0001) %MON forcing_empmr_max            =   6.6317653831878E-05
(PID.TID 0000.0001) %MON forcing_empmr_min            =   1.3151340821323E-05
(PID.TID 0000.0001) %MON forcing_empmr_mean           =   3.9467967369872E-05
(PID.TID 0000.0001) %MON forcing_empmr_sd             =   1.1817053741946E-05
(PID.TID 0000.0001) %MON forcing_empmr_del2           =   6.4034814585414E-07
(PID.TID 0000.0001) %MON forcing_fu_max               =   2.3971551160018E-01
(PID.TID 0000.0001) %MON forcing_fu_min               =  -1.1623985506594E-01
(PID.TID 0000.0001) %MON forcing_fu_mean              =  -3.0374404803203E-02
(PID.TID 0000.0001) %MON forcing_fu_sd                =   4.1470869830938E-02
(PID.TID 0000.0001) %MON forcing_fu_del2              =   1.8931493931643E-03
(PID.TID 0000.0001) %MON forcing_fv_max               =   2.7135833166540E-02
(PID.TID 0000.0001) %MON forcing_fv_min               =  -8.4105057641864E-02
(PID.TID 0000.0001) %MON forcing_fv_mean              =  -3.7500859577866E-02
(PID.TID 0000.0001) %MON forcing_fv_sd                =   2.2432194307342E-02
(PID.TID 0000.0001) %MON forcing_fv_del2              =   7.8225659504887E-04
(PID.TID 0000.0001) %MON trAdv_CFL_u_max              =   2.7257783045023E-03
(PID.TID 0000.0001) %MON trAdv_CFL_v_max              =   1.8391651984800E-03
(PID.TID 0000.0001) %MON trAdv_CFL_w_max              =   4.6474550882107E-03
(PID.TID 0000.0001) %MON advcfl_uvel_max              =   2.8294089708945E-03
(PID.TID 0000.0001) %MON advcfl_vvel_max              =   1.8801586148114E-03
(PID.TID 0000.0001) %MON advcfl_wvel_max              =   4.9687811531326E-03
(PID.TID 0000.0001) %MON advcfl_W_hf_max              =   5.1298531879328E-03
(PID.TID 0000.0001) %MON pe_b_mean                    =   9.3880399087203E-06
(PID.TID 0000.0001) %MON ke_max                       =   1.4242128790223E-02
(PID.TID 0000.0001) %MON ke_mean                      =   4.4894064951083E-05
(PID.TID 0000.0001) %MON ke_vol                       =   3.6027486600263E+16
(PID.TID 0000.0001) %MON vort_r_min                   =  -3.2336436716434E-07
(PID.TID 0000.0001) %MON vort_r_max                   =   7.3564704577455E-07
(PID.TID 0000.0001) %MON vort_a_mean                  =   6.2114138811197E-05
(PID.TID 0000.0001) %MON vort_a_sd                    =   1.9250687378949E-05
(PID.TID 0000.0001) %MON vort_p_mean                  =   7.8095197769435E-05
(PID.TID 0000.0001) %MON vort_p_sd                    =   5.6521191026478E-05
(PID.TID 0000.0001) %MON surfExpan_theta_mean         =  -1.2387575322000E-06
(PID.TID 0000.0001) %MON surfExpan_salt_mean          =  -4.2404586831825E-07
(PID.TID 0000.0001) // =======================================================
(PID.TID 0000.0001) // End MONITOR dynamic field statistics
(PID.TID 0000.0001) // =======================================================
(PID.TID 0000.0001) // =======================================================
(PID.TID 0000.0001) // Begin MONITOR ptracer field statistics
(PID.TID 0000.0001) // =======================================================
(PID.TID 0000.0001) %MON trcstat_ptracer01_max        =   3.7400594643744E+01
(PID.TID 0000.0001) %MON trcstat_ptracer01_min        =   3.4726790602687E+01
(PID.TID 0000.0001) %MON trcstat_ptracer01_mean       =   3.5157554301343E+01
(PID.TID 0000.0001) %MON trcstat_ptracer01_sd         =   4.1376215289655E-01
(PID.TID 0000.0001) %MON trcstat_ptracer01_del2       =   7.9612634639927E-04
(PID.TID 0000.0001) // =======================================================
(PID.TID 0000.0001) // End MONITOR ptracers field statistics
(PID.TID 0000.0001) // =======================================================
 EXTERNAL_FIELDS_LOAD,         8 : iP,iLd,i0,i1=    1    2    1    2 ; Wght=  0.3333333333  0.6666666667
 cg2d: Sum(rhs),rhsMax =   3.90798504668055E-14  5.89351716974496E-01
(PID.TID 0000.0001)      cg2d_init_res =   1.28238690261280E-01
(PID.TID 0000.0001)      cg2d_iters(min,last) =      -1      46
(PID.TID 0000.0001)      cg2d_last_res =   5.83480150581504E-14
(PID.TID 0000.0001) // =======================================================
(PID.TID 0000.0001) // Begin MONITOR dynamic field statistics
(PID.TID 0000.0001) // =======================================================
(PID.TID 0000.0001) %MON time_tsnumber                =                     9
(PID.TID 0000.0001) %MON time_secondsf                =   5.4000000000000E+04
(PID.TID 0000.0001) %MON dynstat_eta_max              =   1.6095742210394E-01
(PID.TID 0000.0001) %MON dynstat_eta_min              =  -2.4422303301419E-01
(PID.TID 0000.0001) %MON dynstat_eta_mean             =  -2.2059871466606E-16
(PID.TID 0000.0001) %MON dynstat_eta_sd               =   8.3034572669743E-02
(PID.TID 0000.0001) %MON dynstat_eta_del2             =   1.3183252242702E-03
(PID.TID 0000.0001) %MON dynstat_uvel_max             =   8.6864769494733E-02
(PID.TID 0000.0001) %MON dynstat_uvel_min             =  -1.7777428727172E-01
(PID.TID 0000.0001) %MON dynstat_uvel_mean            =   3.3331494904349E-04
(PID.TID 0000.0001) %MON dynstat_uvel_sd              =   8.0770827523293E-03
(PID.TID 0000.0001) %MON dynstat_uvel_del2            =   2.6595521384120E-04
(PID.TID 0000.0001) %MON dynstat_vvel_max             =   5.7831738460911E-02
(PID.TID 0000.0001) %MON dynstat_vvel_min             =  -1.1766628042113E-01
(PID.TID 0000.0001) %MON dynstat_vvel_mean            =   1.6332531168820E-04
(PID.TID 0000.0001) %MON dynstat_vvel_sd              =   6.6395591709148E-03
(PID.TID 0000.0001) %MON dynstat_vvel_del2            =   1.5933562915386E-04
(PID.TID 0000.0001) %MON dynstat_wvel_max             =   1.4003547724638E-04
(PID.TID 0000.0001) %MON dynstat_wvel_min             =  -1.5527037478157E-04
(PID.TID 0000.0001) %MON dynstat_wvel_mean            =   0.0000000000000E+00
(PID.TID 0000.0001) %MON dynstat_wvel_sd              =   3.2532798053145E-05
(PID.TID 0000.0001) %MON dynstat_wvel_del2            =   6.9533684505939E-07
(PID.TID 0000.0001) %MON dynstat_theta_max            =   2.6095554766015E+01
(PID.TID 0000.0001) %MON dynstat_theta_min            =   1.8064466134796E+00
(PID.TID 0000.0001) %MON dynstat_theta_mean           =   5.4785375843609E+00
(PID.TID 0000.0001) %MON dynstat_theta_sd             =   4.5928181292899E+00
(PID.TID 0000.0001) %MON dynstat_theta_del2           =   3.2018099347342E-03
(PID.TID 0000.0001) %MON dynstat_salt_max             =   3.7402554090946E+01
(PID.TID 0000.0001) %MON dynstat_salt_min             =   3.4726793132135E+01
(PID.TID 0000.0001) %MON dynstat_salt_mean            =   3.5157564315986E+01
(PID.TID 0000.0001) %MON dynstat_salt_sd              =   4.1379183424587E-01
(PID.TID 0000.0001) %MON dynstat_salt_del2            =   7.9594577189343E-04
(PID.TID 0000.0001) %MON forcing_qnet_max             =   4.0802118937174E+01
(PID.TID 0000.0001) %MON forcing_qnet_min             =  -1.6719363403320E+02
(PID.TID 0000.0001) %MON forcing_qnet_mean            =  -7.8480051020742E+01
(PID.TID 0000.0001) %MON forcing_qnet_sd              =   5.1740364754944E+01
(PID.TID 0000.0001) %MON forcing_qnet_del2            =   2.2176581173417E+00
(PID.TID 0000.0001) %MON forcing_qsw_max              =  -1.4420261128743E+02
(PID.TID 0000.0001) %MON forcing_qsw_min              =  -3.1632424926758E+02
(PID.TID 0000.0001) %MON forcing_qsw_mean             =  -2.4846359410256E+02
(PID.TID 0000.0001) %MON forcing_qsw_sd               =   4.2124756076541E+01
(PID.TID 0000.0001) %MON forcing_qsw_del2             =   1.6652300535835E+00
(PID.TID 0000.0001) %MON forcing_empmr_max            =   6.6790408281274E-05
(PID.TID 0000.0001) %MON forcing_empmr_min            =   1.3301053239504E-05
(PID.TID 0000.0001) %MON forcing_empmr_mean           =   3.9857326917978E-05
(PID.TID 0000.0001) %MON forcing_empmr_sd             =   1.1815422392223E-05
(PID.TID 0000.0001) %MON forcing_empmr_del2           =   6.3969320002736E-07
(PID.TID 0000.0001) %MON forcing_fu_max               =   2.4817906816800E-01
(PID.TID 0000.0001) %MON forcing_fu_min               =  -1.1713959276676E-01
(PID.TID 0000.0001) %MON forcing_fu_mean              =  -3.0643607619542E-02
(PID.TID 0000.0001) %MON forcing_fu_sd                =   4.1761536207848E-02
(PID.TID 0000.0001) %MON forcing_fu_del2              =   1.9191033516194E-03
(PID.TID 0000.0001) %MON forcing_fv_max               =   2.8622239828110E-02
(PID.TID 0000.0001) %MON forcing_fv_min               =  -8.4621496498585E-02
(PID.TID 0000.0001) %MON forcing_fv_mean              =  -3.7820369272247E-02
(PID.TID 0000.0001) %MON forcing_fv_sd                =   2.2536127883136E-02
(PID.TID 0000.0001) %MON forcing_fv_del2              =   7.9106584158509E-04
(PID.TID 0000.0001) %MON trAdv_CFL_u_max              =   2.8295526238765E-03
(PID.TID 0000.0001) %MON trAdv_CFL_v_max              =   1.8925641835437E-03
(PID.TID 0000.0001) %MON trAdv_CFL_w_max              =   4.9687811531326E-03
(PID.TID 0000.0001) %MON advcfl_uvel_max              =   2.9797571683810E-03
(PID.TID 0000.0001) %MON advcfl_vvel_max              =   1.9050559287976E-03
(PID.TID 0000.0001) %MON advcfl_wvel_max              =   4.8780387128031E-03
(PID.TID 0000.0001) %MON advcfl_W_hf_max              =   5.1417361502625E-03
(PID.TID 0000.0001) %MON pe_b_mean                    =   8.3109375251197E-06
(PID.TID 0000.0001) %MON ke_max                       =   1.5896898475939E-02
(PID.TID 0000.0001) %MON ke_mean                      =   4.8801005227597E-05
(PID.TID 0000.0001) %MON ke_vol                       =   3.6027486600263E+16
(PID.TID 0000.0001) %MON vort_r_min                   =  -3.3829181593745E-07
(PID.TID 0000.0001) %MON vort_r_max                   =   7.7176373940711E-07
(PID.TID 0000.0001) %MON vort_a_mean                  =   6.2114138811197E-05
(PID.TID 0000.0001) %MON vort_a_sd                    =   1.9250574573533E-05
(PID.TID 0000.0001) %MON vort_p_mean                  =   7.8095197769435E-05
(PID.TID 0000.0001) %MON vort_p_sd                    =   5.6520967179270E-05
(PID.TID 0000.0001) %MON surfExpan_theta_mean         =  -2.4931071721000E-06
(PID.TID 0000.0001) %MON surfExpan_salt_mean          =  -1.2667731117083E-07
(PID.TID 0000.0001) // =======================================================
(PID.TID 0000.0001) // End MONITOR dynamic field statistics
(PID.TID 0000.0001) // =======================================================
(PID.TID 0000.0001) // =======================================================
(PID.TID 0000.0001) // Begin MONITOR ptracer field statistics
(PID.TID 0000.0001) // =======================================================
(PID.TID 0000.0001) %MON trcstat_ptracer01_max        =   3.7400594643744E+01
(PID.TID 0000.0001) %MON trcstat_ptracer01_min        =   3.4726790602687E+01
(PID.TID 0000.0001) %MON trcstat_ptracer01_mean       =   3.5157554301343E+01
(PID.TID 0000.0001) %MON trcstat_ptracer01_sd         =   4.1376215289655E-01
(PID.TID 0000.0001) %MON trcstat_ptracer01_del2       =   7.9612634639927E-04
(PID.TID 0000.0001) // =======================================================
(PID.TID 0000.0001) // End MONITOR ptracers field statistics
(PID.TID 0000.0001) // =======================================================
 Computing Diagnostic #    236  TRAC01       Counter:       2   Parms: SMR     MR      
 EXTERNAL_FIELDS_LOAD,         9 : iP,iLd,i0,i1=    1    2    1    2 ; Wght=  0.2500000000  0.7500000000
 cg2d: Sum(rhs),rhsMax =   4.26325641456060E-14  5.77870750812016E-01
(PID.TID 0000.0001)      cg2d_init_res =   1.14508904202882E-01
(PID.TID 0000.0001)      cg2d_iters(min,last) =      -1      46
(PID.TID 0000.0001)      cg2d_last_res =   6.78861421241509E-14
(PID.TID 0000.0001) // =======================================================
(PID.TID 0000.0001) // Begin MONITOR dynamic field statistics
(PID.TID 0000.0001) // =======================================================
(PID.TID 0000.0001) %MON time_tsnumber                =                    10
(PID.TID 0000.0001) %MON time_secondsf                =   5.7600000000000E+04
(PID.TID 0000.0001) %MON dynstat_eta_max              =   1.5574997568653E-01
(PID.TID 0000.0001) %MON dynstat_eta_min              =  -2.3314947146732E-01
(PID.TID 0000.0001) %MON dynstat_eta_mean             =  -2.1508374679941E-16
(PID.TID 0000.0001) %MON dynstat_eta_sd               =   7.8804381539371E-02
(PID.TID 0000.0001) %MON dynstat_eta_del2             =   1.3207617809375E-03
(PID.TID 0000.0001) %MON dynstat_uvel_max             =   6.5075083714919E-02
(PID.TID 0000.0001) %MON dynstat_uvel_min             =  -1.8535945581349E-01
(PID.TID 0000.0001) %MON dynstat_uvel_mean            =   1.9455131550926E-04
(PID.TID 0000.0001) %MON dynstat_uvel_sd              =   8.4629903009101E-03
(PID.TID 0000.0001) %MON dynstat_uvel_del2            =   2.8151855632607E-04
(PID.TID 0000.0001) %MON dynstat_vvel_max             =   6.3830476221823E-02
(PID.TID 0000.0001) %MON dynstat_vvel_min             =  -1.2024136034828E-01
(PID.TID 0000.0001) %MON dynstat_vvel_mean            =   3.0243497617580E-04
(PID.TID 0000.0001) %MON dynstat_vvel_sd              =   6.6422872088986E-03
(PID.TID 0000.0001) %MON dynstat_vvel_del2            =   1.5110768417026E-04
(PID.TID 0000.0001) %MON dynstat_wvel_max             =   1.4355217961629E-04
(PID.TID 0000.0001) %MON dynstat_wvel_min             =  -1.5106833657359E-04
(PID.TID 0000.0001) %MON dynstat_wvel_mean            =   2.3635053103902E-21
(PID.TID 0000.0001) %MON dynstat_wvel_sd              =   3.1656531147242E-05
(PID.TID 0000.0001) %MON dynstat_wvel_del2            =   6.6624259729122E-07
(PID.TID 0000.0001) %MON dynstat_theta_max            =   2.6102428804608E+01
(PID.TID 0000.0001) %MON dynstat_theta_min            =   1.8064481615360E+00
(PID.TID 0000.0001) %MON dynstat_theta_mean           =   5.4785574727928E+00
(PID.TID 0000.0001) %MON dynstat_theta_sd             =   4.5928858744593E+00
(PID.TID 0000.0001) %MON dynstat_theta_del2           =   3.2020101146310E-03
(PID.TID 0000.0001) %MON dynstat_salt_max             =   3.7402914777148E+01
(PID.TID 0000.0001) %MON dynstat_salt_min             =   3.4726793528930E+01
(PID.TID 0000.0001) %MON dynstat_salt_mean            =   3.5157565577918E+01
(PID.TID 0000.0001) %MON dynstat_salt_sd              =   4.1379527714802E-01
(PID.TID 0000.0001) %MON dynstat_salt_del2            =   7.9601618603868E-04
(PID.TID 0000.0001) %MON forcing_qnet_max             =   4.3620079040527E+01
(PID.TID 0000.0001) %MON forcing_qnet_min             =  -1.6585078811646E+02
(PID.TID 0000.0001) %MON forcing_qnet_mean            =  -7.7511853773026E+01
(PID.TID 0000.0001) %MON forcing_qnet_sd              =   5.1823890423082E+01
(PID.TID 0000.0001) %MON forcing_qnet_del2            =   2.2025759363685E+00
(PID.TID 0000.0001) %MON forcing_qsw_max              =  -1.4178676986694E+02
(PID.TID 0000.0001) %MON forcing_qsw_min              =  -3.1691908264160E+02
(PID.TID 0000.0001) %MON forcing_qsw_mean             =  -2.4874319379438E+02
(PID.TID 0000.0001) %MON forcing_qsw_sd               =   4.2339446866167E+01
(PID.TID 0000.0001) %MON forcing_qsw_del2             =   1.6632331209777E+00
(PID.TID 0000.0001) %MON forcing_empmr_max            =   6.7263162730669E-05
(PID.TID 0000.0001) %MON forcing_empmr_min            =   1.3450765657685E-05
(PID.TID 0000.0001) %MON forcing_empmr_mean           =   4.0246686466085E-05
(PID.TID 0000.0001) %MON forcing_empmr_sd             =   1.1824252951252E-05
(PID.TID 0000.0001) %MON forcing_empmr_del2           =   6.3967184205012E-07
(PID.TID 0000.0001) %MON forcing_fu_max               =   2.5664262473583E-01
(PID.TID 0000.0001) %MON forcing_fu_min               =  -1.1803933046758E-01
(PID.TID 0000.0001) %MON forcing_fu_mean              =  -3.0912810435881E-02
(PID.TID 0000.0001) %MON forcing_fu_sd                =   4.2080810370275E-02
(PID.TID 0000.0001) %MON forcing_fu_del2              =   1.9479399770591E-03
(PID.TID 0000.0001) %MON forcing_fv_max               =   3.0108646489680E-02
(PID.TID 0000.0001) %MON forcing_fv_min               =  -8.6464884690940E-02
(PID.TID 0000.0001) %MON forcing_fv_mean              =  -3.8139878966627E-02
(PID.TID 0000.0001) %MON forcing_fv_sd                =   2.2693902503798E-02
(PID.TID 0000.0001) %MON forcing_fv_del2              =   8.0417422606976E-04
(PID.TID 0000.0001) %MON trAdv_CFL_u_max              =   2.9799084547476E-03
(PID.TID 0000.0001) %MON trAdv_CFL_v_max              =   1.9176257737444E-03
(PID.TID 0000.0001) %MON trAdv_CFL_w_max              =   5.1417361502625E-03
(PID.TID 0000.0001) %MON advcfl_uvel_max              =   3.1381531560017E-03
(PID.TID 0000.0001) %MON advcfl_vvel_max              =   1.9467473230083E-03
(PID.TID 0000.0001) %MON advcfl_wvel_max              =   4.5071271188401E-03
(PID.TID 0000.0001) %MON advcfl_W_hf_max              =   5.2807746690884E-03
(PID.TID 0000.0001) %MON pe_b_mean                    =   7.4857072329908E-06
(PID.TID 0000.0001) %MON ke_max                       =   1.7306298217017E-02
(PID.TID 0000.0001) %MON ke_mean                      =   5.1686461024208E-05
(PID.TID 0000.0001) %MON ke_vol                       =   3.6027486600263E+16
(PID.TID 0000.0001) %MON vort_r_min                   =  -3.5154256117942E-07
(PID.TID 0000.0001) %MON vort_r_max                   =   7.9910102423365E-07
(PID.TID 0000.0001) %MON vort_a_mean                  =   6.2114138811197E-05
(PID.TID 0000.0001) %MON vort_a_sd                    =   1.9250454301871E-05
(PID.TID 0000.0001) %MON vort_p_mean                  =   7.8095197769435E-05
(PID.TID 0000.0001) %MON vort_p_sd                    =   5.6520583650539E-05
(PID.TID 0000.0001) %MON surfExpan_theta_mean         =  -2.9346165400542E-06
(PID.TID 0000.0001) %MON surfExpan_salt_mean          =   9.8395291415998E-08
(PID.TID 0000.0001) // =======================================================
(PID.TID 0000.0001) // End MONITOR dynamic field statistics
(PID.TID 0000.0001) // =======================================================
(PID.TID 0000.0001) // =======================================================
(PID.TID 0000.0001) // Begin MONITOR ptracer field statistics
(PID.TID 0000.0001) // =======================================================
(PID.TID 0000.0001) %MON trcstat_ptracer01_max        =   3.7400704835246E+01
(PID.TID 0000.0001) %MON trcstat_ptracer01_min        =   3.4726790612261E+01
(PID.TID 0000.0001) %MON trcstat_ptracer01_mean       =   3.5157554338844E+01
(PID.TID 0000.0001) %MON trcstat_ptracer01_sd         =   4.1376138048288E-01
(PID.TID 0000.0001) %MON trcstat_ptracer01_del2       =   7.9626567327623E-04
(PID.TID 0000.0001) // =======================================================
(PID.TID 0000.0001) // End MONITOR ptracers field statistics
(PID.TID 0000.0001) // =======================================================
 EXTERNAL_FIELDS_LOAD,        10 : iP,iLd,i0,i1=    1    2    1    2 ; Wght=  0.1666666667  0.8333333333
 cg2d: Sum(rhs),rhsMax =   3.81916720471054E-14  5.68212392916833E-01
(PID.TID 0000.0001)      cg2d_init_res =   1.08437237536760E-01
(PID.TID 0000.0001)      cg2d_iters(min,last) =      -1      45
(PID.TID 0000.0001)      cg2d_last_res =   9.88692005410516E-14
(PID.TID 0000.0001) // =======================================================
(PID.TID 0000.0001) // Begin MONITOR dynamic field statistics
(PID.TID 0000.0001) // =======================================================
(PID.TID 0000.0001) %MON time_tsnumber                =                    11
(PID.TID 0000.0001) %MON time_secondsf                =   6.1200000000000E+04
(PID.TID 0000.0001) %MON dynstat_eta_max              =   1.5251864766846E-01
(PID.TID 0000.0001) %MON dynstat_eta_min              =  -2.2427279963598E-01
(PID.TID 0000.0001) %MON dynstat_eta_mean             =  -2.7574839333258E-16
(PID.TID 0000.0001) %MON dynstat_eta_sd               =   7.5978151645793E-02
(PID.TID 0000.0001) %MON dynstat_eta_del2             =   1.3271945998794E-03
(PID.TID 0000.0001) %MON dynstat_uvel_max             =   4.8375441904274E-02
(PID.TID 0000.0001) %MON dynstat_uvel_min             =  -1.9516422613664E-01
(PID.TID 0000.0001) %MON dynstat_uvel_mean            =   8.3940386380320E-05
(PID.TID 0000.0001) %MON dynstat_uvel_sd              =   8.7467957273313E-03
(PID.TID 0000.0001) %MON dynstat_uvel_del2            =   2.9099769502938E-04
(PID.TID 0000.0001) %MON dynstat_vvel_max             =   6.7909861040993E-02
(PID.TID 0000.0001) %MON dynstat_vvel_min             =  -1.2587585197400E-01
(PID.TID 0000.0001) %MON dynstat_vvel_mean            =   3.1959068596157E-04
(PID.TID 0000.0001) %MON dynstat_vvel_sd              =   6.5949848427569E-03
(PID.TID 0000.0001) %MON dynstat_vvel_del2            =   1.4764414823063E-04
(PID.TID 0000.0001) %MON dynstat_wvel_max             =   1.4458545941199E-04
(PID.TID 0000.0001) %MON dynstat_wvel_min             =  -1.4259550500476E-04
(PID.TID 0000.0001) %MON dynstat_wvel_mean            =  -4.5019148769337E-22
(PID.TID 0000.0001) %MON dynstat_wvel_sd              =   3.0772111397210E-05
(PID.TID 0000.0001) %MON dynstat_wvel_del2            =   6.3867372066799E-07
(PID.TID 0000.0001) %MON dynstat_theta_max            =   2.6109284156158E+01
(PID.TID 0000.0001) %MON dynstat_theta_min            =   1.8064496380794E+00
(PID.TID 0000.0001) %MON dynstat_theta_mean           =   5.4785771087965E+00
(PID.TID 0000.0001) %MON dynstat_theta_sd             =   4.5929527648945E+00
(PID.TID 0000.0001) %MON dynstat_theta_del2           =   3.2030646576308E-03
(PID.TID 0000.0001) %MON dynstat_salt_max             =   3.7403289450789E+01
(PID.TID 0000.0001) %MON dynstat_salt_min             =   3.4726794394727E+01
(PID.TID 0000.0001) %MON dynstat_salt_mean            =   3.5157566689731E+01
(PID.TID 0000.0001) %MON dynstat_salt_sd              =   4.1379829389445E-01
(PID.TID 0000.0001) %MON dynstat_salt_del2            =   7.9614953980189E-04
(PID.TID 0000.0001) %MON forcing_qnet_max             =   4.6438039143880E+01
(PID.TID 0000.0001) %MON forcing_qnet_min             =  -1.6450794219971E+02
(PID.TID 0000.0001) %MON forcing_qnet_mean            =  -7.6543656525311E+01
(PID.TID 0000.0001) %MON forcing_qnet_sd              =   5.1937624405908E+01
(PID.TID 0000.0001) %MON forcing_qnet_del2            =   2.1896855847669E+00
(PID.TID 0000.0001) %MON forcing_qsw_max              =  -1.3937092844645E+02
(PID.TID 0000.0001) %MON forcing_qsw_min              =  -3.1751391601563E+02
(PID.TID 0000.0001) %MON forcing_qsw_mean             =  -2.4902279348619E+02
(PID.TID 0000.0001) %MON forcing_qsw_sd               =   4.2575600204769E+01
(PID.TID 0000.0001) %MON forcing_qsw_del2             =   1.6630146789283E+00
(PID.TID 0000.0001) %MON forcing_empmr_max            =   6.7735917180064E-05
(PID.TID 0000.0001) %MON forcing_empmr_min            =   1.3600478075867E-05
(PID.TID 0000.0001) %MON forcing_empmr_mean           =   4.0636046014191E-05
(PID.TID 0000.0001) %MON forcing_empmr_sd             =   1.1843522017782E-05
(PID.TID 0000.0001) %MON forcing_empmr_del2           =   6.4028413532627E-07
(PID.TID 0000.0001) %MON forcing_fu_max               =   2.6510618130366E-01
(PID.TID 0000.0001) %MON forcing_fu_min               =  -1.1893906816840E-01
(PID.TID 0000.0001) %MON forcing_fu_mean              =  -3.1182013252220E-02
(PID.TID 0000.0001) %MON forcing_fu_sd                =   4.2428046496080E-02
(PID.TID 0000.0001) %MON forcing_fu_del2              =   1.9795332947244E-03
(PID.TID 0000.0001) %MON forcing_fv_max               =   3.1595053151250E-02
(PID.TID 0000.0001) %MON forcing_fv_min               =  -9.0216387684147E-02
(PID.TID 0000.0001) %MON forcing_fv_mean              =  -3.8459388661008E-02
(PID.TID 0000.0001) %MON forcing_fv_sd                =   2.2904405561001E-02
(PID.TID 0000.0001) %MON forcing_fv_del2              =   8.2137594373950E-04
(PID.TID 0000.0001) %MON trAdv_CFL_u_max              =   3.1383124843502E-03
(PID.TID 0000.0001) %MON trAdv_CFL_v_max              =   1.9582489190800E-03
(PID.TID 0000.0001) %MON trAdv_CFL_w_max              =   5.2807746690884E-03
(PID.TID 0000.0001) %MON advcfl_uvel_max              =   3.3041488469063E-03
(PID.TID 0000.0001) %MON advcfl_vvel_max              =   2.0379716027163E-03
(PID.TID 0000.0001) %MON advcfl_wvel_max              =   4.2193926815066E-03
(PID.TID 0000.0001) %MON advcfl_W_hf_max              =   5.2742408518832E-03
(PID.TID 0000.0001) %MON pe_b_mean                    =   6.9584026529362E-06
(PID.TID 0000.0001) %MON ke_max                       =   1.8370864517395E-02
(PID.TID 0000.0001) %MON ke_mean                      =   5.3601474482930E-05
(PID.TID 0000.0001) %MON ke_vol                       =   3.6027486600263E+16
(PID.TID 0000.0001) %MON vort_r_min                   =  -3.6372954247483E-07
(PID.TID 0000.0001) %MON vort_r_max                   =   8.1669721558101E-07
(PID.TID 0000.0001) %MON vort_a_mean                  =   6.2114138811197E-05
(PID.TID 0000.0001) %MON vort_a_sd                    =   1.9250358230469E-05
(PID.TID 0000.0001) %MON vort_p_mean                  =   7.8095197769435E-05
(PID.TID 0000.0001) %MON vort_p_sd                    =   5.6520180027974E-05
(PID.TID 0000.0001) %MON surfExpan_theta_mean         =  -2.6259138025953E-06
(PID.TID 0000.0001) %MON surfExpan_salt_mean          =   1.9823360870463E-07
(PID.TID 0000.0001) // =======================================================
(PID.TID 0000.0001) // End MONITOR dynamic field statistics
(PID.TID 0000.0001) // =======================================================
(PID.TID 0000.0001) // =======================================================
(PID.TID 0000.0001) // Begin MONITOR ptracer field statistics
(PID.TID 0000.0001) // =======================================================
(PID.TID 0000.0001) %MON trcstat_ptracer01_max        =   3.7400704835246E+01
(PID.TID 0000.0001) %MON trcstat_ptracer01_min        =   3.4726790612261E+01
(PID.TID 0000.0001) %MON trcstat_ptracer01_mean       =   3.5157554338844E+01
(PID.TID 0000.0001) %MON trcstat_ptracer01_sd         =   4.1376138048288E-01
(PID.TID 0000.0001) %MON trcstat_ptracer01_del2       =   7.9626567327623E-04
(PID.TID 0000.0001) // =======================================================
(PID.TID 0000.0001) // End MONITOR ptracers field statistics
(PID.TID 0000.0001) // =======================================================
 EXTERNAL_FIELDS_LOAD,        11 : iP,iLd,i0,i1=    1    2    1    2 ; Wght=  0.0833333333  0.9166666667
 cg2d: Sum(rhs),rhsMax =   5.32907051820075E-14  5.60567260705591E-01
(PID.TID 0000.0001)      cg2d_init_res =   9.22228910794651E-02
(PID.TID 0000.0001)      cg2d_iters(min,last) =      -1      46
(PID.TID 0000.0001)      cg2d_last_res =   5.97808027570347E-14
(PID.TID 0000.0001) // =======================================================
(PID.TID 0000.0001) // Begin MONITOR dynamic field statistics
(PID.TID 0000.0001) // =======================================================
(PID.TID 0000.0001) %MON time_tsnumber                =                    12
(PID.TID 0000.0001) %MON time_secondsf                =   6.4800000000000E+04
(PID.TID 0000.0001) %MON dynstat_eta_max              =   1.5104824837602E-01
(PID.TID 0000.0001) %MON dynstat_eta_min              =  -2.1802921902742E-01
(PID.TID 0000.0001) %MON dynstat_eta_mean             =  -2.5920348973262E-16
(PID.TID 0000.0001) %MON dynstat_eta_sd               =   7.4538599168162E-02
(PID.TID 0000.0001) %MON dynstat_eta_del2             =   1.3372710050081E-03
(PID.TID 0000.0001) %MON dynstat_uvel_max             =   4.2390085634442E-02
(PID.TID 0000.0001) %MON dynstat_uvel_min             =  -2.0250998282575E-01
(PID.TID 0000.0001) %MON dynstat_uvel_mean            =   9.5042627029153E-06
(PID.TID 0000.0001) %MON dynstat_uvel_sd              =   8.9309325912489E-03
(PID.TID 0000.0001) %MON dynstat_uvel_del2            =   2.9423278810653E-04
(PID.TID 0000.0001) %MON dynstat_vvel_max             =   7.0059152692663E-02
(PID.TID 0000.0001) %MON dynstat_vvel_min             =  -1.3027475941435E-01
(PID.TID 0000.0001) %MON dynstat_vvel_mean            =   2.4509374723330E-04
(PID.TID 0000.0001) %MON dynstat_vvel_sd              =   6.5088570272612E-03
(PID.TID 0000.0001) %MON dynstat_vvel_del2            =   1.4961916892075E-04
(PID.TID 0000.0001) %MON dynstat_wvel_max             =   1.4316016840425E-04
(PID.TID 0000.0001) %MON dynstat_wvel_min             =  -1.4531242584117E-04
(PID.TID 0000.0001) %MON dynstat_wvel_mean            =  -4.5019148769337E-22
(PID.TID 0000.0001) %MON dynstat_wvel_sd              =   2.9941899951979E-05
(PID.TID 0000.0001) %MON dynstat_wvel_del2            =   6.1346345613422E-07
(PID.TID 0000.0001) %MON dynstat_theta_max            =   2.6116064800554E+01
(PID.TID 0000.0001) %MON dynstat_theta_min            =   1.8064510886908E+00
(PID.TID 0000.0001) %MON dynstat_theta_mean           =   5.4785958617887E+00
(PID.TID 0000.0001) %MON dynstat_theta_sd             =   4.5930164045633E+00
(PID.TID 0000.0001) %MON dynstat_theta_del2           =   3.2049636873757E-03
(PID.TID 0000.0001) %MON dynstat_salt_max             =   3.7403672883614E+01
(PID.TID 0000.0001) %MON dynstat_salt_min             =   3.4726795944369E+01
(PID.TID 0000.0001) %MON dynstat_salt_mean            =   3.5157567790494E+01
(PID.TID 0000.0001) %MON dynstat_salt_sd              =   4.1380124639528E-01
(PID.TID 0000.0001) %MON dynstat_salt_del2            =   7.9633068140537E-04
(PID.TID 0000.0001) %MON forcing_qnet_max             =   4.9255999247233E+01
(PID.TID 0000.0001) %MON forcing_qnet_min             =  -1.6316509628296E+02
(PID.TID 0000.0001) %MON forcing_qnet_mean            =  -7.5575459277595E+01
(PID.TID 0000.0001) %MON forcing_qnet_sd              =   5.2081368799327E+01
(PID.TID 0000.0001) %MON forcing_qnet_del2            =   2.1790259611605E+00
(PID.TID 0000.0001) %MON forcing_qsw_max              =  -1.3695508702596E+02
(PID.TID 0000.0001) %MON forcing_qsw_min              =  -3.1810874938965E+02
(PID.TID 0000.0001) %MON forcing_qsw_mean             =  -2.4930239317800E+02
(PID.TID 0000.0001) %MON forcing_qsw_sd               =   4.2832861101004E+01
(PID.TID 0000.0001) %MON forcing_qsw_del2             =   1.6645754276089E+00
(PID.TID 0000.0001) %MON forcing_empmr_max            =   6.8208671629459E-05
(PID.TID 0000.0001) %MON forcing_empmr_min            =   1.3750190494048E-05
(PID.TID 0000.0001) %MON forcing_empmr_mean           =   4.1025405562298E-05
(PID.TID 0000.0001) %MON forcing_empmr_sd             =   1.1873178769737E-05
(PID.TID 0000.0001) %MON forcing_empmr_del2           =   6.4152826553268E-07
(PID.TID 0000.0001) %MON forcing_fu_max               =   2.7356973787149E-01
(PID.TID 0000.0001) %MON forcing_fu_min               =  -1.1983880586922E-01
(PID.TID 0000.0001) %MON forcing_fu_mean              =  -3.1451216068558E-02
(PID.TID 0000.0001) %MON forcing_fu_sd                =   4.2802564065753E-02
(PID.TID 0000.0001) %MON forcing_fu_del2              =   2.0137535614592E-03
(PID.TID 0000.0001) %MON forcing_fv_max               =   3.3081459812820E-02
(PID.TID 0000.0001) %MON forcing_fv_min               =  -9.3967890677353E-02
(PID.TID 0000.0001) %MON forcing_fv_mean              =  -3.8778898355389E-02
(PID.TID 0000.0001) %MON forcing_fv_sd                =   2.3166199725416E-02
(PID.TID 0000.0001) %MON forcing_fv_del2              =   8.4242028166461E-04
(PID.TID 0000.0001) %MON trAdv_CFL_u_max              =   3.3043166030842E-03
(PID.TID 0000.0001) %MON trAdv_CFL_v_max              =   2.0500121618083E-03
(PID.TID 0000.0001) %MON trAdv_CFL_w_max              =   5.2742408518832E-03
(PID.TID 0000.0001) %MON advcfl_uvel_max              =   3.4285132039119E-03
(PID.TID 0000.0001) %MON advcfl_vvel_max              =   2.1091913665218E-03
(PID.TID 0000.0001) %MON advcfl_wvel_max              =   4.1357281544049E-03
(PID.TID 0000.0001) %MON advcfl_W_hf_max              =   5.1696601930061E-03
(PID.TID 0000.0001) %MON pe_b_mean                    =   6.6972199308958E-06
(PID.TID 0000.0001) %MON ke_max                       =   1.9875045716089E-02
(PID.TID 0000.0001) %MON ke_mean                      =   5.4549815783038E-05
(PID.TID 0000.0001) %MON ke_vol                       =   3.6027486600263E+16
(PID.TID 0000.0001) %MON vort_r_min                   =  -3.6934002680983E-07
(PID.TID 0000.0001) %MON vort_r_max                   =   8.2316994615220E-07
(PID.TID 0000.0001) %MON vort_a_mean                  =   6.2114138811197E-05
(PID.TID 0000.0001) %MON vort_a_sd                    =   1.9250292894529E-05
(PID.TID 0000.0001) %MON vort_p_mean                  =   7.8095197769435E-05
(PID.TID 0000.0001) %MON vort_p_sd                    =   5.6519862195410E-05
(PID.TID 0000.0001) %MON surfExpan_theta_mean         =  -1.8165012489577E-06
(PID.TID 0000.0001) %MON surfExpan_salt_mean          =   1.8528403910614E-07
(PID.TID 0000.0001) // =======================================================
(PID.TID 0000.0001) // End MONITOR dynamic field statistics
(PID.TID 0000.0001) // =======================================================
(PID.TID 0000.0001) // =======================================================
(PID.TID 0000.0001) // Begin MONITOR ptracer field statistics
(PID.TID 0000.0001) // =======================================================
(PID.TID 0000.0001) %MON trcstat_ptracer01_max        =   3.7400841853869E+01
(PID.TID 0000.0001) %MON trcstat_ptracer01_min        =   3.4726793234349E+01
(PID.TID 0000.0001) %MON trcstat_ptracer01_mean       =   3.5157553622890E+01
(PID.TID 0000.0001) %MON trcstat_ptracer01_sd         =   4.1375836851408E-01
(PID.TID 0000.0001) %MON trcstat_ptracer01_del2       =   7.9665531105087E-04
(PID.TID 0000.0001) // =======================================================
(PID.TID 0000.0001) // End MONITOR ptracers field statistics
(PID.TID 0000.0001) // =======================================================
 Computing Diagnostic #    236  TRAC01       Counter:       1   Parms: SMR     MR      
 EXTERNAL_FIELDS_LOAD,        12 : iP,iLd,i0,i1=    1    2    2    3 ; Wght=  1.0000000000  0.0000000000
 EXTERNAL_FIELDS_LOAD, it=        12 : Reading new data, i0,i1=    2    3 (prev=    1    2 )
(PID.TID 0000.0001)  MDS_READ_FIELD: opening global file: kf_tx
(PID.TID 0000.0001)  MDS_READ_FIELD: opening global file: kf_tx
(PID.TID 0000.0001)  MDS_READ_FIELD: opening global file: kf_ty
(PID.TID 0000.0001)  MDS_READ_FIELD: opening global file: kf_ty
(PID.TID 0000.0001)  MDS_READ_FIELD: opening global file: kf_qnet
(PID.TID 0000.0001)  MDS_READ_FIELD: opening global file: kf_qnet
(PID.TID 0000.0001)  MDS_READ_FIELD: opening global file: kf_empmr
(PID.TID 0000.0001)  MDS_READ_FIELD: opening global file: kf_empmr
(PID.TID 0000.0001)  MDS_READ_FIELD: opening global file: kf_sst
(PID.TID 0000.0001)  MDS_READ_FIELD: opening global file: kf_sst
(PID.TID 0000.0001)  MDS_READ_FIELD: opening global file: kf_sss
(PID.TID 0000.0001)  MDS_READ_FIELD: opening global file: kf_sss
(PID.TID 0000.0001)  MDS_READ_FIELD: opening global file: kf_sw
(PID.TID 0000.0001)  MDS_READ_FIELD: opening global file: kf_sw
 cg2d: Sum(rhs),rhsMax =   5.15143483426073E-14  5.54839657289697E-01
(PID.TID 0000.0001)      cg2d_init_res =   7.34378453810893E-02
(PID.TID 0000.0001)      cg2d_iters(min,last) =      -1      44
(PID.TID 0000.0001)      cg2d_last_res =   9.72095560610189E-14
(PID.TID 0000.0001) // =======================================================
(PID.TID 0000.0001) // Begin MONITOR dynamic field statistics
(PID.TID 0000.0001) // =======================================================
(PID.TID 0000.0001) %MON time_tsnumber                =                    13
(PID.TID 0000.0001) %MON time_secondsf                =   6.8400000000000E+04
(PID.TID 0000.0001) %MON dynstat_eta_max              =   1.5083268171313E-01
(PID.TID 0000.0001) %MON dynstat_eta_min              =  -2.1444417303123E-01
(PID.TID 0000.0001) %MON dynstat_eta_mean             =  -2.4541607006599E-16
(PID.TID 0000.0001) %MON dynstat_eta_sd               =   7.4130312529017E-02
(PID.TID 0000.0001) %MON dynstat_eta_del2             =   1.3499815338675E-03
(PID.TID 0000.0001) %MON dynstat_uvel_max             =   4.1113015068740E-02
(PID.TID 0000.0001) %MON dynstat_uvel_min             =  -2.0700508546157E-01
(PID.TID 0000.0001) %MON dynstat_uvel_mean            =  -3.4993169319881E-05
(PID.TID 0000.0001) %MON dynstat_uvel_sd              =   9.0179875110964E-03
(PID.TID 0000.0001) %MON dynstat_uvel_del2            =   2.9102533495573E-04
(PID.TID 0000.0001) %MON dynstat_vvel_max             =   7.1385439748617E-02
(PID.TID 0000.0001) %MON dynstat_vvel_min             =  -1.3331085643791E-01
(PID.TID 0000.0001) %MON dynstat_vvel_mean            =   1.2958783541532E-04
(PID.TID 0000.0001) %MON dynstat_vvel_sd              =   6.3907246915460E-03
(PID.TID 0000.0001) %MON dynstat_vvel_del2            =   1.5543675847844E-04
(PID.TID 0000.0001) %MON dynstat_wvel_max             =   1.3931485665150E-04
(PID.TID 0000.0001) %MON dynstat_wvel_min             =  -1.5207643790396E-04
(PID.TID 0000.0001) %MON dynstat_wvel_mean            =  -6.7528723154006E-22
(PID.TID 0000.0001) %MON dynstat_wvel_sd              =   2.9125393633160E-05
(PID.TID 0000.0001) %MON dynstat_wvel_del2            =   5.8863468243201E-07
(PID.TID 0000.0001) %MON dynstat_theta_max            =   2.6122736854695E+01
(PID.TID 0000.0001) %MON dynstat_theta_min            =   1.8064525618854E+00
(PID.TID 0000.0001) %MON dynstat_theta_mean           =   5.4786134211640E+00
(PID.TID 0000.0001) %MON dynstat_theta_sd             =   4.5930756015780E+00
(PID.TID 0000.0001) %MON dynstat_theta_del2           =   3.2076085499454E-03
(PID.TID 0000.0001) %MON dynstat_salt_max             =   3.7404060948871E+01
(PID.TID 0000.0001) %MON dynstat_salt_min             =   3.4726798317487E+01
(PID.TID 0000.0001) %MON dynstat_salt_mean            =   3.5157568973489E+01
(PID.TID 0000.0001) %MON dynstat_salt_sd              =   4.1380438995047E-01
(PID.TID 0000.0001) %MON dynstat_salt_del2            =   7.9655597582111E-04
(PID.TID 0000.0001) %MON forcing_qnet_max             =   5.2073959350586E+01
(PID.TID 0000.0001) %MON forcing_qnet_min             =  -1.6258977508545E+02
(PID.TID 0000.0001) %MON forcing_qnet_mean            =  -7.4607262029879E+01
(PID.TID 0000.0001) %MON forcing_qnet_sd              =   5.2254875943117E+01
(PID.TID 0000.0001) %MON forcing_qnet_del2            =   2.1706299300652E+00
(PID.TID 0000.0001) %MON forcing_qsw_max              =  -1.3453924560547E+02
(PID.TID 0000.0001) %MON forcing_qsw_min              =  -3.1870358276367E+02
(PID.TID 0000.0001) %MON forcing_qsw_mean             =  -2.4958199286982E+02
(PID.TID 0000.0001) %MON forcing_qsw_sd               =   4.3110851683050E+01
(PID.TID 0000.0001) %MON forcing_qsw_del2             =   1.6679103723886E+00
(PID.TID 0000.0001) %MON forcing_empmr_max            =   6.8681426078854E-05
(PID.TID 0000.0001) %MON forcing_empmr_min            =   1.3899902912229E-05
(PID.TID 0000.0001) %MON forcing_empmr_mean           =   4.1414765110404E-05
(PID.TID 0000.0001) %MON forcing_empmr_sd             =   1.1913145629620E-05
(PID.TID 0000.0001) %MON forcing_empmr_del2           =   6.4340056737027E-07
(PID.TID 0000.0001) %MON forcing_fu_max               =   2.8203329443932E-01
(PID.TID 0000.0001) %MON forcing_fu_min               =  -1.2077324837446E-01
(PID.TID 0000.0001) %MON forcing_fu_mean              =  -3.1720418884897E-02
(PID.TID 0000.0001) %MON forcing_fu_sd                =   4.3203653604840E-02
(PID.TID 0000.0001) %MON forcing_fu_del2              =   2.0504692580788E-03
(PID.TID 0000.0001) %MON forcing_fv_max               =   3.4567866474390E-02
(PID.TID 0000.0001) %MON forcing_fv_min               =  -9.7719393670559E-02
(PID.TID 0000.0001) %MON forcing_fv_mean              =  -3.9098408049770E-02
(PID.TID 0000.0001) %MON forcing_fv_sd                =   2.3477569245921E-02
(PID.TID 0000.0001) %MON forcing_fv_del2              =   8.6702748277819E-04
(PID.TID 0000.0001) %MON trAdv_CFL_u_max              =   3.4286872742391E-03
(PID.TID 0000.0001) %MON trAdv_CFL_v_max              =   2.1216526997667E-03
(PID.TID 0000.0001) %MON trAdv_CFL_w_max              =   5.1696601930061E-03
(PID.TID 0000.0001) %MON advcfl_uvel_max              =   3.5046157175994E-03
(PID.TID 0000.0001) %MON advcfl_vvel_max              =   2.1583467797331E-03
(PID.TID 0000.0001) %MON advcfl_wvel_max              =   4.0199548522440E-03
(PID.TID 0000.0001) %MON advcfl_W_hf_max              =   5.0249435653050E-03
(PID.TID 0000.0001) %MON pe_b_mean                    =   6.6240525619688E-06
(PID.TID 0000.0001) %MON ke_max                       =   2.1445465736855E-02
(PID.TID 0000.0001) %MON ke_mean                      =   5.4565530882244E-05
(PID.TID 0000.0001) %MON ke_vol                       =   3.6027486600263E+16
(PID.TID 0000.0001) %MON vort_r_min                   =  -3.6892657104577E-07
(PID.TID 0000.0001) %MON vort_r_max                   =   8.1555030978026E-07
(PID.TID 0000.0001) %MON vort_a_mean                  =   6.2114138811197E-05
(PID.TID 0000.0001) %MON vort_a_sd                    =   1.9250252681255E-05
(PID.TID 0000.0001) %MON vort_p_mean                  =   7.8095197769435E-05
(PID.TID 0000.0001) %MON vort_p_sd                    =   5.6519702024707E-05
(PID.TID 0000.0001) %MON surfExpan_theta_mean         =  -8.4332891167633E-07
(PID.TID 0000.0001) %MON surfExpan_salt_mean          =   1.0863689059349E-07
(PID.TID 0000.0001) // =======================================================
(PID.TID 0000.0001) // End MONITOR dynamic field statistics
(PID.TID 0000.0001) // =======================================================
(PID.TID 0000.0001) // =======================================================
(PID.TID 0000.0001) // Begin MONITOR ptracer field statistics
(PID.TID 0000.0001) // =======================================================
(PID.TID 0000.0001) %MON trcstat_ptracer01_max        =   3.7400841853869E+01
(PID.TID 0000.0001) %MON trcstat_ptracer01_min        =   3.4726793234349E+01
(PID.TID 0000.0001) %MON trcstat_ptracer01_mean       =   3.5157553622890E+01
(PID.TID 0000.0001) %MON trcstat_ptracer01_sd         =   4.1375836851408E-01
(PID.TID 0000.0001) %MON trcstat_ptracer01_del2       =   7.9665531105087E-04
(PID.TID 0000.0001) // =======================================================
(PID.TID 0000.0001) // End MONITOR ptracers field statistics
(PID.TID 0000.0001) // =======================================================
 EXTERNAL_FIELDS_LOAD,        13 : iP,iLd,i0,i1=    2    3    2    3 ; Wght=  0.9166666667  0.0833333333
 cg2d: Sum(rhs),rhsMax =   4.97379915032070E-14  5.50705214858855E-01
(PID.TID 0000.0001)      cg2d_init_res =   6.58117243750605E-02
(PID.TID 0000.0001)      cg2d_iters(min,last) =      -1      44
(PID.TID 0000.0001)      cg2d_last_res =   7.19196135858267E-14
(PID.TID 0000.0001) // =======================================================
(PID.TID 0000.0001) // Begin MONITOR dynamic field statistics
(PID.TID 0000.0001) // =======================================================
(PID.TID 0000.0001) %MON time_tsnumber                =                    14
(PID.TID 0000.0001) %MON time_secondsf                =   7.2000000000000E+04
(PID.TID 0000.0001) %MON dynstat_eta_max              =   1.5128295330641E-01
(PID.TID 0000.0001) %MON dynstat_eta_min              =  -2.1313475713614E-01
(PID.TID 0000.0001) %MON dynstat_eta_mean             =  -2.5920348973262E-16
(PID.TID 0000.0001) %MON dynstat_eta_sd               =   7.4346527934261E-02
(PID.TID 0000.0001) %MON dynstat_eta_del2             =   1.3640188933822E-03
(PID.TID 0000.0001) %MON dynstat_uvel_max             =   3.9184309352880E-02
(PID.TID 0000.0001) %MON dynstat_uvel_min             =  -2.0706712084532E-01
(PID.TID 0000.0001) %MON dynstat_uvel_mean            =  -5.9163847087105E-05
(PID.TID 0000.0001) %MON dynstat_uvel_sd              =   9.0196454762000E-03
(PID.TID 0000.0001) %MON dynstat_uvel_del2            =   2.8315521737594E-04
(PID.TID 0000.0001) %MON dynstat_vvel_max             =   7.5578077167747E-02
(PID.TID 0000.0001) %MON dynstat_vvel_min             =  -1.3476784411193E-01
(PID.TID 0000.0001) %MON dynstat_vvel_mean            =   2.0919409514169E-05
(PID.TID 0000.0001) %MON dynstat_vvel_sd              =   6.2463242718965E-03
(PID.TID 0000.0001) %MON dynstat_vvel_del2            =   1.6240063097934E-04
(PID.TID 0000.0001) %MON dynstat_wvel_max             =   1.3315560964863E-04
(PID.TID 0000.0001) %MON dynstat_wvel_min             =  -1.5742019715716E-04
(PID.TID 0000.0001) %MON dynstat_wvel_mean            =   9.0038297538675E-22
(PID.TID 0000.0001) %MON dynstat_wvel_sd              =   2.8226777282794E-05
(PID.TID 0000.0001) %MON dynstat_wvel_del2            =   5.6123213768983E-07
(PID.TID 0000.0001) %MON dynstat_theta_max            =   2.6129224201711E+01
(PID.TID 0000.0001) %MON dynstat_theta_min            =   1.8064541028566E+00
(PID.TID 0000.0001) %MON dynstat_theta_mean           =   5.4786298252977E+00
(PID.TID 0000.0001) %MON dynstat_theta_sd             =   4.5931305400525E+00
(PID.TID 0000.0001) %MON dynstat_theta_del2           =   3.2108541364705E-03
(PID.TID 0000.0001) %MON dynstat_salt_max             =   3.7404452048825E+01
(PID.TID 0000.0001) %MON dynstat_salt_min             =   3.4726801550900E+01
(PID.TID 0000.0001) %MON dynstat_salt_mean            =   3.5157570270683E+01
(PID.TID 0000.0001) %MON dynstat_salt_sd              =   4.1380782557527E-01
(PID.TID 0000.0001) %MON dynstat_salt_del2            =   7.9680406308609E-04
(PID.TID 0000.0001) %MON forcing_qnet_max             =   5.1977971394857E+01
(PID.TID 0000.0001) %MON forcing_qnet_min             =  -1.6385988362630E+02
(PID.TID 0000.0001) %MON forcing_qnet_mean            =  -7.3651586729899E+01
(PID.TID 0000.0001) %MON forcing_qnet_sd              =   5.1704387965704E+01
(PID.TID 0000.0001) %MON forcing_qnet_del2            =   2.1286045025404E+00
(PID.TID 0000.0001) %MON forcing_qsw_max              =  -1.3404340108236E+02
(PID.TID 0000.0001) %MON forcing_qsw_min              =  -3.1842380015055E+02
(PID.TID 0000.0001) %MON forcing_qsw_mean             =  -2.5003001626694E+02
(PID.TID 0000.0001) %MON forcing_qsw_sd               =   4.2766618166345E+01
(PID.TID 0000.0001) %MON forcing_qsw_del2             =   1.6234981043782E+00
(PID.TID 0000.0001) %MON forcing_empmr_max            =   6.8503168801470E-05
(PID.TID 0000.0001) %MON forcing_empmr_min            =   1.3984636391040E-05
(PID.TID 0000.0001) %MON forcing_empmr_mean           =   4.1836037621644E-05
(PID.TID 0000.0001) %MON forcing_empmr_sd             =   1.1816049545074E-05
(PID.TID 0000.0001) %MON forcing_empmr_del2           =   6.3867466161194E-07
(PID.TID 0000.0001) %MON forcing_fu_max               =   2.6923674469193E-01
(PID.TID 0000.0001) %MON forcing_fu_min               =  -1.2179796956480E-01
(PID.TID 0000.0001) %MON forcing_fu_mean              =  -3.2460291426452E-02
(PID.TID 0000.0001) %MON forcing_fu_sd                =   4.2930898726288E-02
(PID.TID 0000.0001) %MON forcing_fu_del2              =   2.0221698758300E-03
(PID.TID 0000.0001) %MON forcing_fv_max               =   3.4120970716079E-02
(PID.TID 0000.0001) %MON forcing_fv_min               =  -9.6915982042750E-02
(PID.TID 0000.0001) %MON forcing_fv_mean              =  -3.9993858970219E-02
(PID.TID 0000.0001) %MON forcing_fv_sd                =   2.3821730949385E-02
(PID.TID 0000.0001) %MON forcing_fv_del2              =   8.5071843786638E-04
(PID.TID 0000.0001) %MON trAdv_CFL_u_max              =   3.5047936517558E-03
(PID.TID 0000.0001) %MON trAdv_CFL_v_max              =   2.1710985285346E-03
(PID.TID 0000.0001) %MON trAdv_CFL_w_max              =   5.0249435653050E-03
(PID.TID 0000.0001) %MON advcfl_uvel_max              =   3.5040325864183E-03
(PID.TID 0000.0001) %MON advcfl_vvel_max              =   2.1819358912155E-03
(PID.TID 0000.0001) %MON advcfl_wvel_max              =   3.9036028337270E-03
(PID.TID 0000.0001) %MON advcfl_W_hf_max              =   4.8795035421587E-03
(PID.TID 0000.0001) %MON pe_b_mean                    =   6.6627495763684E-06
(PID.TID 0000.0001) %MON ke_max                       =   2.2436545770824E-02
(PID.TID 0000.0001) %MON ke_mean                      =   5.3771294872490E-05
(PID.TID 0000.0001) %MON ke_vol                       =   3.6027486600263E+16
(PID.TID 0000.0001) %MON vort_r_min                   =  -3.6451803401460E-07
(PID.TID 0000.0001) %MON vort_r_max                   =   8.0292220903804E-07
(PID.TID 0000.0001) %MON vort_a_mean                  =   6.2114138811197E-05
(PID.TID 0000.0001) %MON vort_a_sd                    =   1.9250229172217E-05
(PID.TID 0000.0001) %MON vort_p_mean                  =   7.8095197769435E-05
(PID.TID 0000.0001) %MON vort_p_sd                    =   5.6519733111171E-05
(PID.TID 0000.0001) %MON surfExpan_theta_mean         =  -6.4842258016599E-09
(PID.TID 0000.0001) %MON surfExpan_salt_mean          =   2.1370827229716E-08
(PID.TID 0000.0001) // =======================================================
(PID.TID 0000.0001) // End MONITOR dynamic field statistics
(PID.TID 0000.0001) // =======================================================
(PID.TID 0000.0001) // =======================================================
(PID.TID 0000.0001) // Begin MONITOR ptracer field statistics
(PID.TID 0000.0001) // =======================================================
(PID.TID 0000.0001) %MON trcstat_ptracer01_max        =   3.7400970244890E+01
(PID.TID 0000.0001) %MON trcstat_ptracer01_min        =   3.4726799598527E+01
(PID.TID 0000.0001) %MON trcstat_ptracer01_mean       =   3.5157553363287E+01
(PID.TID 0000.0001) %MON trcstat_ptracer01_sd         =   4.1375637499693E-01
(PID.TID 0000.0001) %MON trcstat_ptracer01_del2       =   7.9720337820934E-04
(PID.TID 0000.0001) // =======================================================
(PID.TID 0000.0001) // End MONITOR ptracers field statistics
(PID.TID 0000.0001) // =======================================================
 EXTERNAL_FIELDS_LOAD,        14 : iP,iLd,i0,i1=    2    3    2    3 ; Wght=  0.8333333333  0.1666666667
 cg2d: Sum(rhs),rhsMax =   5.06261699229071E-14  5.47790001275620E-01
(PID.TID 0000.0001)      cg2d_init_res =   6.71591650006664E-02
(PID.TID 0000.0001)      cg2d_iters(min,last) =      -1      44
(PID.TID 0000.0001)      cg2d_last_res =   7.67218450726782E-14
(PID.TID 0000.0001) // =======================================================
(PID.TID 0000.0001) // Begin MONITOR dynamic field statistics
(PID.TID 0000.0001) // =======================================================
(PID.TID 0000.0001) %MON time_tsnumber                =                    15
(PID.TID 0000.0001) %MON time_secondsf                =   7.5600000000000E+04
(PID.TID 0000.0001) %MON dynstat_eta_max              =   1.5184339300776E-01
(PID.TID 0000.0001) %MON dynstat_eta_min              =  -2.1354109287006E-01
(PID.TID 0000.0001) %MON dynstat_eta_mean             =  -2.5920348973262E-16
(PID.TID 0000.0001) %MON dynstat_eta_sd               =   7.4860012829779E-02
(PID.TID 0000.0001) %MON dynstat_eta_del2             =   1.3793181169066E-03
(PID.TID 0000.0001) %MON dynstat_uvel_max             =   3.6672353332306E-02
(PID.TID 0000.0001) %MON dynstat_uvel_min             =  -2.1069365480602E-01
(PID.TID 0000.0001) %MON dynstat_uvel_mean            =  -6.9265184386019E-05
(PID.TID 0000.0001) %MON dynstat_uvel_sd              =   8.9412507910890E-03
(PID.TID 0000.0001) %MON dynstat_uvel_del2            =   2.7113990557317E-04
(PID.TID 0000.0001) %MON dynstat_vvel_max             =   8.2118514597301E-02
(PID.TID 0000.0001) %MON dynstat_vvel_min             =  -1.3456820012126E-01
(PID.TID 0000.0001) %MON dynstat_vvel_mean            =  -4.9541995545056E-05
(PID.TID 0000.0001) %MON dynstat_vvel_sd              =   6.0828318246890E-03
(PID.TID 0000.0001) %MON dynstat_vvel_del2            =   1.6840315475871E-04
(PID.TID 0000.0001) %MON dynstat_wvel_max             =   1.2483904324631E-04
(PID.TID 0000.0001) %MON dynstat_wvel_min             =  -1.6132998168913E-04
(PID.TID 0000.0001) %MON dynstat_wvel_mean            =   1.1254787192334E-22
(PID.TID 0000.0001) %MON dynstat_wvel_sd              =   2.7156606829765E-05
(PID.TID 0000.0001) %MON dynstat_wvel_del2            =   5.2921269003430E-07
(PID.TID 0000.0001) %MON dynstat_theta_max            =   2.6135565320546E+01
(PID.TID 0000.0001) %MON dynstat_theta_min            =   1.8064557554638E+00
(PID.TID 0000.0001) %MON dynstat_theta_mean           =   5.4786453526581E+00
(PID.TID 0000.0001) %MON dynstat_theta_sd             =   4.5931822412470E+00
(PID.TID 0000.0001) %MON dynstat_theta_del2           =   3.2146345142406E-03
(PID.TID 0000.0001) %MON dynstat_salt_max             =   3.7404844065712E+01
(PID.TID 0000.0001) %MON dynstat_salt_min             =   3.4726805545967E+01
(PID.TID 0000.0001) %MON dynstat_salt_mean            =   3.5157571662766E+01
(PID.TID 0000.0001) %MON dynstat_salt_sd              =   4.1381151405703E-01
(PID.TID 0000.0001) %MON dynstat_salt_del2            =   7.9706628025742E-04
(PID.TID 0000.0001) %MON forcing_qnet_max             =   5.1881983439128E+01
(PID.TID 0000.0001) %MON forcing_qnet_min             =  -1.6512999216715E+02
(PID.TID 0000.0001) %MON forcing_qnet_mean            =  -7.2695911429919E+01
(PID.TID 0000.0001) %MON forcing_qnet_sd              =   5.1206831276043E+01
(PID.TID 0000.0001) %MON forcing_qnet_del2            =   2.0929995835516E+00
(PID.TID 0000.0001) %MON forcing_qsw_max              =  -1.3354755655924E+02
(PID.TID 0000.0001) %MON forcing_qsw_min              =  -3.1814401753743E+02
(PID.TID 0000.0001) %MON forcing_qsw_mean             =  -2.5047803966406E+02
(PID.TID 0000.0001) %MON forcing_qsw_sd               =   4.2471564939527E+01
(PID.TID 0000.0001) %MON forcing_qsw_del2             =   1.5851215196385E+00
(PID.TID 0000.0001) %MON forcing_empmr_max            =   6.8324911524087E-05
(PID.TID 0000.0001) %MON forcing_empmr_min            =   1.4069369869851E-05
(PID.TID 0000.0001) %MON forcing_empmr_mean           =   4.2257310132885E-05
(PID.TID 0000.0001) %MON forcing_empmr_sd             =   1.1736454149462E-05
(PID.TID 0000.0001) %MON forcing_empmr_del2           =   6.3518512433289E-07
(PID.TID 0000.0001) %MON forcing_fu_max               =   2.5644019494454E-01
(PID.TID 0000.0001) %MON forcing_fu_min               =  -1.2285739555955E-01
(PID.TID 0000.0001) %MON forcing_fu_mean              =  -3.3200163968007E-02
(PID.TID 0000.0001) %MON forcing_fu_sd                =   4.2690280331473E-02
(PID.TID 0000.0001) %MON forcing_fu_del2              =   1.9974273619129E-03
(PID.TID 0000.0001) %MON forcing_fv_max               =   3.3674074957768E-02
(PID.TID 0000.0001) %MON forcing_fv_min               =  -9.6112570414941E-02
(PID.TID 0000.0001) %MON forcing_fv_mean              =  -4.0889309890668E-02
(PID.TID 0000.0001) %MON forcing_fv_sd                =   2.4229192717644E-02
(PID.TID 0000.0001) %MON forcing_fv_del2              =   8.3902903437457E-04
(PID.TID 0000.0001) %MON trAdv_CFL_u_max              =   3.5042104909684E-03
(PID.TID 0000.0001) %MON trAdv_CFL_v_max              =   2.1948270070673E-03
(PID.TID 0000.0001) %MON trAdv_CFL_w_max              =   4.8795035421587E-03
(PID.TID 0000.0001) %MON advcfl_uvel_max              =   3.5315339348319E-03
(PID.TID 0000.0001) %MON advcfl_vvel_max              =   2.1787035890920E-03
(PID.TID 0000.0001) %MON advcfl_wvel_max              =   3.9186344657780E-03
(PID.TID 0000.0001) %MON advcfl_W_hf_max              =   4.8982930822225E-03
(PID.TID 0000.0001) %MON pe_b_mean                    =   6.7551018607782E-06
(PID.TID 0000.0001) %MON ke_max                       =   2.3145045875147E-02
(PID.TID 0000.0001) %MON ke_mean                      =   5.2253355701398E-05
(PID.TID 0000.0001) %MON ke_vol                       =   3.6027486600263E+16
(PID.TID 0000.0001) %MON vort_r_min                   =  -3.7773699255705E-07
(PID.TID 0000.0001) %MON vort_r_max                   =   7.8590104394109E-07
(PID.TID 0000.0001) %MON vort_a_mean                  =   6.2114138811197E-05
(PID.TID 0000.0001) %MON vort_a_sd                    =   1.9250216930046E-05
(PID.TID 0000.0001) %MON vort_p_mean                  =   7.8095197769435E-05
(PID.TID 0000.0001) %MON vort_p_sd                    =   5.6519966077187E-05
(PID.TID 0000.0001) %MON surfExpan_theta_mean         =   5.0027670131661E-07
(PID.TID 0000.0001) %MON surfExpan_salt_mean          =  -4.0710272634844E-08
(PID.TID 0000.0001) // =======================================================
(PID.TID 0000.0001) // End MONITOR dynamic field statistics
(PID.TID 0000.0001) // =======================================================
(PID.TID 0000.0001) // =======================================================
(PID.TID 0000.0001) // Begin MONITOR ptracer field statistics
(PID.TID 0000.0001) // =======================================================
(PID.TID 0000.0001) %MON trcstat_ptracer01_max        =   3.7400970244890E+01
(PID.TID 0000.0001) %MON trcstat_ptracer01_min        =   3.4726799598527E+01
(PID.TID 0000.0001) %MON trcstat_ptracer01_mean       =   3.5157553363287E+01
(PID.TID 0000.0001) %MON trcstat_ptracer01_sd         =   4.1375637499693E-01
(PID.TID 0000.0001) %MON trcstat_ptracer01_del2       =   7.9720337820934E-04
(PID.TID 0000.0001) // =======================================================
(PID.TID 0000.0001) // End MONITOR ptracers field statistics
(PID.TID 0000.0001) // =======================================================
 Computing Diagnostic #    236  TRAC01       Counter:       2   Parms: SMR     MR      
 EXTERNAL_FIELDS_LOAD,        15 : iP,iLd,i0,i1=    2    3    2    3 ; Wght=  0.7500000000  0.2500000000
 cg2d: Sum(rhs),rhsMax =   5.06261699229071E-14  5.45813782186685E-01
(PID.TID 0000.0001)      cg2d_init_res =   6.82487489913345E-02
(PID.TID 0000.0001)      cg2d_iters(min,last) =      -1      44
(PID.TID 0000.0001)      cg2d_last_res =   7.82840577650755E-14
(PID.TID 0000.0001) // =======================================================
(PID.TID 0000.0001) // Begin MONITOR dynamic field statistics
(PID.TID 0000.0001) // =======================================================
(PID.TID 0000.0001) %MON time_tsnumber                =                    16
(PID.TID 0000.0001) %MON time_secondsf                =   7.9200000000000E+04
(PID.TID 0000.0001) %MON dynstat_eta_max              =   1.5212507359555E-01
(PID.TID 0000.0001) %MON dynstat_eta_min              =  -2.1487355929922E-01
(PID.TID 0000.0001) %MON dynstat_eta_mean             =  -2.8677832906588E-16
(PID.TID 0000.0001) %MON dynstat_eta_sd               =   7.5416330955466E-02
(PID.TID 0000.0001) %MON dynstat_eta_del2             =   1.3956144669548E-03
(PID.TID 0000.0001) %MON dynstat_uvel_max             =   3.3924574914640E-02
(PID.TID 0000.0001) %MON dynstat_uvel_min             =  -2.1255439274249E-01
(PID.TID 0000.0001) %MON dynstat_uvel_mean            =  -6.9651912223144E-05
(PID.TID 0000.0001) %MON dynstat_uvel_sd              =   8.7934041323779E-03
(PID.TID 0000.0001) %MON dynstat_uvel_del2            =   2.5678976187073E-04
(PID.TID 0000.0001) %MON dynstat_vvel_max             =   8.8208265978026E-02
(PID.TID 0000.0001) %MON dynstat_vvel_min             =  -1.3276114777672E-01
(PID.TID 0000.0001) %MON dynstat_vvel_mean            =  -7.2543977095967E-05
(PID.TID 0000.0001) %MON dynstat_vvel_sd              =   5.9133955636501E-03
(PID.TID 0000.0001) %MON dynstat_vvel_del2            =   1.7224013264270E-04
(PID.TID 0000.0001) %MON dynstat_wvel_max             =   1.1460752050759E-04
(PID.TID 0000.0001) %MON dynstat_wvel_min             =  -1.6377562219555E-04
(PID.TID 0000.0001) %MON dynstat_wvel_mean            =   1.4631223350035E-21
(PID.TID 0000.0001) %MON dynstat_wvel_sd              =   2.5889255502293E-05
(PID.TID 0000.0001) %MON dynstat_wvel_del2            =   4.9275025426018E-07
(PID.TID 0000.0001) %MON dynstat_theta_max            =   2.6141783958666E+01
(PID.TID 0000.0001) %MON dynstat_theta_min            =   1.8064575520027E+00
(PID.TID 0000.0001) %MON dynstat_theta_mean           =   5.4786603981967E+00
(PID.TID 0000.0001) %MON dynstat_theta_sd             =   4.5932321852383E+00
(PID.TID 0000.0001) %MON dynstat_theta_del2           =   3.2188260524680E-03
(PID.TID 0000.0001) %MON dynstat_salt_max             =   3.7405236156414E+01
(PID.TID 0000.0001) %MON dynstat_salt_min             =   3.4726810189121E+01
(PID.TID 0000.0001) %MON dynstat_salt_mean            =   3.5157573108504E+01
(PID.TID 0000.0001) %MON dynstat_salt_sd              =   4.1381535629742E-01
(PID.TID 0000.0001) %MON dynstat_salt_del2            =   7.9733613049371E-04
(PID.TID 0000.0001) %MON forcing_qnet_max             =   5.1785995483398E+01
(PID.TID 0000.0001) %MON forcing_qnet_min             =  -1.6640010070801E+02
(PID.TID 0000.0001) %MON forcing_qnet_mean            =  -7.1740236129939E+01
(PID.TID 0000.0001) %MON forcing_qnet_sd              =   5.0763762302510E+01
(PID.TID 0000.0001) %MON forcing_qnet_del2            =   2.0641474460007E+00
(PID.TID 0000.0001) %MON forcing_qsw_max              =  -1.3305171203613E+02
(PID.TID 0000.0001) %MON forcing_qsw_min              =  -3.1786423492432E+02
(PID.TID 0000.0001) %MON forcing_qsw_mean             =  -2.5092606306118E+02
(PID.TID 0000.0001) %MON forcing_qsw_sd               =   4.2226722936044E+01
(PID.TID 0000.0001) %MON forcing_qsw_del2             =   1.5532280649104E+00
(PID.TID 0000.0001) %MON forcing_empmr_max            =   6.8301180591135E-05
(PID.TID 0000.0001) %MON forcing_empmr_min            =   1.4154103348663E-05
(PID.TID 0000.0001) %MON forcing_empmr_mean           =   4.2678582644125E-05
(PID.TID 0000.0001) %MON forcing_empmr_sd             =   1.1674717394650E-05
(PID.TID 0000.0001) %MON forcing_empmr_del2           =   6.3295240457588E-07
(PID.TID 0000.0001) %MON forcing_fu_max               =   2.4364364519715E-01
(PID.TID 0000.0001) %MON forcing_fu_min               =  -1.2391682155430E-01
(PID.TID 0000.0001) %MON forcing_fu_mean              =  -3.3940036509562E-02
(PID.TID 0000.0001) %MON forcing_fu_sd                =   4.2482344483398E-02
(PID.TID 0000.0001) %MON forcing_fu_del2              =   1.9763753076118E-03
(PID.TID 0000.0001) %MON forcing_fv_max               =   3.3227179199457E-02
(PID.TID 0000.0001) %MON forcing_fv_min               =  -9.5904327929020E-02
(PID.TID 0000.0001) %MON forcing_fv_mean              =  -4.1784760811117E-02
(PID.TID 0000.0001) %MON forcing_fv_sd                =   2.4696821671392E-02
(PID.TID 0000.0001) %MON forcing_fv_del2              =   8.3215397366462E-04
(PID.TID 0000.0001) %MON trAdv_CFL_u_max              =   3.5317132356631E-03
(PID.TID 0000.0001) %MON trAdv_CFL_v_max              =   2.1915756081494E-03
(PID.TID 0000.0001) %MON trAdv_CFL_w_max              =   4.7699621059083E-03
(PID.TID 0000.0001) %MON advcfl_uvel_max              =   3.5627226252200E-03
(PID.TID 0000.0001) %MON advcfl_vvel_max              =   2.1494468150163E-03
(PID.TID 0000.0001) %MON advcfl_wvel_max              =   4.2636617737249E-03
(PID.TID 0000.0001) %MON advcfl_W_hf_max              =   5.3295772171562E-03
(PID.TID 0000.0001) %MON pe_b_mean                    =   6.8558752669412E-06
(PID.TID 0000.0001) %MON ke_max                       =   2.3628797300539E-02
(PID.TID 0000.0001) %MON ke_mean                      =   5.0181175496134E-05
(PID.TID 0000.0001) %MON ke_vol                       =   3.6027486600263E+16
(PID.TID 0000.0001) %MON vort_r_min                   =  -3.8935010854807E-07
(PID.TID 0000.0001) %MON vort_r_max                   =   7.7097999736396E-07
(PID.TID 0000.0001) %MON vort_a_mean                  =   6.2114138811197E-05
(PID.TID 0000.0001) %MON vort_a_sd                    =   1.9250212334200E-05
(PID.TID 0000.0001) %MON vort_p_mean                  =   7.8095197769435E-05
(PID.TID 0000.0001) %MON vort_p_sd                    =   5.6520378640281E-05
(PID.TID 0000.0001) %MON surfExpan_theta_mean         =   6.3446592265732E-07
(PID.TID 0000.0001) %MON surfExpan_salt_mean          =  -6.5121870052433E-08
(PID.TID 0000.0001) // =======================================================
(PID.TID 0000.0001) // End MONITOR dynamic field statistics
(PID.TID 0000.0001) // =======================================================
(PID.TID 0000.0001) // =======================================================
(PID.TID 0000.0001) // Begin MONITOR ptracer field statistics
(PID.TID 0000.0001) // =======================================================
(PID.TID 0000.0001) %MON trcstat_ptracer01_max        =   3.7401079988019E+01
(PID.TID 0000.0001) %MON trcstat_ptracer01_min        =   3.4726809189088E+01
(PID.TID 0000.0001) %MON trcstat_ptracer01_mean       =   3.5157553548120E+01
(PID.TID 0000.0001) %MON trcstat_ptracer01_sd         =   4.1375552734989E-01
(PID.TID 0000.0001) %MON trcstat_ptracer01_del2       =   7.9781261635441E-04
(PID.TID 0000.0001) // =======================================================
(PID.TID 0000.0001) // End MONITOR ptracers field statistics
(PID.TID 0000.0001) // =======================================================
 EXTERNAL_FIELDS_LOAD,        16 : iP,iLd,i0,i1=    2    3    2    3 ; Wght=  0.6666666667  0.3333333333
 cg2d: Sum(rhs),rhsMax =   5.50670620214078E-14  5.44243988149434E-01
(PID.TID 0000.0001)      cg2d_init_res =   6.57593967213106E-02
(PID.TID 0000.0001)      cg2d_iters(min,last) =      -1      44
(PID.TID 0000.0001)      cg2d_last_res =   6.16793573231539E-14
(PID.TID 0000.0001) // =======================================================
(PID.TID 0000.0001) // Begin MONITOR dynamic field statistics
(PID.TID 0000.0001) // =======================================================
(PID.TID 0000.0001) %MON time_tsnumber                =                    17
(PID.TID 0000.0001) %MON time_secondsf                =   8.2800000000000E+04
(PID.TID 0000.0001) %MON dynstat_eta_max              =   1.5194394496983E-01
(PID.TID 0000.0001) %MON dynstat_eta_min              =  -2.1634034111441E-01
(PID.TID 0000.0001) %MON dynstat_eta_mean             =  -3.0608071659916E-16
(PID.TID 0000.0001) %MON dynstat_eta_sd               =   7.5826664607956E-02
(PID.TID 0000.0001) %MON dynstat_eta_del2             =   1.4125380944962E-03
(PID.TID 0000.0001) %MON dynstat_uvel_max             =   3.1271213097186E-02
(PID.TID 0000.0001) %MON dynstat_uvel_min             =  -2.1284539483450E-01
(PID.TID 0000.0001) %MON dynstat_uvel_mean            =  -6.4180153959841E-05
(PID.TID 0000.0001) %MON dynstat_uvel_sd              =   8.5928849755741E-03
(PID.TID 0000.0001) %MON dynstat_uvel_del2            =   2.4347024388097E-04
(PID.TID 0000.0001) %MON dynstat_vvel_max             =   9.8506137717720E-02
(PID.TID 0000.0001) %MON dynstat_vvel_min             =  -1.2940426741704E-01
(PID.TID 0000.0001) %MON dynstat_vvel_mean            =  -5.6491718770879E-05
(PID.TID 0000.0001) %MON dynstat_vvel_sd              =   5.7551647735901E-03
(PID.TID 0000.0001) %MON dynstat_vvel_del2            =   1.7358203825403E-04
(PID.TID 0000.0001) %MON dynstat_wvel_max             =   1.0277177020808E-04
(PID.TID 0000.0001) %MON dynstat_wvel_min             =  -1.6471543474089E-04
(PID.TID 0000.0001) %MON dynstat_wvel_mean            =   1.1254787192334E-22
(PID.TID 0000.0001) %MON dynstat_wvel_sd              =   2.4483015729889E-05
(PID.TID 0000.0001) %MON dynstat_wvel_del2            =   4.5461859306929E-07
(PID.TID 0000.0001) %MON dynstat_theta_max            =   2.6147902017178E+01
(PID.TID 0000.0001) %MON dynstat_theta_min            =   1.8064595145074E+00
(PID.TID 0000.0001) %MON dynstat_theta_mean           =   5.4786753142258E+00
(PID.TID 0000.0001) %MON dynstat_theta_sd             =   4.5932816898918E+00
(PID.TID 0000.0001) %MON dynstat_theta_del2           =   3.2231757797560E-03
(PID.TID 0000.0001) %MON dynstat_salt_max             =   3.7405627485796E+01
(PID.TID 0000.0001) %MON dynstat_salt_min             =   3.4726815381158E+01
(PID.TID 0000.0001) %MON dynstat_salt_mean            =   3.5157574568013E+01
(PID.TID 0000.0001) %MON dynstat_salt_sd              =   4.1381925464793E-01
(PID.TID 0000.0001) %MON dynstat_salt_del2            =   7.9760011684401E-04
(PID.TID 0000.0001) %MON forcing_qnet_max             =   5.2881464640299E+01
(PID.TID 0000.0001) %MON forcing_qnet_min             =  -1.6767020924886E+02
(PID.TID 0000.0001) %MON forcing_qnet_mean            =  -7.0784560829959E+01
(PID.TID 0000.0001) %MON forcing_qnet_sd              =   5.0376618745466E+01
(PID.TID 0000.0001) %MON forcing_qnet_del2            =   2.0423343003746E+00
(PID.TID 0000.0001) %MON forcing_qsw_max              =  -1.3255586751302E+02
(PID.TID 0000.0001) %MON forcing_qsw_min              =  -3.1758445231120E+02
(PID.TID 0000.0001) %MON forcing_qsw_mean             =  -2.5137408645830E+02
(PID.TID 0000.0001) %MON forcing_qsw_sd               =   4.2032969606024E+01
(PID.TID 0000.0001) %MON forcing_qsw_del2             =   1.5282236955802E+00
(PID.TID 0000.0001) %MON forcing_empmr_max            =   6.8865692161542E-05
(PID.TID 0000.0001) %MON forcing_empmr_min            =   1.4238836827474E-05
(PID.TID 0000.0001) %MON forcing_empmr_mean           =   4.3099855155366E-05
(PID.TID 0000.0001) %MON forcing_empmr_sd             =   1.1631123659352E-05
(PID.TID 0000.0001) %MON forcing_empmr_del2           =   6.3198982289187E-07
(PID.TID 0000.0001) %MON forcing_fu_max               =   2.3084709544977E-01
(PID.TID 0000.0001) %MON forcing_fu_min               =  -1.2497624754906E-01
(PID.TID 0000.0001) %MON forcing_fu_mean              =  -3.4679909051117E-02
(PID.TID 0000.0001) %MON forcing_fu_sd                =   4.2307573075345E-02
(PID.TID 0000.0001) %MON forcing_fu_del2              =   1.9591326851370E-03
(PID.TID 0000.0001) %MON forcing_fv_max               =   3.2780283441146E-02
(PID.TID 0000.0001) %MON forcing_fv_min               =  -9.8520850141843E-02
(PID.TID 0000.0001) %MON forcing_fv_mean              =  -4.2680211731566E-02
(PID.TID 0000.0001) %MON forcing_fv_sd                =   2.5221271343537E-02
(PID.TID 0000.0001) %MON forcing_fv_del2              =   8.3021286825289E-04
(PID.TID 0000.0001) %MON trAdv_CFL_u_max              =   3.5629035095439E-03
(PID.TID 0000.0001) %MON trAdv_CFL_v_max              =   2.1621459818531E-03
(PID.TID 0000.0001) %MON trAdv_CFL_w_max              =   4.7001559462702E-03
(PID.TID 0000.0001) %MON advcfl_uvel_max              =   3.5676002460671E-03
(PID.TID 0000.0001) %MON advcfl_vvel_max              =   2.0950978136831E-03
(PID.TID 0000.0001) %MON advcfl_wvel_max              =   4.5030734883650E-03
(PID.TID 0000.0001) %MON advcfl_W_hf_max              =   5.6288418604563E-03
(PID.TID 0000.0001) %MON pe_b_mean                    =   6.9306826589483E-06
(PID.TID 0000.0001) %MON ke_max                       =   2.3896738262401E-02
(PID.TID 0000.0001) %MON ke_mean                      =   4.7799158296963E-05
(PID.TID 0000.0001) %MON ke_vol                       =   3.6027486600263E+16
(PID.TID 0000.0001) %MON vort_r_min                   =  -3.9101285709298E-07
(PID.TID 0000.0001) %MON vort_r_max                   =   7.5855044341905E-07
(PID.TID 0000.0001) %MON vort_a_mean                  =   6.2114138811197E-05
(PID.TID 0000.0001) %MON vort_a_sd                    =   1.9250212408116E-05
(PID.TID 0000.0001) %MON vort_p_mean                  =   7.8095197769435E-05
(PID.TID 0000.0001) %MON vort_p_sd                    =   5.6520921760672E-05
(PID.TID 0000.0001) %MON surfExpan_theta_mean         =   4.7555002828763E-07
(PID.TID 0000.0001) %MON surfExpan_salt_mean          =  -5.6889198109112E-08
(PID.TID 0000.0001) // =======================================================
(PID.TID 0000.0001) // End MONITOR dynamic field statistics
(PID.TID 0000.0001) // =======================================================
(PID.TID 0000.0001) // =======================================================
(PID.TID 0000.0001) // Begin MONITOR ptracer field statistics
(PID.TID 0000.0001) // =======================================================
(PID.TID 0000.0001) %MON trcstat_ptracer01_max        =   3.7401079988019E+01
(PID.TID 0000.0001) %MON trcstat_ptracer01_min        =   3.4726809189088E+01
(PID.TID 0000.0001) %MON trcstat_ptracer01_mean       =   3.5157553548120E+01
(PID.TID 0000.0001) %MON trcstat_ptracer01_sd         =   4.1375552734989E-01
(PID.TID 0000.0001) %MON trcstat_ptracer01_del2       =   7.9781261635441E-04
(PID.TID 0000.0001) // =======================================================
(PID.TID 0000.0001) // End MONITOR ptracers field statistics
(PID.TID 0000.0001) // =======================================================
 EXTERNAL_FIELDS_LOAD,        17 : iP,iLd,i0,i1=    2    3    2    3 ; Wght=  0.5833333333  0.4166666667
 cg2d: Sum(rhs),rhsMax =   5.86197757002083E-14  5.42609084573557E-01
(PID.TID 0000.0001)      cg2d_init_res =   6.20927666718173E-02
(PID.TID 0000.0001)      cg2d_iters(min,last) =      -1      44
(PID.TID 0000.0001)      cg2d_last_res =   7.09415027760720E-14
(PID.TID 0000.0001) // =======================================================
(PID.TID 0000.0001) // Begin MONITOR dynamic field statistics
(PID.TID 0000.0001) // =======================================================
(PID.TID 0000.0001) %MON time_tsnumber                =                    18
(PID.TID 0000.0001) %MON time_secondsf                =   8.6400000000000E+04
(PID.TID 0000.0001) %MON dynstat_eta_max              =   1.5131645859875E-01
(PID.TID 0000.0001) %MON dynstat_eta_min              =  -2.1739604520843E-01
(PID.TID 0000.0001) %MON dynstat_eta_mean             =  -3.0056574873251E-16
(PID.TID 0000.0001) %MON dynstat_eta_sd               =   7.5999980413491E-02
(PID.TID 0000.0001) %MON dynstat_eta_del2             =   1.4297369874384E-03
(PID.TID 0000.0001) %MON dynstat_uvel_max             =   3.0056130132956E-02
(PID.TID 0000.0001) %MON dynstat_uvel_min             =  -2.1165880387895E-01
(PID.TID 0000.0001) %MON dynstat_uvel_mean            =  -5.7205936982942E-05
(PID.TID 0000.0001) %MON dynstat_uvel_sd              =   8.3530829321019E-03
(PID.TID 0000.0001) %MON dynstat_uvel_del2            =   2.3176711571398E-04
(PID.TID 0000.0001) %MON dynstat_vvel_max             =   1.0887828197145E-01
(PID.TID 0000.0001) %MON dynstat_vvel_min             =  -1.2441567542569E-01
(PID.TID 0000.0001) %MON dynstat_vvel_mean            =  -1.9101984301068E-05
(PID.TID 0000.0001) %MON dynstat_vvel_sd              =   5.6244684357363E-03
(PID.TID 0000.0001) %MON dynstat_vvel_del2            =   1.7280228233929E-04
(PID.TID 0000.0001) %MON dynstat_wvel_max             =   8.9680996395100E-05
(PID.TID 0000.0001) %MON dynstat_wvel_min             =  -1.6411296044152E-04
(PID.TID 0000.0001) %MON dynstat_wvel_mean            =   4.5019148769337E-22
(PID.TID 0000.0001) %MON dynstat_wvel_sd              =   2.3067175019790E-05
(PID.TID 0000.0001) %MON dynstat_wvel_del2            =   4.1970773434749E-07
(PID.TID 0000.0001) %MON dynstat_theta_max            =   2.6153933923810E+01
(PID.TID 0000.0001) %MON dynstat_theta_min            =   1.8064616562657E+00
(PID.TID 0000.0001) %MON dynstat_theta_mean           =   5.4786903177777E+00
(PID.TID 0000.0001) %MON dynstat_theta_sd             =   4.5933315564136E+00
(PID.TID 0000.0001) %MON dynstat_theta_del2           =   3.2275572190379E-03
(PID.TID 0000.0001) %MON dynstat_salt_max             =   3.7406017723042E+01
(PID.TID 0000.0001) %MON dynstat_salt_min             =   3.4726821062436E+01
(PID.TID 0000.0001) %MON dynstat_salt_mean            =   3.5157576015167E+01
(PID.TID 0000.0001) %MON dynstat_salt_sd              =   4.1382314258923E-01
(PID.TID 0000.0001) %MON dynstat_salt_del2            =   7.9784993657632E-04
(PID.TID 0000.0001) %MON forcing_qnet_max             =   5.4347905476888E+01
(PID.TID 0000.0001) %MON forcing_qnet_min             =  -1.6894031778971E+02
(PID.TID 0000.0001) %MON forcing_qnet_mean            =  -6.9828885529979E+01
(PID.TID 0000.0001) %MON forcing_qnet_sd              =   5.0046698479458E+01
(PID.TID 0000.0001) %MON forcing_qnet_del2            =   2.0277873171795E+00
(PID.TID 0000.0001) %MON forcing_qsw_max              =  -1.3206002298991E+02
(PID.TID 0000.0001) %MON forcing_qsw_min              =  -3.1730466969808E+02
(PID.TID 0000.0001) %MON forcing_qsw_mean             =  -2.5182210985542E+02
(PID.TID 0000.0001) %MON forcing_qsw_sd               =   4.1891013837849E+01
(PID.TID 0000.0001) %MON forcing_qsw_del2             =   1.5104505812318E+00
(PID.TID 0000.0001) %MON forcing_empmr_max            =   6.9430203731950E-05
(PID.TID 0000.0001) %MON forcing_empmr_min            =   1.4323570306285E-05
(PID.TID 0000.0001) %MON forcing_empmr_mean           =   4.3521127666606E-05
(PID.TID 0000.0001) %MON forcing_empmr_sd             =   1.1605877390574E-05
(PID.TID 0000.0001) %MON forcing_empmr_del2           =   6.3230318006106E-07
(PID.TID 0000.0001) %MON forcing_fu_max               =   2.1805054570238E-01
(PID.TID 0000.0001) %MON forcing_fu_min               =  -1.2603567354381E-01
(PID.TID 0000.0001) %MON forcing_fu_mean              =  -3.5419781592672E-02
(PID.TID 0000.0001) %MON forcing_fu_sd                =   4.2166378489721E-02
(PID.TID 0000.0001) %MON forcing_fu_del2              =   1.9458007684299E-03
(PID.TID 0000.0001) %MON forcing_fv_max               =   3.2333387682835E-02
(PID.TID 0000.0001) %MON forcing_fv_min               =  -1.0113737235467E-01
(PID.TID 0000.0001) %MON forcing_fv_mean              =  -4.3575662652015E-02
(PID.TID 0000.0001) %MON forcing_fv_sd                =   2.5799076772166E-02
(PID.TID 0000.0001) %MON forcing_fv_del2              =   8.3324020108499E-04
(PID.TID 0000.0001) %MON trAdv_CFL_u_max              =   3.5677813780345E-03
(PID.TID 0000.0001) %MON trAdv_CFL_v_max              =   2.1074758806766E-03
(PID.TID 0000.0001) %MON trAdv_CFL_w_max              =   4.6505868127100E-03
(PID.TID 0000.0001) %MON advcfl_uvel_max              =   3.5477112454697E-03
(PID.TID 0000.0001) %MON advcfl_vvel_max              =   2.0143308623063E-03
(PID.TID 0000.0001) %MON advcfl_wvel_max              =   4.6550256718103E-03
(PID.TID 0000.0001) %MON advcfl_W_hf_max              =   5.8187820897628E-03
(PID.TID 0000.0001) %MON pe_b_mean                    =   6.9624015702960E-06
(PID.TID 0000.0001) %MON ke_max                       =   2.3945711228659E-02
(PID.TID 0000.0001) %MON ke_mean                      =   4.5314485969665E-05
(PID.TID 0000.0001) %MON ke_vol                       =   3.6027486600263E+16
(PID.TID 0000.0001) %MON vort_r_min                   =  -3.8431607434088E-07
(PID.TID 0000.0001) %MON vort_r_max                   =   7.4483868625372E-07
(PID.TID 0000.0001) %MON vort_a_mean                  =   6.2114138811197E-05
(PID.TID 0000.0001) %MON vort_a_sd                    =   1.9250213838565E-05
(PID.TID 0000.0001) %MON vort_p_mean                  =   7.8095197769435E-05
(PID.TID 0000.0001) %MON vort_p_sd                    =   5.6521529028340E-05
(PID.TID 0000.0001) %MON surfExpan_theta_mean         =   1.6798761286778E-07
(PID.TID 0000.0001) %MON surfExpan_salt_mean          =  -2.9385684616403E-08
(PID.TID 0000.0001) // =======================================================
(PID.TID 0000.0001) // End MONITOR dynamic field statistics
(PID.TID 0000.0001) // =======================================================
(PID.TID 0000.0001) // =======================================================
(PID.TID 0000.0001) // Begin MONITOR ptracer field statistics
(PID.TID 0000.0001) // =======================================================
(PID.TID 0000.0001) %MON trcstat_ptracer01_max        =   3.7401170709142E+01
(PID.TID 0000.0001) %MON trcstat_ptracer01_min        =   3.4726820843940E+01
(PID.TID 0000.0001) %MON trcstat_ptracer01_mean       =   3.5157553711665E+01
(PID.TID 0000.0001) %MON trcstat_ptracer01_sd         =   4.1375467434404E-01
(PID.TID 0000.0001) %MON trcstat_ptracer01_del2       =   7.9839257474342E-04
(PID.TID 0000.0001) // =======================================================
(PID.TID 0000.0001) // End MONITOR ptracers field statistics
(PID.TID 0000.0001) // =======================================================
 Computing Diagnostic #    236  TRAC01       Counter:       1   Parms: SMR     MR      
 EXTERNAL_FIELDS_LOAD,        18 : iP,iLd,i0,i1=    2    3    2    3 ; Wght=  0.5000000000  0.5000000000
 cg2d: Sum(rhs),rhsMax =   6.21724893790088E-14  5.40659641292613E-01
(PID.TID 0000.0001)      cg2d_init_res =   5.98525505778430E-02
(PID.TID 0000.0001)      cg2d_iters(min,last) =      -1      44
(PID.TID 0000.0001)      cg2d_last_res =   8.23051391637096E-14
(PID.TID 0000.0001) // =======================================================
(PID.TID 0000.0001) // Begin MONITOR dynamic field statistics
(PID.TID 0000.0001) // =======================================================
(PID.TID 0000.0001) %MON time_tsnumber                =                    19
(PID.TID 0000.0001) %MON time_secondsf                =   9.0000000000000E+04
(PID.TID 0000.0001) %MON dynstat_eta_max              =   1.5041041586584E-01
(PID.TID 0000.0001) %MON dynstat_eta_min              =  -2.1786489996989E-01
(PID.TID 0000.0001) %MON dynstat_eta_mean             =  -2.8953581299921E-16
(PID.TID 0000.0001) %MON dynstat_eta_sd               =   7.5966695676256E-02
(PID.TID 0000.0001) %MON dynstat_eta_del2             =   1.4468858950219E-03
(PID.TID 0000.0001) %MON dynstat_uvel_max             =   2.8858808756164E-02
(PID.TID 0000.0001) %MON dynstat_uvel_min             =  -2.0910355811360E-01
(PID.TID 0000.0001) %MON dynstat_uvel_mean            =  -5.3168107921720E-05
(PID.TID 0000.0001) %MON dynstat_uvel_sd              =   8.0897321047418E-03
(PID.TID 0000.0001) %MON dynstat_uvel_del2            =   2.2205169746409E-04
(PID.TID 0000.0001) %MON dynstat_vvel_max             =   1.1780924210713E-01
(PID.TID 0000.0001) %MON dynstat_vvel_min             =  -1.1814180631830E-01
(PID.TID 0000.0001) %MON dynstat_vvel_mean            =   2.0993373861519E-05
(PID.TID 0000.0001) %MON dynstat_vvel_sd              =   5.5334209837277E-03
(PID.TID 0000.0001) %MON dynstat_vvel_del2            =   1.7091475440614E-04
(PID.TID 0000.0001) %MON dynstat_wvel_max             =   7.5697225491593E-05
(PID.TID 0000.0001) %MON dynstat_wvel_min             =  -1.6213819551069E-04
(PID.TID 0000.0001) %MON dynstat_wvel_mean            =   0.0000000000000E+00
(PID.TID 0000.0001) %MON dynstat_wvel_sd              =   2.1803769770094E-05
(PID.TID 0000.0001) %MON dynstat_wvel_del2            =   3.9360894837306E-07
(PID.TID 0000.0001) %MON dynstat_theta_max            =   2.6159884979115E+01
(PID.TID 0000.0001) %MON dynstat_theta_min            =   1.8064639841460E+00
(PID.TID 0000.0001) %MON dynstat_theta_mean           =   5.4787054637170E+00
(PID.TID 0000.0001) %MON dynstat_theta_sd             =   4.5933819835258E+00
(PID.TID 0000.0001) %MON dynstat_theta_del2           =   3.2318112021716E-03
(PID.TID 0000.0001) %MON dynstat_salt_max             =   3.7406407247125E+01
(PID.TID 0000.0001) %MON dynstat_salt_min             =   3.4726827219196E+01
(PID.TID 0000.0001) %MON dynstat_salt_mean            =   3.5157577440104E+01
(PID.TID 0000.0001) %MON dynstat_salt_sd              =   4.1382699282609E-01
(PID.TID 0000.0001) %MON dynstat_salt_del2            =   7.9808159278138E-04
(PID.TID 0000.0001) %MON forcing_qnet_max             =   5.5814346313477E+01
(PID.TID 0000.0001) %MON forcing_qnet_min             =  -1.7021042633057E+02
(PID.TID 0000.0001) %MON forcing_qnet_mean            =  -6.8873210229999E+01
(PID.TID 0000.0001) %MON forcing_qnet_sd              =   4.9775139382117E+01
(PID.TID 0000.0001) %MON forcing_qnet_del2            =   2.0206634322700E+00
(PID.TID 0000.0001) %MON forcing_qsw_max              =  -1.3156417846680E+02
(PID.TID 0000.0001) %MON forcing_qsw_min              =  -3.1702488708496E+02
(PID.TID 0000.0001) %MON forcing_qsw_mean             =  -2.5227013325255E+02
(PID.TID 0000.0001) %MON forcing_qsw_sd               =   4.1801383341981E+01
(PID.TID 0000.0001) %MON forcing_qsw_del2             =   1.5001657593271E+00
(PID.TID 0000.0001) %MON forcing_empmr_max            =   6.9994715302357E-05
(PID.TID 0000.0001) %MON forcing_empmr_min            =   1.4408303785096E-05
(PID.TID 0000.0001) %MON forcing_empmr_mean           =   4.3942400177846E-05
(PID.TID 0000.0001) %MON forcing_empmr_sd             =   1.1599098392661E-05
(PID.TID 0000.0001) %MON forcing_empmr_del2           =   6.3389058384526E-07
(PID.TID 0000.0001) %MON forcing_fu_max               =   2.0525399595499E-01
(PID.TID 0000.0001) %MON forcing_fu_min               =  -1.2709509953856E-01
(PID.TID 0000.0001) %MON forcing_fu_mean              =  -3.6159654134226E-02
(PID.TID 0000.0001) %MON forcing_fu_sd                =   4.2059098885313E-02
(PID.TID 0000.0001) %MON forcing_fu_del2              =   1.9364603310908E-03
(PID.TID 0000.0001) %MON forcing_fv_max               =   3.1886491924524E-02
(PID.TID 0000.0001) %MON forcing_fv_min               =  -1.0375389456749E-01
(PID.TID 0000.0001) %MON forcing_fv_mean              =  -4.4471113572464E-02
(PID.TID 0000.0001) %MON forcing_fv_sd                =   2.6426738410251E-02
(PID.TID 0000.0001) %MON forcing_fv_del2              =   8.4118233110319E-04
(PID.TID 0000.0001) %MON trAdv_CFL_u_max              =   3.5478913676453E-03
(PID.TID 0000.0001) %MON trAdv_CFL_v_max              =   2.0262317493188E-03
(PID.TID 0000.0001) %MON trAdv_CFL_w_max              =   4.5929334924076E-03
(PID.TID 0000.0001) %MON advcfl_uvel_max              =   3.5048815876878E-03
(PID.TID 0000.0001) %MON advcfl_vvel_max              =   1.9127548500727E-03
(PID.TID 0000.0001) %MON advcfl_wvel_max              =   4.7458128394529E-03
(PID.TID 0000.0001) %MON advcfl_W_hf_max              =   5.9322660493161E-03
(PID.TID 0000.0001) %MON pe_b_mean                    =   6.9563044381898E-06
(PID.TID 0000.0001) %MON ke_max                       =   2.3769384578813E-02
(PID.TID 0000.0001) %MON ke_mean                      =   4.2918301788866E-05
(PID.TID 0000.0001) %MON ke_vol                       =   3.6027486600263E+16
(PID.TID 0000.0001) %MON vort_r_min                   =  -3.7634193850530E-07
(PID.TID 0000.0001) %MON vort_r_max                   =   7.3029601166710E-07
(PID.TID 0000.0001) %MON vort_a_mean                  =   6.2114138811197E-05
(PID.TID 0000.0001) %MON vort_a_sd                    =   1.9250213276227E-05
(PID.TID 0000.0001) %MON vort_p_mean                  =   7.8095197769435E-05
(PID.TID 0000.0001) %MON vort_p_sd                    =   5.6522129228644E-05
(PID.TID 0000.0001) %MON surfExpan_theta_mean         =  -1.3982219720807E-07
(PID.TID 0000.0001) %MON surfExpan_salt_mean          =   3.5530754636712E-09
(PID.TID 0000.0001) // =======================================================
(PID.TID 0000.0001) // End MONITOR dynamic field statistics
(PID.TID 0000.0001) // =======================================================
(PID.TID 0000.0001) // =======================================================
(PID.TID 0000.0001) // Begin MONITOR ptracer field statistics
(PID.TID 0000.0001) // =======================================================
(PID.TID 0000.0001) %MON trcstat_ptracer01_max        =   3.7401170709142E+01
(PID.TID 0000.0001) %MON trcstat_ptracer01_min        =   3.4726820843940E+01
(PID.TID 0000.0001) %MON trcstat_ptracer01_mean       =   3.5157553711665E+01
(PID.TID 0000.0001) %MON trcstat_ptracer01_sd         =   4.1375467434404E-01
(PID.TID 0000.0001) %MON trcstat_ptracer01_del2       =   7.9839257474342E-04
(PID.TID 0000.0001) // =======================================================
(PID.TID 0000.0001) // End MONITOR ptracers field statistics
(PID.TID 0000.0001) // =======================================================
 EXTERNAL_FIELDS_LOAD,        19 : iP,iLd,i0,i1=    2    3    2    3 ; Wght=  0.4166666667  0.5833333333
 cg2d: Sum(rhs),rhsMax =   5.59552404411079E-14  5.38401062692994E-01
(PID.TID 0000.0001)      cg2d_init_res =   5.90023093564563E-02
(PID.TID 0000.0001)      cg2d_iters(min,last) =      -1      44
(PID.TID 0000.0001)      cg2d_last_res =   9.86874546626797E-14
(PID.TID 0000.0001) // =======================================================
(PID.TID 0000.0001) // Begin MONITOR dynamic field statistics
(PID.TID 0000.0001) // =======================================================
(PID.TID 0000.0001) %MON time_tsnumber                =                    20
(PID.TID 0000.0001) %MON time_secondsf                =   9.3600000000000E+04
(PID.TID 0000.0001) %MON dynstat_eta_max              =   1.4946780298452E-01
(PID.TID 0000.0001) %MON dynstat_eta_min              =  -2.1791934253549E-01
(PID.TID 0000.0001) %MON dynstat_eta_mean             =  -3.0332323266584E-16
(PID.TID 0000.0001) %MON dynstat_eta_sd               =   7.5855926959396E-02
(PID.TID 0000.0001) %MON dynstat_eta_del2             =   1.4636622487620E-03
(PID.TID 0000.0001) %MON dynstat_uvel_max             =   2.8414481912754E-02
(PID.TID 0000.0001) %MON dynstat_uvel_min             =  -2.0531047589965E-01
(PID.TID 0000.0001) %MON dynstat_uvel_mean            =  -5.5311946839349E-05
(PID.TID 0000.0001) %MON dynstat_uvel_sd              =   7.8205425054511E-03
(PID.TID 0000.0001) %MON dynstat_uvel_del2            =   2.1464527521471E-04
(PID.TID 0000.0001) %MON dynstat_vvel_max             =   1.2515011682618E-01
(PID.TID 0000.0001) %MON dynstat_vvel_min             =  -1.1216815816384E-01
(PID.TID 0000.0001) %MON dynstat_vvel_mean            =   5.0015101289539E-05
(PID.TID 0000.0001) %MON dynstat_vvel_sd              =   5.4864116730100E-03
(PID.TID 0000.0001) %MON dynstat_vvel_del2            =   1.6910163008812E-04
(PID.TID 0000.0001) %MON dynstat_wvel_max             =   6.2084495530974E-05
(PID.TID 0000.0001) %MON dynstat_wvel_min             =  -1.5894402954501E-04
(PID.TID 0000.0001) %MON dynstat_wvel_mean            =  -3.9391755173170E-22
(PID.TID 0000.0001) %MON dynstat_wvel_sd              =   2.0833990983485E-05
(PID.TID 0000.0001) %MON dynstat_wvel_del2            =   3.8027970463617E-07
(PID.TID 0000.0001) %MON dynstat_theta_max            =   2.6165752716052E+01
(PID.TID 0000.0001) %MON dynstat_theta_min            =   1.8064665017898E+00
(PID.TID 0000.0001) %MON dynstat_theta_mean           =   5.4787206733415E+00
(PID.TID 0000.0001) %MON dynstat_theta_sd             =   4.5934326730646E+00
(PID.TID 0000.0001) %MON dynstat_theta_del2           =   3.2357962804597E-03
(PID.TID 0000.0001) %MON dynstat_salt_max             =   3.7406797635892E+01
(PID.TID 0000.0001) %MON dynstat_salt_min             =   3.4726833869432E+01
(PID.TID 0000.0001) %MON dynstat_salt_mean            =   3.5157578845419E+01
(PID.TID 0000.0001) %MON dynstat_salt_sd              =   4.1383080890444E-01
(PID.TID 0000.0001) %MON dynstat_salt_del2            =   7.9829890825079E-04
(PID.TID 0000.0001) %MON forcing_qnet_max             =   5.7280787150065E+01
(PID.TID 0000.0001) %MON forcing_qnet_min             =  -1.7148053487142E+02
(PID.TID 0000.0001) %MON forcing_qnet_mean            =  -6.7917534930019E+01
(PID.TID 0000.0001) %MON forcing_qnet_sd              =   4.9562900759258E+01
(PID.TID 0000.0001) %MON forcing_qnet_del2            =   2.0210411432933E+00
(PID.TID 0000.0001) %MON forcing_qsw_max              =  -1.3106833394368E+02
(PID.TID 0000.0001) %MON forcing_qsw_min              =  -3.1762956492106E+02
(PID.TID 0000.0001) %MON forcing_qsw_mean             =  -2.5271815664967E+02
(PID.TID 0000.0001) %MON forcing_qsw_sd               =   4.1764415005147E+01
(PID.TID 0000.0001) %MON forcing_qsw_del2             =   1.4975235240470E+00
(PID.TID 0000.0001) %MON forcing_empmr_max            =   7.0559226872765E-05
(PID.TID 0000.0001) %MON forcing_empmr_min            =   1.4493037263907E-05
(PID.TID 0000.0001) %MON forcing_empmr_mean           =   4.4363672689087E-05
(PID.TID 0000.0001) %MON forcing_empmr_sd             =   1.1610819012107E-05
(PID.TID 0000.0001) %MON forcing_empmr_del2           =   6.3674250569282E-07
(PID.TID 0000.0001) %MON forcing_fu_max               =   1.9245744620760E-01
(PID.TID 0000.0001) %MON forcing_fu_min               =  -1.2815452553332E-01
(PID.TID 0000.0001) %MON forcing_fu_mean              =  -3.6899526675781E-02
(PID.TID 0000.0001) %MON forcing_fu_sd                =   4.1985994234314E-02
(PID.TID 0000.0001) %MON forcing_fu_del2              =   1.9311692904480E-03
(PID.TID 0000.0001) %MON forcing_fv_max               =   3.1439596166213E-02
(PID.TID 0000.0001) %MON forcing_fv_min               =  -1.0662912329038E-01
(PID.TID 0000.0001) %MON forcing_fv_mean              =  -4.5366564492913E-02
(PID.TID 0000.0001) %MON forcing_fv_sd                =   2.7100792429513E-02
(PID.TID 0000.0001) %MON forcing_fv_del2              =   8.5390213196878E-04
(PID.TID 0000.0001) %MON trAdv_CFL_u_max              =   3.5050595353428E-03
(PID.TID 0000.0001) %MON trAdv_CFL_v_max              =   1.9240556148970E-03
(PID.TID 0000.0001) %MON trAdv_CFL_w_max              =   4.5025176750540E-03
(PID.TID 0000.0001) %MON advcfl_uvel_max              =   3.4413039798641E-03
(PID.TID 0000.0001) %MON advcfl_vvel_max              =   2.0262217110639E-03
(PID.TID 0000.0001) %MON advcfl_wvel_max              =   4.7996960339758E-03
(PID.TID 0000.0001) %MON advcfl_W_hf_max              =   5.9996200424698E-03
(PID.TID 0000.0001) %MON pe_b_mean                    =   6.9360329458342E-06
(PID.TID 0000.0001) %MON ke_max                       =   2.3365794263905E-02
(PID.TID 0000.0001) %MON ke_mean                      =   4.0763301097570E-05
(PID.TID 0000.0001) %MON ke_vol                       =   3.6027486600263E+16
(PID.TID 0000.0001) %MON vort_r_min                   =  -3.6761305618906E-07
(PID.TID 0000.0001) %MON vort_r_max                   =   7.1477690679910E-07
(PID.TID 0000.0001) %MON vort_a_mean                  =   6.2114138811197E-05
(PID.TID 0000.0001) %MON vort_a_sd                    =   1.9250208302218E-05
(PID.TID 0000.0001) %MON vort_p_mean                  =   7.8095197769436E-05
(PID.TID 0000.0001) %MON vort_p_sd                    =   5.6522658752326E-05
(PID.TID 0000.0001) %MON surfExpan_theta_mean         =  -3.4028055229170E-07
(PID.TID 0000.0001) %MON surfExpan_salt_mean          =   3.2062950480963E-08
(PID.TID 0000.0001) // =======================================================
(PID.TID 0000.0001) // End MONITOR dynamic field statistics
(PID.TID 0000.0001) // =======================================================
(PID.TID 0000.0001) // =======================================================
(PID.TID 0000.0001) // Begin MONITOR ptracer field statistics
(PID.TID 0000.0001) // =======================================================
(PID.TID 0000.0001) %MON trcstat_ptracer01_max        =   3.7401246451808E+01
(PID.TID 0000.0001) %MON trcstat_ptracer01_min        =   3.4726834269016E+01
(PID.TID 0000.0001) %MON trcstat_ptracer01_mean       =   3.5157553683167E+01
(PID.TID 0000.0001) %MON trcstat_ptracer01_sd         =   4.1375336773976E-01
(PID.TID 0000.0001) %MON trcstat_ptracer01_del2       =   7.9890212951207E-04
(PID.TID 0000.0001) // =======================================================
(PID.TID 0000.0001) // End MONITOR ptracers field statistics
(PID.TID 0000.0001) // =======================================================
(PID.TID 0000.0001) %CHECKPOINT        20 ckptA
(PID.TID 0000.0001)   Seconds in section "ALL                    [THE_MODEL_MAIN]":
(PID.TID 0000.0001)           User time:   6.5040110554546118
(PID.TID 0000.0001)         System time:  3.09949987567961216E-002
(PID.TID 0000.0001)     Wall clock time:   6.6114969253540039
(PID.TID 0000.0001)          No. starts:           1
(PID.TID 0000.0001)           No. stops:           1
(PID.TID 0000.0001)   Seconds in section "INITIALISE_FIXED       [THE_MODEL_MAIN]":
(PID.TID 0000.0001)           User time:  0.10698400251567364
(PID.TID 0000.0001)         System time:  9.99799976125359535E-003
(PID.TID 0000.0001)     Wall clock time:  0.14744114875793457
(PID.TID 0000.0001)          No. starts:           1
(PID.TID 0000.0001)           No. stops:           1
(PID.TID 0000.0001)   Seconds in section "THE_MAIN_LOOP          [THE_MODEL_MAIN]":
(PID.TID 0000.0001)           User time:   6.3970270529389381
(PID.TID 0000.0001)         System time:  2.09969989955425262E-002
(PID.TID 0000.0001)     Wall clock time:   6.4640159606933594
(PID.TID 0000.0001)          No. starts:           1
(PID.TID 0000.0001)           No. stops:           1
(PID.TID 0000.0001)   Seconds in section "INITIALISE_VARIA    [THE_MAIN_LOOP]":
(PID.TID 0000.0001)           User time:  4.39930036664009094E-002
(PID.TID 0000.0001)         System time:  8.99899937212467194E-003
(PID.TID 0000.0001)     Wall clock time:  5.30171394348144531E-002
(PID.TID 0000.0001)          No. starts:           1
(PID.TID 0000.0001)           No. stops:           1
(PID.TID 0000.0001)   Seconds in section "MAIN LOOP           [THE_MAIN_LOOP]":
(PID.TID 0000.0001)           User time:   6.3530340492725372
(PID.TID 0000.0001)         System time:  1.19979996234178543E-002
(PID.TID 0000.0001)     Wall clock time:   6.4109690189361572
(PID.TID 0000.0001)          No. starts:           1
(PID.TID 0000.0001)           No. stops:           1
(PID.TID 0000.0001)   Seconds in section "MAIN_DO_LOOP        [THE_MAIN_LOOP]":
(PID.TID 0000.0001)           User time:   6.3530340492725372
(PID.TID 0000.0001)         System time:  1.19979996234178543E-002
(PID.TID 0000.0001)     Wall clock time:   6.4107863903045654
(PID.TID 0000.0001)          No. starts:          20
(PID.TID 0000.0001)           No. stops:          20
(PID.TID 0000.0001)   Seconds in section "FORWARD_STEP        [MAIN_DO_LOOP]":
(PID.TID 0000.0001)           User time:   6.3530340492725372
(PID.TID 0000.0001)         System time:  1.19979996234178543E-002
(PID.TID 0000.0001)     Wall clock time:   6.4104187488555908
(PID.TID 0000.0001)          No. starts:          20
(PID.TID 0000.0001)           No. stops:          20
(PID.TID 0000.0001)   Seconds in section "DO_STATEVARS_DIAGS  [FORWARD_STEP]":
(PID.TID 0000.0001)           User time:  3.99875640869140625E-003
(PID.TID 0000.0001)         System time:  1.00000016391277313E-003
(PID.TID 0000.0001)     Wall clock time:  5.41448593139648438E-003
(PID.TID 0000.0001)          No. starts:          40
(PID.TID 0000.0001)           No. stops:          40
(PID.TID 0000.0001)   Seconds in section "LOAD_FIELDS_DRIVER  [FORWARD_STEP]":
(PID.TID 0000.0001)           User time:  1.10002905130386353E-002
(PID.TID 0000.0001)         System time:  9.98999923467636108E-004
(PID.TID 0000.0001)     Wall clock time:  9.40036773681640625E-003
(PID.TID 0000.0001)          No. starts:          20
(PID.TID 0000.0001)           No. stops:          20
(PID.TID 0000.0001)   Seconds in section "EXTERNAL_FLDS_LOAD [LOAD_FLDS_DRIVER]":
(PID.TID 0000.0001)           User time:  1.10002905130386353E-002
(PID.TID 0000.0001)         System time:  9.98999923467636108E-004
(PID.TID 0000.0001)     Wall clock time:  9.03153419494628906E-003
(PID.TID 0000.0001)          No. starts:          20
(PID.TID 0000.0001)           No. stops:          20
(PID.TID 0000.0001)   Seconds in section "DO_ATMOSPHERIC_PHYS [FORWARD_STEP]":
(PID.TID 0000.0001)           User time:   0.0000000000000000
(PID.TID 0000.0001)         System time:   0.0000000000000000
(PID.TID 0000.0001)     Wall clock time:  1.90019607543945313E-004
(PID.TID 0000.0001)          No. starts:          20
(PID.TID 0000.0001)           No. stops:          20
(PID.TID 0000.0001)   Seconds in section "DO_OCEANIC_PHYS     [FORWARD_STEP]":
(PID.TID 0000.0001)           User time:   1.6507476419210434
(PID.TID 0000.0001)         System time:   0.0000000000000000
(PID.TID 0000.0001)     Wall clock time:   1.6589159965515137
(PID.TID 0000.0001)          No. starts:          20
(PID.TID 0000.0001)           No. stops:          20
(PID.TID 0000.0001)   Seconds in section "KPP_CALC [DO_OCEANIC_PHYS]":
(PID.TID 0000.0001)           User time:   1.3097997009754181
(PID.TID 0000.0001)         System time:   0.0000000000000000
(PID.TID 0000.0001)     Wall clock time:   1.3154041767120361
(PID.TID 0000.0001)          No. starts:          80
(PID.TID 0000.0001)           No. stops:          80
(PID.TID 0000.0001)   Seconds in section "LONGSTEP_AVERAGE    [FORWARD_STEP]":
(PID.TID 0000.0001)           User time:  0.31595310568809509
(PID.TID 0000.0001)         System time:   0.0000000000000000
(PID.TID 0000.0001)     Wall clock time:  0.31291890144348145
(PID.TID 0000.0001)          No. starts:          20
(PID.TID 0000.0001)           No. stops:          20
(PID.TID 0000.0001)   Seconds in section "LONGSTEP_THERMODYNAMICS      [FORWARD_STEP]":
(PID.TID 0000.0001)           User time:  0.32595014572143555
(PID.TID 0000.0001)         System time:   0.0000000000000000
(PID.TID 0000.0001)     Wall clock time:  0.33021211624145508
(PID.TID 0000.0001)          No. starts:          20
(PID.TID 0000.0001)           No. stops:          20
(PID.TID 0000.0001)   Seconds in section "THERMODYNAMICS      [FORWARD_STEP]":
(PID.TID 0000.0001)           User time:   1.3167991340160370
(PID.TID 0000.0001)         System time:   0.0000000000000000
(PID.TID 0000.0001)     Wall clock time:   1.3253097534179688
(PID.TID 0000.0001)          No. starts:          20
(PID.TID 0000.0001)           No. stops:          20
(PID.TID 0000.0001)   Seconds in section "DYNAMICS            [FORWARD_STEP]":
(PID.TID 0000.0001)           User time:   2.0326925814151764
(PID.TID 0000.0001)         System time:   0.0000000000000000
(PID.TID 0000.0001)     Wall clock time:   2.0392973423004150
(PID.TID 0000.0001)          No. starts:          20
(PID.TID 0000.0001)           No. stops:          20
(PID.TID 0000.0001)   Seconds in section "SOLVE_FOR_PRESSURE  [FORWARD_STEP]":
(PID.TID 0000.0001)           User time:  0.17597252130508423
(PID.TID 0000.0001)         System time:   0.0000000000000000
(PID.TID 0000.0001)     Wall clock time:  0.17593359947204590
(PID.TID 0000.0001)          No. starts:          20
(PID.TID 0000.0001)           No. stops:          20
(PID.TID 0000.0001)   Seconds in section "MOM_CORRECTION_STEP [FORWARD_STEP]":
(PID.TID 0000.0001)           User time:  3.99926900863647461E-002
(PID.TID 0000.0001)         System time:   0.0000000000000000
(PID.TID 0000.0001)     Wall clock time:  4.31845188140869141E-002
(PID.TID 0000.0001)          No. starts:          20
(PID.TID 0000.0001)           No. stops:          20
(PID.TID 0000.0001)   Seconds in section "INTEGR_CONTINUITY   [FORWARD_STEP]":
(PID.TID 0000.0001)           User time:  3.89955937862396240E-002
(PID.TID 0000.0001)         System time:   0.0000000000000000
(PID.TID 0000.0001)     Wall clock time:  3.29053401947021484E-002
(PID.TID 0000.0001)          No. starts:          20
(PID.TID 0000.0001)           No. stops:          20
(PID.TID 0000.0001)   Seconds in section "TRC_CORRECTION_STEP [FORWARD_STEP]":
(PID.TID 0000.0001)           User time:   0.0000000000000000
(PID.TID 0000.0001)         System time:   0.0000000000000000
(PID.TID 0000.0001)     Wall clock time:  1.85251235961914063E-004
(PID.TID 0000.0001)          No. starts:          20
(PID.TID 0000.0001)           No. stops:          20
(PID.TID 0000.0001)   Seconds in section "BLOCKING_EXCHANGES  [FORWARD_STEP]":
(PID.TID 0000.0001)           User time:  0.12598159909248352
(PID.TID 0000.0001)         System time:   0.0000000000000000
(PID.TID 0000.0001)     Wall clock time:  0.12538504600524902
(PID.TID 0000.0001)          No. starts:          20
(PID.TID 0000.0001)           No. stops:          20
(PID.TID 0000.0001)   Seconds in section "DO_STATEVARS_TAVE   [FORWARD_STEP]":
(PID.TID 0000.0001)           User time:   0.0000000000000000
(PID.TID 0000.0001)         System time:   0.0000000000000000
(PID.TID 0000.0001)     Wall clock time:  1.90973281860351563E-004
(PID.TID 0000.0001)          No. starts:          20
(PID.TID 0000.0001)           No. stops:          20
(PID.TID 0000.0001)   Seconds in section "MONITOR             [FORWARD_STEP]":
(PID.TID 0000.0001)           User time:  0.25096130371093750
(PID.TID 0000.0001)         System time:  1.00000016391277313E-003
(PID.TID 0000.0001)     Wall clock time:  0.25497508049011230
(PID.TID 0000.0001)          No. starts:          20
(PID.TID 0000.0001)           No. stops:          20
(PID.TID 0000.0001)   Seconds in section "DO_THE_MODEL_IO     [FORWARD_STEP]":
(PID.TID 0000.0001)           User time:  5.19903898239135742E-002
(PID.TID 0000.0001)         System time:  6.99899904429912567E-003
(PID.TID 0000.0001)     Wall clock time:  8.09035301208496094E-002
(PID.TID 0000.0001)          No. starts:          20
(PID.TID 0000.0001)           No. stops:          20
(PID.TID 0000.0001)   Seconds in section "PTRACERS_RESET      [FORWARD_STEP]":
(PID.TID 0000.0001)           User time:  1.00004673004150391E-003
(PID.TID 0000.0001)         System time:   0.0000000000000000
(PID.TID 0000.0001)     Wall clock time:  2.07662582397460938E-004
(PID.TID 0000.0001)          No. starts:          20
(PID.TID 0000.0001)           No. stops:          20
(PID.TID 0000.0001)   Seconds in section "DO_WRITE_PICKUP     [FORWARD_STEP]":
(PID.TID 0000.0001)           User time:  8.99791717529296875E-003
(PID.TID 0000.0001)         System time:  2.00000032782554626E-003
(PID.TID 0000.0001)     Wall clock time:  1.10988616943359375E-002
(PID.TID 0000.0001)          No. starts:          20
(PID.TID 0000.0001)           No. stops:          20
(PID.TID 0000.0001) // ======================================================
(PID.TID 0000.0001) // Tile <-> Tile communication statistics
(PID.TID 0000.0001) // ======================================================
(PID.TID 0000.0001) // o Tile number: 000001
(PID.TID 0000.0001) //         No. X exchanges =              0
(PID.TID 0000.0001) //            Max. X spins =              0
(PID.TID 0000.0001) //            Min. X spins =     1000000000
(PID.TID 0000.0001) //          Total. X spins =              0
(PID.TID 0000.0001) //            Avg. X spins =       0.00E+00
(PID.TID 0000.0001) //         No. Y exchanges =              0
(PID.TID 0000.0001) //            Max. Y spins =              0
(PID.TID 0000.0001) //            Min. Y spins =     1000000000
(PID.TID 0000.0001) //          Total. Y spins =              0
(PID.TID 0000.0001) //            Avg. Y spins =       0.00E+00
(PID.TID 0000.0001) // o Tile number: 000002
(PID.TID 0000.0001) //         No. X exchanges =              0
(PID.TID 0000.0001) //            Max. X spins =              0
(PID.TID 0000.0001) //            Min. X spins =     1000000000
(PID.TID 0000.0001) //          Total. X spins =              0
(PID.TID 0000.0001) //            Avg. X spins =       0.00E+00
(PID.TID 0000.0001) //         No. Y exchanges =              0
(PID.TID 0000.0001) //            Max. Y spins =              0
(PID.TID 0000.0001) //            Min. Y spins =     1000000000
(PID.TID 0000.0001) //          Total. Y spins =              0
(PID.TID 0000.0001) //            Avg. Y spins =       0.00E+00
(PID.TID 0000.0001) // o Tile number: 000003
(PID.TID 0000.0001) //         No. X exchanges =              0
(PID.TID 0000.0001) //            Max. X spins =              0
(PID.TID 0000.0001) //            Min. X spins =     1000000000
(PID.TID 0000.0001) //          Total. X spins =              0
(PID.TID 0000.0001) //            Avg. X spins =       0.00E+00
(PID.TID 0000.0001) //         No. Y exchanges =              0
(PID.TID 0000.0001) //            Max. Y spins =              0
(PID.TID 0000.0001) //            Min. Y spins =     1000000000
(PID.TID 0000.0001) //          Total. Y spins =              0
(PID.TID 0000.0001) //            Avg. Y spins =       0.00E+00
(PID.TID 0000.0001) // o Tile number: 000004
(PID.TID 0000.0001) //         No. X exchanges =              0
(PID.TID 0000.0001) //            Max. X spins =              0
(PID.TID 0000.0001) //            Min. X spins =     1000000000
(PID.TID 0000.0001) //          Total. X spins =              0
(PID.TID 0000.0001) //            Avg. X spins =       0.00E+00
(PID.TID 0000.0001) //         No. Y exchanges =              0
(PID.TID 0000.0001) //            Max. Y spins =              0
(PID.TID 0000.0001) //            Min. Y spins =     1000000000
(PID.TID 0000.0001) //          Total. Y spins =              0
(PID.TID 0000.0001) //            Avg. Y spins =       0.00E+00
(PID.TID 0000.0001) // o Thread number: 000001
(PID.TID 0000.0001) //            No. barriers =          11010
(PID.TID 0000.0001) //      Max. barrier spins =              1
(PID.TID 0000.0001) //      Min. barrier spins =              1
(PID.TID 0000.0001) //     Total barrier spins =          11010
(PID.TID 0000.0001) //      Avg. barrier spins =       1.00E+00
PROGRAM MAIN: Execution ended Normally
