(PID.TID 0000.0001) 
(PID.TID 0000.0001) // ======================================================
(PID.TID 0000.0001) //                      MITgcm UV
(PID.TID 0000.0001) //                      =========
(PID.TID 0000.0001) // ======================================================
(PID.TID 0000.0001) // execution environment starting up...
(PID.TID 0000.0001) 
(PID.TID 0000.0001) // MITgcmUV version:  checkpoint57y_post
(PID.TID 0000.0001) // Build user:        jmc
(PID.TID 0000.0001) // Build host:        faulks
(PID.TID 0000.0001) // Build date:        Tue Dec 20 15:46:25 EST 2005
(PID.TID 0000.0001) 
(PID.TID 0000.0001) // =======================================================
(PID.TID 0000.0001) // Execution Environment parameter file "eedata"
(PID.TID 0000.0001) // =======================================================
(PID.TID 0000.0001) ># Example "eedata" file
(PID.TID 0000.0001) ># Lines beginning "#" are comments
(PID.TID 0000.0001) ># nTx - No. threads per process in X
(PID.TID 0000.0001) ># nTy - No. threads per process in Y
(PID.TID 0000.0001) > &EEPARMS
(PID.TID 0000.0001) > &
(PID.TID 0000.0001) ># Note: Some systems use & as the
(PID.TID 0000.0001) ># namelist terminator. Other systems
(PID.TID 0000.0001) ># use a / character (as shown here).
(PID.TID 0000.0001) 
(PID.TID 0000.0001) // =======================================================
(PID.TID 0000.0001) // Computational Grid Specification ( see files "SIZE.h" )
(PID.TID 0000.0001) //                                  ( and "eedata"       )
(PID.TID 0000.0001) // =======================================================
(PID.TID 0000.0001)      nPx =    1 ; /* No. processes in X */
(PID.TID 0000.0001)      nPy =    1 ; /* No. processes in Y */
(PID.TID 0000.0001)      nSx =    2 ; /* No. tiles in X per process */
(PID.TID 0000.0001)      nSy =    1 ; /* No. tiles in Y per process */
(PID.TID 0000.0001)      sNx =  160 ; /* Tile size in X */
(PID.TID 0000.0001)      sNy =    1 ; /* Tile size in Y */
(PID.TID 0000.0001)      OLx =    3 ; /* Tile overlap distance in X */
(PID.TID 0000.0001)      OLy =    3 ; /* Tile overlap distance in Y */
(PID.TID 0000.0001)      nTx =    1 ; /* No. threads in X per process */
(PID.TID 0000.0001)      nTy =    1 ; /* No. threads in Y per process */
(PID.TID 0000.0001)       Nr =   60 ; /* No. levels in the vertical   */
(PID.TID 0000.0001)       nX =  320 ; /* Total domain size in X ( = nPx*nSx*sNx ) */
(PID.TID 0000.0001)       nY =    1 ; /* Total domain size in Y ( = nPy*nSy*sNy ) */
(PID.TID 0000.0001)   nTiles =    2 ; /* Total no. tiles per process ( = nSx*nSy ) */
(PID.TID 0000.0001)   nProcs =    1 ; /* Total no. processes ( = nPx*nPy ) */
(PID.TID 0000.0001) nThreads =    1 ; /* Total no. threads per process ( = nTx*nTy ) */
(PID.TID 0000.0001) usingMPI =    F ; /* Flag used to control whether MPI is in use */
(PID.TID 0000.0001)                   /*  note: To execute a program with MPI calls */
(PID.TID 0000.0001)                   /*  it must be launched appropriately e.g     */
(PID.TID 0000.0001)                   /*  "mpirun -np 64 ......"                    */
(PID.TID 0000.0001) useCoupler=   F ; /* Flag used to control communications with */
(PID.TID 0000.0001)                   /*  other model components, through a coupler */
(PID.TID 0000.0001) 
(PID.TID 0000.0001) // ======================================================
(PID.TID 0000.0001) // Mapping of tiles to threads
(PID.TID 0000.0001) // ======================================================
(PID.TID 0000.0001) // -o- Thread   1, tiles (   1:   2,   1:   1)
(PID.TID 0000.0001) 
(PID.TID 0000.0001) // ======================================================
(PID.TID 0000.0001) // Tile <-> Tile connectvity table
(PID.TID 0000.0001) // ======================================================
(PID.TID 0000.0001) // Tile number: 000001 (process no. = 000001)
(PID.TID 0000.0001) //        WEST: Tile = 000002, Process = 000001, Comm = put
(PID.TID 0000.0001) //                bi = 000002, bj = 000001
(PID.TID 0000.0001) //        EAST: Tile = 000002, Process = 000001, Comm = put
(PID.TID 0000.0001) //                bi = 000002, bj = 000001
(PID.TID 0000.0001) //       SOUTH: Tile = 000001, Process = 000001, Comm = put
(PID.TID 0000.0001) //                bi = 000001, bj = 000001
(PID.TID 0000.0001) //       NORTH: Tile = 000001, Process = 000001, Comm = put
(PID.TID 0000.0001) //                bi = 000001, bj = 000001
(PID.TID 0000.0001) // Tile number: 000002 (process no. = 000001)
(PID.TID 0000.0001) //        WEST: Tile = 000001, Process = 000001, Comm = put
(PID.TID 0000.0001) //                bi = 000001, bj = 000001
(PID.TID 0000.0001) //        EAST: Tile = 000001, Process = 000001, Comm = put
(PID.TID 0000.0001) //                bi = 000001, bj = 000001
(PID.TID 0000.0001) //       SOUTH: Tile = 000002, Process = 000001, Comm = put
(PID.TID 0000.0001) //                bi = 000002, bj = 000001
(PID.TID 0000.0001) //       NORTH: Tile = 000002, Process = 000001, Comm = put
(PID.TID 0000.0001) //                bi = 000002, bj = 000001
(PID.TID 0000.0001) 
(PID.TID 0000.0001) // =======================================================
(PID.TID 0000.0001) // Model parameter file "data"
(PID.TID 0000.0001) // =======================================================
(PID.TID 0000.0001) ># ====================
(PID.TID 0000.0001) ># | Model parameters |
(PID.TID 0000.0001) ># ====================
(PID.TID 0000.0001) >#
(PID.TID 0000.0001) ># Continuous equation parameters
(PID.TID 0000.0001) > &PARM01
(PID.TID 0000.0001) > tRef=60*1.,
(PID.TID 0000.0001) > sRef=60*35.,
(PID.TID 0000.0001) > viscA4=0.0E4,
(PID.TID 0000.0001) > viscAh=1.E-2,
(PID.TID 0000.0001) > viscAz=1.E-3,
(PID.TID 0000.0001) > no_slip_sides=.TRUE.,
(PID.TID 0000.0001) > no_slip_bottom=.TRUE.,
(PID.TID 0000.0001) > diffK4T=0.E4,
(PID.TID 0000.0001) > diffKhT=0.E-2,
(PID.TID 0000.0001) > diffKzT=0.E-3,
(PID.TID 0000.0001) > diffK4S=0.E4,
(PID.TID 0000.0001) > diffKhS=1.E-2,
(PID.TID 0000.0001) > diffKzS=1.E-5,
(PID.TID 0000.0001) > f0=0.e-4,
(PID.TID 0000.0001) > beta=0.E-11,
(PID.TID 0000.0001) > tAlpha=2.E-4,
(PID.TID 0000.0001) > sBeta =0.E-4,
(PID.TID 0000.0001) > rigidLid=.FALSE.,
(PID.TID 0000.0001) > implicitFreeSurface=.TRUE.,
(PID.TID 0000.0001) > eosType='LINEAR',
(PID.TID 0000.0001) > hFacMin=0.05,
(PID.TID 0000.0001) > nonHydrostatic=.TRUE.,
(PID.TID 0000.0001) > readBinaryPrec=64,
(PID.TID 0000.0001) >#- not safe to use globalFiles in multi-processors runs
(PID.TID 0000.0001) >#globalFiles=.TRUE.,
(PID.TID 0000.0001) > bottomDragLinear=0.E-4,
(PID.TID 0000.0001) > tempAdvScheme=33,
(PID.TID 0000.0001) > &
(PID.TID 0000.0001) >
(PID.TID 0000.0001) ># Elliptic solver parameters
(PID.TID 0000.0001) > &PARM02
(PID.TID 0000.0001) > cg2dMaxIters=300,
(PID.TID 0000.0001) > cg2dTargetResidual=1.E-13,
(PID.TID 0000.0001) > cg3dMaxIters=20,
(PID.TID 0000.0001) > cg3dTargetResidual=1.E-8,
(PID.TID 0000.0001) > &
(PID.TID 0000.0001) >
(PID.TID 0000.0001) ># Time stepping parameters
(PID.TID 0000.0001) > &PARM03
(PID.TID 0000.0001) > niter0=0,
(PID.TID 0000.0001) > nTimeSteps=20,
(PID.TID 0000.0001) >#nTimeSteps=8640,
(PID.TID 0000.0001) > deltaT=20.0,
(PID.TID 0000.0001) > abEps=0.01,
(PID.TID 0000.0001) > pChkptFreq=0.0,
(PID.TID 0000.0001) > chkptFreq=0.0,
(PID.TID 0000.0001) > dumpFreq=6000.0,
(PID.TID 0000.0001) >#taveFreq=864000.0,
(PID.TID 0000.0001) > monitorFreq=1.,
(PID.TID 0000.0001) > &
(PID.TID 0000.0001) >
(PID.TID 0000.0001) ># Gridding parameters
(PID.TID 0000.0001) > &PARM04
(PID.TID 0000.0001) > usingCartesianGrid=.TRUE.,
(PID.TID 0000.0001) > usingSphericalPolarGrid=.FALSE.,
(PID.TID 0000.0001) > delXfile='dx.bin',
(PID.TID 0000.0001) > dYspacing=200.,
(PID.TID 0000.0001) > delZ=60*3.33333333333333333333333,
(PID.TID 0000.0001) > &
(PID.TID 0000.0001) >
(PID.TID 0000.0001) ># Input datasets
(PID.TID 0000.0001) > &PARM05
(PID.TID 0000.0001) > bathyFile='topog.slope',
(PID.TID 0000.0001) > hydrogThetaFile='T.init',
(PID.TID 0000.0001) > surfQfile='Qnet.forcing',
(PID.TID 0000.0001) >#hydrogThetaFile='T.pickup',
(PID.TID 0000.0001) >#uVelInitFile='U.pickup',
(PID.TID 0000.0001) >#pSurfInitFile='Eta.pickup',
(PID.TID 0000.0001) > &
(PID.TID 0000.0001) 
(PID.TID 0000.0001) S/R INI_PARMS ; starts to read PARM01
(PID.TID 0000.0001) S/R INI_PARMS ; read PARM01 : OK
(PID.TID 0000.0001) S/R INI_PARMS ; starts to read PARM02
(PID.TID 0000.0001) S/R INI_PARMS ; read PARM02 : OK
(PID.TID 0000.0001) S/R INI_PARMS ; starts to read PARM03
(PID.TID 0000.0001) S/R INI_PARMS ; read PARM03 : OK
(PID.TID 0000.0001) S/R INI_PARMS ; starts to read PARM04
(PID.TID 0000.0001) S/R INI_PARMS ; read PARM04 : OK
(PID.TID 0000.0001) S/R INI_PARMS ; starts to read PARM05
(PID.TID 0000.0001) S/R INI_PARMS ; read PARM05 : OK
(PID.TID 0000.0001)  PACKAGES_BOOT: opening data.pkg
(PID.TID 0000.0001)  OPEN_COPY_DATA_FILE: opening file data.pkg
(PID.TID 0000.0001) // =======================================================
(PID.TID 0000.0001) // Parameter file "data.pkg"
(PID.TID 0000.0001) // =======================================================
(PID.TID 0000.0001) ># Packages
(PID.TID 0000.0001) > &PACKAGES
(PID.TID 0000.0001) > useOBCS=.TRUE.,
(PID.TID 0000.0001) > &
(PID.TID 0000.0001) 
(PID.TID 0000.0001)  PACKAGES_BOOT: finished reading data.pkg
(PID.TID 0000.0001)  OBCS_READPARMS: opening data.obcs
(PID.TID 0000.0001)  OPEN_COPY_DATA_FILE: opening file data.obcs
(PID.TID 0000.0001) // =======================================================
(PID.TID 0000.0001) // Parameter file "data.obcs"
(PID.TID 0000.0001) // =======================================================
(PID.TID 0000.0001) ># Open-boundaries
(PID.TID 0000.0001) > &OBCS_PARM01
(PID.TID 0000.0001) > OB_Ieast=1*-1,
(PID.TID 0000.0001) > useOrlanskiEast=.TRUE.,
(PID.TID 0000.0001) > &
(PID.TID 0000.0001) >
(PID.TID 0000.0001) ># Orlanski parameters
(PID.TID 0000.0001) > &OBCS_PARM02
(PID.TID 0000.0001) > Cmax=0.45,
(PID.TID 0000.0001) > cVelTimeScale=1000.,
(PID.TID 0000.0001) > &
(PID.TID 0000.0001) 
 OB Jn = 0 0 0 0 0 0 0 0 0 0 0 0 0 0 0 0 0 0 0 0 0 0 0 0 0 0 0 0 0 0 0 0 0 0 0 0
 0 0 0 0 0 0 0 0 0 0 0 0 0 0 0 0 0 0 0 0 0 0 0 0 0 0 0 0 0 0 0 0 0 0 0 0 0 0 0 0
 0 0 0 0 0 0 0 0 0 0 0 0 0 0 0 0 0 0 0 0 0 0 0 0 0 0 0 0 0 0 0 0 0 0 0 0 0 0 0 0
 0 0 0 0 0 0 0 0 0 0 0 0 0 0 0 0 0 0 0 0 0 0 0 0 0 0 0 0 0 0 0 0 0 0 0 0 0 0 0 0
 0 0 0 0 0 0 0 0 0 0 0 0 0 0 0 0 0 0 0 0 0 0 0 0 0 0 0 0 0 0 0 0 0 0 0 0 0 0 0 0
 0 0 0 0 0 0 0 0 0 0 0 0 0 0 0 0 0 0 0 0 0 0 0 0 0 0 0 0 0 0 0 0 0 0 0 0 0 0 0 0
 0 0 0 0 0 0 0 0 0 0 0 0 0 0 0 0 0 0 0 0 0 0 0 0 0 0 0 0 0 0 0 0 0 0 0 0 0 0 0 0
 0 0 0 0 0 0 0 0 0 0 0 0 0 0 0 0 0 0 0 0 0 0 0 0 0 0 0 0 0 0 0 0 0 0 0 0 0 0 0 0
 0 0 0 0
 OB Js = 0 0 0 0 0 0 0 0 0 0 0 0 0 0 0 0 0 0 0 0 0 0 0 0 0 0 0 0 0 0 0 0 0 0 0 0
 0 0 0 0 0 0 0 0 0 0 0 0 0 0 0 0 0 0 0 0 0 0 0 0 0 0 0 0 0 0 0 0 0 0 0 0 0 0 0 0
 0 0 0 0 0 0 0 0 0 0 0 0 0 0 0 0 0 0 0 0 0 0 0 0 0 0 0 0 0 0 0 0 0 0 0 0 0 0 0 0
 0 0 0 0 0 0 0 0 0 0 0 0 0 0 0 0 0 0 0 0 0 0 0 0 0 0 0 0 0 0 0 0 0 0 0 0 0 0 0 0
 0 0 0 0 0 0 0 0 0 0 0 0 0 0 0 0 0 0 0 0 0 0 0 0 0 0 0 0 0 0 0 0 0 0 0 0 0 0 0 0
 0 0 0 0 0 0 0 0 0 0 0 0 0 0 0 0 0 0 0 0 0 0 0 0 0 0 0 0 0 0 0 0 0 0 0 0 0 0 0 0
 0 0 0 0 0 0 0 0 0 0 0 0 0 0 0 0 0 0 0 0 0 0 0 0 0 0 0 0 0 0 0 0 0 0 0 0 0 0 0 0
 0 0 0 0 0 0 0 0 0 0 0 0 0 0 0 0 0 0 0 0 0 0 0 0 0 0 0 0 0 0 0 0 0 0 0 0 0 0 0 0
 0 0 0 0
 OB Ie = 320
 OB Iw = 0
(PID.TID 0000.0001)  OBCS_READPARMS: finished reading data.obcs
(PID.TID 0000.0001) S/R LOAD_GRID_SPACING: delX loaded from file: dx.bin
(PID.TID 0000.0001) %MON XC_max                       =   6.4030118978311E+03
(PID.TID 0000.0001) %MON XC_min                       =   6.6667527892151E+00
(PID.TID 0000.0001) %MON XC_mean                      =   2.4575819181463E+03
(PID.TID 0000.0001) %MON XC_sd                        =   1.7058938715763E+03
(PID.TID 0000.0001) %MON XG_max                       =   6.3832517139640E+03
(PID.TID 0000.0001) %MON XG_min                       =   1.3333505578430E+01
(PID.TID 0000.0001) %MON XG_mean                      =   2.4552188958181E+03
(PID.TID 0000.0001) %MON XG_sd                        =   1.6985888696894E+03
(PID.TID 0000.0001) %MON DXC_max                      =   3.9508304374678E+01
(PID.TID 0000.0001) %MON DXC_min                      =   1.3333509993998E+01
(PID.TID 0000.0001) %MON DXC_mean                     =   2.0071162755307E+01
(PID.TID 0000.0001) %MON DXC_sd                       =   9.4906528979627E+00
(PID.TID 0000.0001) %MON DXF_max                      =   3.9520367734344E+01
(PID.TID 0000.0001) %MON DXF_min                      =   1.3333505578430E+01
(PID.TID 0000.0001) %MON DXF_mean                     =   2.0071162755307E+01
(PID.TID 0000.0001) %MON DXF_sd                       =   9.5190787885357E+00
(PID.TID 0000.0001) %MON DXG_max                      =   3.9520367734344E+01
(PID.TID 0000.0001) %MON DXG_min                      =   1.3333505578430E+01
(PID.TID 0000.0001) %MON DXG_mean                     =   2.0071162755307E+01
(PID.TID 0000.0001) %MON DXG_sd                       =   9.5190787885357E+00
(PID.TID 0000.0001) %MON DXV_max                      =   3.9508304374678E+01
(PID.TID 0000.0001) %MON DXV_min                      =   1.3333509993998E+01
(PID.TID 0000.0001) %MON DXV_mean                     =   2.0071162755307E+01
(PID.TID 0000.0001) %MON DXV_sd                       =   9.4906528979627E+00
(PID.TID 0000.0001) %MON YC_max                       =   1.0000000000000E+02
(PID.TID 0000.0001) %MON YC_min                       =   1.0000000000000E+02
(PID.TID 0000.0001) %MON YC_mean                      =   1.0000000000000E+02
(PID.TID 0000.0001) %MON YC_sd                        =   0.0000000000000E+00
(PID.TID 0000.0001) %MON YG_max                       =   0.0000000000000E+00
(PID.TID 0000.0001) %MON YG_min                       =   0.0000000000000E+00
(PID.TID 0000.0001) %MON YG_mean                      =   0.0000000000000E+00
(PID.TID 0000.0001) %MON YG_sd                        =   0.0000000000000E+00
(PID.TID 0000.0001) %MON DYC_max                      =   2.0000000000000E+02
(PID.TID 0000.0001) %MON DYC_min                      =   2.0000000000000E+02
(PID.TID 0000.0001) %MON DYC_mean                     =   2.0000000000000E+02
(PID.TID 0000.0001) %MON DYC_sd                       =   0.0000000000000E+00
(PID.TID 0000.0001) %MON DYF_max                      =   2.0000000000000E+02
(PID.TID 0000.0001) %MON DYF_min                      =   2.0000000000000E+02
(PID.TID 0000.0001) %MON DYF_mean                     =   2.0000000000000E+02
(PID.TID 0000.0001) %MON DYF_sd                       =   0.0000000000000E+00
(PID.TID 0000.0001) %MON DYG_max                      =   2.0000000000000E+02
(PID.TID 0000.0001) %MON DYG_min                      =   2.0000000000000E+02
(PID.TID 0000.0001) %MON DYG_mean                     =   2.0000000000000E+02
(PID.TID 0000.0001) %MON DYG_sd                       =   0.0000000000000E+00
(PID.TID 0000.0001) %MON DYU_max                      =   2.0000000000000E+02
(PID.TID 0000.0001) %MON DYU_min                      =   2.0000000000000E+02
(PID.TID 0000.0001) %MON DYU_mean                     =   2.0000000000000E+02
(PID.TID 0000.0001) %MON DYU_sd                       =   0.0000000000000E+00
(PID.TID 0000.0001) %MON RA_max                       =   7.9040735468688E+03
(PID.TID 0000.0001) %MON RA_min                       =   2.6667011156861E+03
(PID.TID 0000.0001) %MON RA_mean                      =   4.0142325510614E+03
(PID.TID 0000.0001) %MON RA_sd                        =   1.9038157577071E+03
(PID.TID 0000.0001) %MON RAW_max                      =   7.9016608749357E+03
(PID.TID 0000.0001) %MON RAW_min                      =   2.6667019987996E+03
(PID.TID 0000.0001) %MON RAW_mean                     =   4.0142325510614E+03
(PID.TID 0000.0001) %MON RAW_sd                       =   1.8981305795925E+03
(PID.TID 0000.0001) %MON RAS_max                      =   7.9040735468688E+03
(PID.TID 0000.0001) %MON RAS_min                      =   2.6667011156861E+03
(PID.TID 0000.0001) %MON RAS_mean                     =   4.0142325510614E+03
(PID.TID 0000.0001) %MON RAS_sd                       =   1.9038157577071E+03
(PID.TID 0000.0001) %MON RAZ_max                      =   7.9016608749357E+03
(PID.TID 0000.0001) %MON RAZ_min                      =   2.6667019987996E+03
(PID.TID 0000.0001) %MON RAZ_mean                     =   4.0142325510614E+03
(PID.TID 0000.0001) %MON RAZ_sd                       =   1.8981305795925E+03
(PID.TID 0000.0001) %MON AngleCS_max                  =   1.0000000000000E+00
(PID.TID 0000.0001) %MON AngleCS_min                  =   1.0000000000000E+00
(PID.TID 0000.0001) %MON AngleCS_mean                 =   1.0000000000000E+00
(PID.TID 0000.0001) %MON AngleCS_sd                   =   0.0000000000000E+00
(PID.TID 0000.0001) %MON AngleSN_max                  =   0.0000000000000E+00
(PID.TID 0000.0001) %MON AngleSN_min                  =   0.0000000000000E+00
(PID.TID 0000.0001) %MON AngleSN_mean                 =   0.0000000000000E+00
(PID.TID 0000.0001) %MON AngleSN_sd                   =   0.0000000000000E+00
(PID.TID 0000.0001)  MDSREADFIELD: opening global file: topog.slope
  Calling plot field 1
(PID.TID 0000.0001) // =======================================================
(PID.TID 0000.0001) // Field Bottom depths (ini_depths) at iteration          1
(PID.TID 0000.0001) // CMIN =         -1.999999967446850E+02
(PID.TID 0000.0001) // CMAX =         -4.030068084778270E+01
(PID.TID 0000.0001) // CINT =          5.914789477663049E+00
(PID.TID 0000.0001) // SYMBOLS (CMIN->CMAX): -abcdefghijklmnopqrstuvwxyz+
(PID.TID 0000.0001) //                  0.0: .
(PID.TID 0000.0001) // RANGE I (Lo:Hi:Step):(  -2: 323:   1)
(PID.TID 0000.0001) // RANGE J (Lo:Hi:Step):(   4:  -2:  -1)
(PID.TID 0000.0001) // RANGE K (Lo:Hi:Step):(   1:   1:   1)
(PID.TID 0000.0001) // =======================================================
(PID.TID 0000.0001) K =   1
(PID.TID 0000.0001) //                I=7       I=17      I=27      I=37      I=47      I=57      I=67      I=77      I=87      I=97      I=107     I=117     I=127     I=137     I=147     I=157     I=161     I=171     I=181     I=191     I=201     I=211     I=221     I=231     I=241     I=251     I=261     I=271     I=281     I=291     I=301     I=311     I=321
(PID.TID 0000.0001) // |--J--|**0123456|890123456|890123456|890123456|890123456|890123456|890123456|890123456|890123456|890123456|890123456|890123456|890123456|890123456|890123456|890123456|890123890|234567890|234567890|234567890|234567890|234567890|234567890|234567890|234567890|234567890|234567890|234567890|234567890|234567890|234567890|234567890|234567890|23
(PID.TID 0000.0001) //      4 ---.+++++++++++++++++++++++++++++++++++++++++++++++++zzzzzzzzzzzzzzzzzzzzzyyyyyyyyyyyxxxxxxxwwwwwwvvvvvuuuuttttsssrrrrqqqpppooonnnmmmlllkkkjjjiiihhhhggggffffeeeeeddddeedddddcccccccbbbbbbbbbbbaaaaaaaaaaaaaaaaaaa-----------------------------------------------------------------------------------------------------------------------.++
(PID.TID 0000.0001) //      3 ---.+++++++++++++++++++++++++++++++++++++++++++++++++zzzzzzzzzzzzzzzzzzzzzyyyyyyyyyyyxxxxxxxwwwwwwvvvvvuuuuttttsssrrrrqqqpppooonnnmmmlllkkkjjjiiihhhhggggffffeeeeeddddeedddddcccccccbbbbbbbbbbbaaaaaaaaaaaaaaaaaaa-----------------------------------------------------------------------------------------------------------------------.++
(PID.TID 0000.0001) //      2 ---.+++++++++++++++++++++++++++++++++++++++++++++++++zzzzzzzzzzzzzzzzzzzzzyyyyyyyyyyyxxxxxxxwwwwwwvvvvvuuuuttttsssrrrrqqqpppooonnnmmmlllkkkjjjiiihhhhggggffffeeeeeddddeedddddcccccccbbbbbbbbbbbaaaaaaaaaaaaaaaaaaa-----------------------------------------------------------------------------------------------------------------------.++
(PID.TID 0000.0001) //      1 ---.+++++++++++++++++++++++++++++++++++++++++++++++++zzzzzzzzzzzzzzzzzzzzzyyyyyyyyyyyxxxxxxxwwwwwwvvvvvuuuuttttsssrrrrqqqpppooonnnmmmlllkkkjjjiiihhhhggggffffeeeeeddddeedddddcccccccbbbbbbbbbbbaaaaaaaaaaaaaaaaaaa-----------------------------------------------------------------------------------------------------------------------.++
(PID.TID 0000.0001) //      0 ---.+++++++++++++++++++++++++++++++++++++++++++++++++zzzzzzzzzzzzzzzzzzzzzyyyyyyyyyyyxxxxxxxwwwwwwvvvvvuuuuttttsssrrrrqqqpppooonnnmmmlllkkkjjjiiihhhhggggffffeeeeeddddeedddddcccccccbbbbbbbbbbbaaaaaaaaaaaaaaaaaaa-----------------------------------------------------------------------------------------------------------------------.++
(PID.TID 0000.0001) //     -1 ---.+++++++++++++++++++++++++++++++++++++++++++++++++zzzzzzzzzzzzzzzzzzzzzyyyyyyyyyyyxxxxxxxwwwwwwvvvvvuuuuttttsssrrrrqqqpppooonnnmmmlllkkkjjjiiihhhhggggffffeeeeeddddeedddddcccccccbbbbbbbbbbbaaaaaaaaaaaaaaaaaaa-----------------------------------------------------------------------------------------------------------------------.++
(PID.TID 0000.0001) //     -2 ---.+++++++++++++++++++++++++++++++++++++++++++++++++zzzzzzzzzzzzzzzzzzzzzyyyyyyyyyyyxxxxxxxwwwwwwvvvvvuuuuttttsssrrrrqqqpppooonnnmmmlllkkkjjjiiihhhhggggffffeeeeeddddeedddddcccccccbbbbbbbbbbbaaaaaaaaaaaaaaaaaaa-----------------------------------------------------------------------------------------------------------------------.++
(PID.TID 0000.0001) // =======================================================
(PID.TID 0000.0001) // END OF FIELD                                          =
(PID.TID 0000.0001) // =======================================================
(PID.TID 0000.0001) 
(PID.TID 0000.0001) // =======================================================
(PID.TID 0000.0001) // Field Model R_low (ini_masks_etc) at iteration          1
(PID.TID 0000.0001) // CMIN =         -1.999999967446850E+02
(PID.TID 0000.0001) // CMAX =         -4.030068084778270E+01
(PID.TID 0000.0001) // CINT =          5.914789477663049E+00
(PID.TID 0000.0001) // SYMBOLS (CMIN->CMAX): -abcdefghijklmnopqrstuvwxyz+
(PID.TID 0000.0001) //                  0.0: .
(PID.TID 0000.0001) // RANGE I (Lo:Hi:Step):(  -2: 323:   1)
(PID.TID 0000.0001) // RANGE J (Lo:Hi:Step):(   4:  -2:  -1)
(PID.TID 0000.0001) // RANGE K (Lo:Hi:Step):(   1:   1:   1)
(PID.TID 0000.0001) // =======================================================
(PID.TID 0000.0001) K =   1
(PID.TID 0000.0001) //                I=7       I=17      I=27      I=37      I=47      I=57      I=67      I=77      I=87      I=97      I=107     I=117     I=127     I=137     I=147     I=157     I=161     I=171     I=181     I=191     I=201     I=211     I=221     I=231     I=241     I=251     I=261     I=271     I=281     I=291     I=301     I=311     I=321
(PID.TID 0000.0001) // |--J--|**0123456|890123456|890123456|890123456|890123456|890123456|890123456|890123456|890123456|890123456|890123456|890123456|890123456|890123456|890123456|890123456|890123890|234567890|234567890|234567890|234567890|234567890|234567890|234567890|234567890|234567890|234567890|234567890|234567890|234567890|234567890|234567890|234567890|23
(PID.TID 0000.0001) //      4 ---.+++++++++++++++++++++++++++++++++++++++++++++++++zzzzzzzzzzzzzzzzzzzzzyyyyyyyyyyyxxxxxxxwwwwwwvvvvvuuuuttttsssrrrrqqqpppooonnnmmmlllkkkjjjiiihhhhggggffffeeeeeddddeedddddcccccccbbbbbbbbbbbaaaaaaaaaaaaaaaaaaa-----------------------------------------------------------------------------------------------------------------------.++
(PID.TID 0000.0001) //      3 ---.+++++++++++++++++++++++++++++++++++++++++++++++++zzzzzzzzzzzzzzzzzzzzzyyyyyyyyyyyxxxxxxxwwwwwwvvvvvuuuuttttsssrrrrqqqpppooonnnmmmlllkkkjjjiiihhhhggggffffeeeeeddddeedddddcccccccbbbbbbbbbbbaaaaaaaaaaaaaaaaaaa-----------------------------------------------------------------------------------------------------------------------.++
(PID.TID 0000.0001) //      2 ---.+++++++++++++++++++++++++++++++++++++++++++++++++zzzzzzzzzzzzzzzzzzzzzyyyyyyyyyyyxxxxxxxwwwwwwvvvvvuuuuttttsssrrrrqqqpppooonnnmmmlllkkkjjjiiihhhhggggffffeeeeeddddeedddddcccccccbbbbbbbbbbbaaaaaaaaaaaaaaaaaaa-----------------------------------------------------------------------------------------------------------------------.++
(PID.TID 0000.0001) //      1 ---.+++++++++++++++++++++++++++++++++++++++++++++++++zzzzzzzzzzzzzzzzzzzzzyyyyyyyyyyyxxxxxxxwwwwwwvvvvvuuuuttttsssrrrrqqqpppooonnnmmmlllkkkjjjiiihhhhggggffffeeeeeddddeedddddcccccccbbbbbbbbbbbaaaaaaaaaaaaaaaaaaa-----------------------------------------------------------------------------------------------------------------------.++
(PID.TID 0000.0001) //      0 ---.+++++++++++++++++++++++++++++++++++++++++++++++++zzzzzzzzzzzzzzzzzzzzzyyyyyyyyyyyxxxxxxxwwwwwwvvvvvuuuuttttsssrrrrqqqpppooonnnmmmlllkkkjjjiiihhhhggggffffeeeeeddddeedddddcccccccbbbbbbbbbbbaaaaaaaaaaaaaaaaaaa-----------------------------------------------------------------------------------------------------------------------.++
(PID.TID 0000.0001) //     -1 ---.+++++++++++++++++++++++++++++++++++++++++++++++++zzzzzzzzzzzzzzzzzzzzzyyyyyyyyyyyxxxxxxxwwwwwwvvvvvuuuuttttsssrrrrqqqpppooonnnmmmlllkkkjjjiiihhhhggggffffeeeeeddddeedddddcccccccbbbbbbbbbbbaaaaaaaaaaaaaaaaaaa-----------------------------------------------------------------------------------------------------------------------.++
(PID.TID 0000.0001) //     -2 ---.+++++++++++++++++++++++++++++++++++++++++++++++++zzzzzzzzzzzzzzzzzzzzzyyyyyyyyyyyxxxxxxxwwwwwwvvvvvuuuuttttsssrrrrqqqpppooonnnmmmlllkkkjjjiiihhhhggggffffeeeeeddddeedddddcccccccbbbbbbbbbbbaaaaaaaaaaaaaaaaaaa-----------------------------------------------------------------------------------------------------------------------.++
(PID.TID 0000.0001) // =======================================================
(PID.TID 0000.0001) // END OF FIELD                                          =
(PID.TID 0000.0001) // =======================================================
(PID.TID 0000.0001) 
(PID.TID 0000.0001) // =======================================================
(PID.TID 0000.0001) // Field Model Ro_surf (ini_masks_etc) at iteration          1
(PID.TID 0000.0001) // CMIN =         -1.332267629550188E-14
(PID.TID 0000.0001) // CMAX =          1.509903313490213E-14
(PID.TID 0000.0001) // CINT =          1.052655904829778E-15
(PID.TID 0000.0001) // SYMBOLS (CMIN->CMAX): -abcdefghijklmnopqrstuvwxyz+
(PID.TID 0000.0001) //                  0.0: .
(PID.TID 0000.0001) // RANGE I (Lo:Hi:Step):(  -2: 323:   1)
(PID.TID 0000.0001) // RANGE J (Lo:Hi:Step):(   4:  -2:  -1)
(PID.TID 0000.0001) // RANGE K (Lo:Hi:Step):(   1:   1:   1)
(PID.TID 0000.0001) // =======================================================
(PID.TID 0000.0001) K =   1
(PID.TID 0000.0001) //                I=7       I=17      I=27      I=37      I=47      I=57      I=67      I=77      I=87      I=97      I=107     I=117     I=127     I=137     I=147     I=157     I=161     I=171     I=181     I=191     I=201     I=211     I=221     I=231     I=241     I=251     I=261     I=271     I=281     I=291     I=301     I=311     I=321
(PID.TID 0000.0001) // |--J--|**0123456|890123456|890123456|890123456|890123456|890123456|890123456|890123456|890123456|890123456|890123456|890123456|890123456|890123456|890123456|890123456|890123890|234567890|234567890|234567890|234567890|234567890|234567890|234567890|234567890|234567890|234567890|234567890|234567890|234567890|234567890|234567890|234567890|23
(PID.TID 0000.0001) //      4 ---.nnnnnnnnnnnnnnnnnnnnnnnnnnnnnnnnnnnnnnngggggggggggnnnnnnnnnggggnnnnnngggnnnnggnnnggnnggnnggnnn++n+nn+n+n+nnnnnnn+n+n+nnnn+n+nn+n+nn+----+-------------+----+--+--+--+--+-------+----+-----+-------++------------++++-----------------------------------------------------------------------------------------------------------------.nn
(PID.TID 0000.0001) //      3 ---.nnnnnnnnnnnnnnnnnnnnnnnnnnnnnnnnnnnnnnngggggggggggnnnnnnnnnggggnnnnnngggnnnnggnnnggnnggnnggnnn++n+nn+n+n+nnnnnnn+n+n+nnnn+n+nn+n+nn+----+-------------+----+--+--+--+--+-------+----+-----+-------++------------++++-----------------------------------------------------------------------------------------------------------------.nn
(PID.TID 0000.0001) //      2 ---.nnnnnnnnnnnnnnnnnnnnnnnnnnnnnnnnnnnnnnngggggggggggnnnnnnnnnggggnnnnnngggnnnnggnnnggnnggnnggnnn++n+nn+n+n+nnnnnnn+n+n+nnnn+n+nn+n+nn+----+-------------+----+--+--+--+--+-------+----+-----+-------++------------++++-----------------------------------------------------------------------------------------------------------------.nn
(PID.TID 0000.0001) //      1 ---.nnnnnnnnnnnnnnnnnnnnnnnnnnnnnnnnnnnnnnngggggggggggnnnnnnnnnggggnnnnnngggnnnnggnnnggnnggnnggnnn++n+nn+n+n+nnnnnnn+n+n+nnnn+n+nn+n+nn+----+-------------+----+--+--+--+--+-------+----+-----+-------++------------++++-----------------------------------------------------------------------------------------------------------------.nn
(PID.TID 0000.0001) //      0 ---.nnnnnnnnnnnnnnnnnnnnnnnnnnnnnnnnnnnnnnngggggggggggnnnnnnnnnggggnnnnnngggnnnnggnnnggnnggnnggnnn++n+nn+n+n+nnnnnnn+n+n+nnnn+n+nn+n+nn+----+-------------+----+--+--+--+--+-------+----+-----+-------++------------++++-----------------------------------------------------------------------------------------------------------------.nn
(PID.TID 0000.0001) //     -1 ---.nnnnnnnnnnnnnnnnnnnnnnnnnnnnnnnnnnnnnnngggggggggggnnnnnnnnnggggnnnnnngggnnnnggnnnggnnggnnggnnn++n+nn+n+n+nnnnnnn+n+n+nnnn+n+nn+n+nn+----+-------------+----+--+--+--+--+-------+----+-----+-------++------------++++-----------------------------------------------------------------------------------------------------------------.nn
(PID.TID 0000.0001) //     -2 ---.nnnnnnnnnnnnnnnnnnnnnnnnnnnnnnnnnnnnnnngggggggggggnnnnnnnnnggggnnnnnngggnnnnggnnnggnnggnnggnnn++n+nn+n+n+nnnnnnn+n+n+nnnn+n+nn+n+nn+----+-------------+----+--+--+--+--+-------+----+-----+-------++------------++++-----------------------------------------------------------------------------------------------------------------.nn
(PID.TID 0000.0001) // =======================================================
(PID.TID 0000.0001) // END OF FIELD                                          =
(PID.TID 0000.0001) // =======================================================
(PID.TID 0000.0001) 
(PID.TID 0000.0001) // =======================================================
(PID.TID 0000.0001) // Field hFacC at iteration          1
(PID.TID 0000.0001) // CMIN =          1.000000000000000E+00
(PID.TID 0000.0001) // CMAX =          1.000000000000000E+00
(PID.TID 0000.0001) // CINT =          0.000000000000000E+00
(PID.TID 0000.0001) // SYMBOLS (CMIN->CMAX): -abcdefghijklmnopqrstuvwxyz+
(PID.TID 0000.0001) //                  0.0: .
(PID.TID 0000.0001) // RANGE I (Lo:Hi:Step):(  -2: 323:   1)
(PID.TID 0000.0001) // RANGE J (Lo:Hi:Step):(   4:  -2:  -1)
(PID.TID 0000.0001) // RANGE K (Lo:Hi:Step):(   1:   1:   1)
(PID.TID 0000.0001) // =======================================================
(PID.TID 0000.0001) // =======================================================
(PID.TID 0000.0001) // END OF FIELD                                          =
(PID.TID 0000.0001) // =======================================================
(PID.TID 0000.0001) 
(PID.TID 0000.0001) // =======================================================
(PID.TID 0000.0001) // Field hFacW at iteration          1
(PID.TID 0000.0001) // CMIN =          1.000000000000000E+00
(PID.TID 0000.0001) // CMAX =          1.000000000000000E+00
(PID.TID 0000.0001) // CINT =          0.000000000000000E+00
(PID.TID 0000.0001) // SYMBOLS (CMIN->CMAX): -abcdefghijklmnopqrstuvwxyz+
(PID.TID 0000.0001) //                  0.0: .
(PID.TID 0000.0001) // RANGE I (Lo:Hi:Step):(  -2: 323:   1)
(PID.TID 0000.0001) // RANGE J (Lo:Hi:Step):(   4:  -2:  -1)
(PID.TID 0000.0001) // RANGE K (Lo:Hi:Step):(   1:   1:   1)
(PID.TID 0000.0001) // =======================================================
(PID.TID 0000.0001) // =======================================================
(PID.TID 0000.0001) // END OF FIELD                                          =
(PID.TID 0000.0001) // =======================================================
(PID.TID 0000.0001) 
(PID.TID 0000.0001) // =======================================================
(PID.TID 0000.0001) // Field hFacS at iteration          1
(PID.TID 0000.0001) // CMIN =          1.000000000000000E+00
(PID.TID 0000.0001) // CMAX =          1.000000000000000E+00
(PID.TID 0000.0001) // CINT =          0.000000000000000E+00
(PID.TID 0000.0001) // SYMBOLS (CMIN->CMAX): -abcdefghijklmnopqrstuvwxyz+
(PID.TID 0000.0001) //                  0.0: .
(PID.TID 0000.0001) // RANGE I (Lo:Hi:Step):(  -2: 323:   1)
(PID.TID 0000.0001) // RANGE J (Lo:Hi:Step):(   4:  -2:  -1)
(PID.TID 0000.0001) // RANGE K (Lo:Hi:Step):(   1:   1:   1)
(PID.TID 0000.0001) // =======================================================
(PID.TID 0000.0001) // =======================================================
(PID.TID 0000.0001) // END OF FIELD                                          =
(PID.TID 0000.0001) // =======================================================
(PID.TID 0000.0001) 
(PID.TID 0000.0001) 
(PID.TID 0000.0001) // ===================================
(PID.TID 0000.0001) // GAD parameters :
(PID.TID 0000.0001) // ===================================
(PID.TID 0000.0001) tempAdvScheme =   /* Temp. Horiz.Advection scheme selector */
(PID.TID 0000.0001)                      33
(PID.TID 0000.0001)     ;
(PID.TID 0000.0001) tempVertAdvScheme =   /* Temp. Vert. Advection scheme selector */
(PID.TID 0000.0001)                      33
(PID.TID 0000.0001)     ;
(PID.TID 0000.0001) tempMultiDimAdvec =   /* use Muti-Dim Advec method for Temp */
(PID.TID 0000.0001)                   T
(PID.TID 0000.0001)     ;
(PID.TID 0000.0001) AdamsBashforthGt =   /* apply Adams-Bashforth extrapolation on Gt */
(PID.TID 0000.0001)                   F
(PID.TID 0000.0001)     ;
(PID.TID 0000.0001) AdamsBashforth_T =   /* apply Adams-Bashforth extrapolation on Temp */
(PID.TID 0000.0001)                   F
(PID.TID 0000.0001)     ;
(PID.TID 0000.0001) saltAdvScheme =   /* Salt. Horiz.advection scheme selector */
(PID.TID 0000.0001)                       2
(PID.TID 0000.0001)     ;
(PID.TID 0000.0001) saltVertAdvScheme =   /* Salt. Vert. Advection scheme selector */
(PID.TID 0000.0001)                       2
(PID.TID 0000.0001)     ;
(PID.TID 0000.0001) saltMultiDimAdvec =   /* use Muti-Dim Advec method for Salt */
(PID.TID 0000.0001)                   F
(PID.TID 0000.0001)     ;
(PID.TID 0000.0001) AdamsBashforthGs =   /* apply Adams-Bashforth extrapolation on Gs */
(PID.TID 0000.0001)                   T
(PID.TID 0000.0001)     ;
(PID.TID 0000.0001) AdamsBashforth_S =   /* apply Adams-Bashforth extrapolation on Salt */
(PID.TID 0000.0001)                   F
(PID.TID 0000.0001)     ;
(PID.TID 0000.0001) // ===================================
(PID.TID 0000.0001) OBCS_CHECK: #define ALLOW_OBCS
(PID.TID 0000.0001) OBCS_CHECK: #define ALLOW_ORLANSKI
(PID.TID 0000.0001) OBCS_CHECK: OK
(PID.TID 0000.0001) %MON fCori_max                    =   0.0000000000000E+00
(PID.TID 0000.0001) %MON fCori_min                    =   0.0000000000000E+00
(PID.TID 0000.0001) %MON fCori_mean                   =   0.0000000000000E+00
(PID.TID 0000.0001) %MON fCori_sd                     =   0.0000000000000E+00
(PID.TID 0000.0001) %MON fCoriG_max                   =   0.0000000000000E+00
(PID.TID 0000.0001) %MON fCoriG_min                   =   0.0000000000000E+00
(PID.TID 0000.0001) %MON fCoriG_mean                  =   0.0000000000000E+00
(PID.TID 0000.0001) %MON fCoriG_sd                    =   0.0000000000000E+00
(PID.TID 0000.0001) %MON fCoriCos_max                 =   0.0000000000000E+00
(PID.TID 0000.0001) %MON fCoriCos_min                 =   0.0000000000000E+00
(PID.TID 0000.0001) %MON fCoriCos_mean                =   0.0000000000000E+00
(PID.TID 0000.0001) %MON fCoriCos_sd                  =   0.0000000000000E+00
(PID.TID 0000.0001) INI_CG2D: CG2D normalisation factor =  3.8311188275726068E-04
(PID.TID 0000.0001) 
(PID.TID 0000.0001) // CG3D normalisation factor =          0.4217234712667640981510753E-03
(PID.TID 0000.0001) 
(PID.TID 0000.0001) CONFIG_CHECK: OK
(PID.TID 0000.0001) // =======================================================
(PID.TID 0000.0001) // Model configuration
(PID.TID 0000.0001) // =======================================================
(PID.TID 0000.0001) //
(PID.TID 0000.0001) // "Physical" paramters ( PARM01 in namelist )
(PID.TID 0000.0001) //
(PID.TID 0000.0001) buoyancyRelation = OCEANIC
(PID.TID 0000.0001) fluidIsAir  =  /* fluid major constituent is Air */
(PID.TID 0000.0001)                   F
(PID.TID 0000.0001)     ;
(PID.TID 0000.0001) fluidIsWater=  /* fuild major constituent is Water */
(PID.TID 0000.0001)                   T
(PID.TID 0000.0001)     ;
(PID.TID 0000.0001) usingPCoords =  /* use p (or p*) vertical coordinate */
(PID.TID 0000.0001)                   F
(PID.TID 0000.0001)     ;
(PID.TID 0000.0001) usingZCoords =  /* use z (or z*) vertical coordinate */
(PID.TID 0000.0001)                   T
(PID.TID 0000.0001)     ;
(PID.TID 0000.0001) tRef =   /* Reference temperature profile ( oC or oK ) */
(PID.TID 0000.0001)    60 @  1.000000000000000E+00              /* K =  1: 60 */
(PID.TID 0000.0001)     ;
(PID.TID 0000.0001) sRef =   /* Reference salinity profile ( ppt ) */
(PID.TID 0000.0001)    60 @  3.500000000000000E+01              /* K =  1: 60 */
(PID.TID 0000.0001)     ;
(PID.TID 0000.0001) viscAh =   /* Lateral eddy viscosity ( m^2/s ) */
(PID.TID 0000.0001)                 1.000000000000000E-02
(PID.TID 0000.0001)     ;
(PID.TID 0000.0001) viscAhMax =   /* Maximum lateral eddy viscosity ( m^2/s ) */
(PID.TID 0000.0001)                 1.000000000000000E+21
(PID.TID 0000.0001)     ;
(PID.TID 0000.0001) viscAhGrid =   /* Grid dependent lateral eddy viscosity ( non-dim. ) */
(PID.TID 0000.0001)                 0.000000000000000E+00
(PID.TID 0000.0001)     ;
(PID.TID 0000.0001) useFullLeith =   /* Use Full Form of Leith Viscosity on/off flag*/
(PID.TID 0000.0001)                   F
(PID.TID 0000.0001)     ;
(PID.TID 0000.0001) useStrainTensionVisc =   /* Use StrainTension Form of Viscous Operator on/off flag*/
(PID.TID 0000.0001)                   F
(PID.TID 0000.0001)     ;
(PID.TID 0000.0001) useAreaViscLength =   /* Use area for visc length instead of geom. mean*/
(PID.TID 0000.0001)                   F
(PID.TID 0000.0001)     ;
(PID.TID 0000.0001) viscC2leith = /* Leith harmonic visc. factor (on grad(vort),non-dim.) */
(PID.TID 0000.0001)                 0.000000000000000E+00
(PID.TID 0000.0001)     ;
(PID.TID 0000.0001) viscC2leithD = /* Leith harmonic viscosity factor (on grad(div),non-dim.) */
(PID.TID 0000.0001)                 0.000000000000000E+00
(PID.TID 0000.0001)     ;
(PID.TID 0000.0001) viscC2smag =   /* Smagorinsky harmonic viscosity factor (non-dim.) */
(PID.TID 0000.0001)                 0.000000000000000E+00
(PID.TID 0000.0001)     ;
(PID.TID 0000.0001) viscA4 =   /* Lateral biharmonic viscosity ( m^4/s ) */
(PID.TID 0000.0001)                 0.000000000000000E+00
(PID.TID 0000.0001)     ;
(PID.TID 0000.0001) viscA4Max =   /* Maximum biharmonic viscosity ( m^2/s ) */
(PID.TID 0000.0001)                 1.000000000000000E+21
(PID.TID 0000.0001)     ;
(PID.TID 0000.0001) viscA4Grid =   /* Grid dependent biharmonic viscosity ( non-dim. ) */
(PID.TID 0000.0001)                 0.000000000000000E+00
(PID.TID 0000.0001)     ;
(PID.TID 0000.0001) viscC4leith = /* Leith biharm viscosity factor (on grad(vort), non-dim.) */
(PID.TID 0000.0001)                 0.000000000000000E+00
(PID.TID 0000.0001)     ;
(PID.TID 0000.0001) viscC4leithD = /* Leith biharm viscosity factor (on grad(div), non-dim.) */
(PID.TID 0000.0001)                 0.000000000000000E+00
(PID.TID 0000.0001)     ;
(PID.TID 0000.0001) viscC4Smag = /* Smagorinsky biharm viscosity factor (non-dim) */
(PID.TID 0000.0001)                 0.000000000000000E+00
(PID.TID 0000.0001)     ;
(PID.TID 0000.0001) no_slip_sides =  /* Viscous BCs: No-slip sides */
(PID.TID 0000.0001)                   T
(PID.TID 0000.0001)     ;
(PID.TID 0000.0001) sideDragFactor = /* side-drag scaling factor (non-dim) */
(PID.TID 0000.0001)                 2.000000000000000E+00
(PID.TID 0000.0001)     ;
(PID.TID 0000.0001) viscAr =   /* Vertical eddy viscosity ( units of r^2/s ) */
(PID.TID 0000.0001)                 1.000000000000000E-03
(PID.TID 0000.0001)     ;
(PID.TID 0000.0001) no_slip_bottom =  /* Viscous BCs: No-slip bottom */
(PID.TID 0000.0001)                   T
(PID.TID 0000.0001)     ;
(PID.TID 0000.0001) bottomDragLinear = /* linear bottom-drag coefficient ( 1/s ) */
(PID.TID 0000.0001)                 0.000000000000000E+00
(PID.TID 0000.0001)     ;
(PID.TID 0000.0001) bottomDragQuadratic = /* quadratic bottom-drag coeff. ( 1/m ) */
(PID.TID 0000.0001)                 0.000000000000000E+00
(PID.TID 0000.0001)     ;
(PID.TID 0000.0001) diffKhT =   /* Laplacian diffusion of heat laterally ( m^2/s ) */
(PID.TID 0000.0001)                 0.000000000000000E+00
(PID.TID 0000.0001)     ;
(PID.TID 0000.0001) diffK4T =   /* Bihaarmonic diffusion of heat laterally ( m^4/s ) */
(PID.TID 0000.0001)                 0.000000000000000E+00
(PID.TID 0000.0001)     ;
(PID.TID 0000.0001) diffKhS =   /* Laplacian diffusion of salt laterally ( m^2/s ) */
(PID.TID 0000.0001)                 1.000000000000000E-02
(PID.TID 0000.0001)     ;
(PID.TID 0000.0001) diffK4S =   /* Bihaarmonic diffusion of salt laterally ( m^4/s ) */
(PID.TID 0000.0001)                 0.000000000000000E+00
(PID.TID 0000.0001)     ;
(PID.TID 0000.0001) diffKrNrT = /* vertical profile of vertical diffusion of Temp ( m^2/s )*/
(PID.TID 0000.0001)    60 @  0.000000000000000E+00              /* K =  1: 60 */
(PID.TID 0000.0001)     ;
(PID.TID 0000.0001) diffKrNrS = /* vertical profile of vertical diffusion of Salt ( m^2/s )*/
(PID.TID 0000.0001)    60 @  1.000000000000000E-05              /* K =  1: 60 */
(PID.TID 0000.0001)     ;
(PID.TID 0000.0001) diffKrBL79surf =   /* Surface diffusion for Bryan and Lewis 1979 ( m^2/s ) */
(PID.TID 0000.0001)                 0.000000000000000E+00
(PID.TID 0000.0001)     ;
(PID.TID 0000.0001) diffKrBL79deep =   /* Deep diffusion for Bryan and Lewis 1979 ( m^2/s ) */
(PID.TID 0000.0001)                 0.000000000000000E+00
(PID.TID 0000.0001)     ;
(PID.TID 0000.0001) diffKrBL79scl =   /* Depth scale for Bryan and Lewis 1979 ( m ) */
(PID.TID 0000.0001)                 2.000000000000000E+02
(PID.TID 0000.0001)     ;
(PID.TID 0000.0001) diffKrBL79Ho =   /* Turning depth for Bryan and Lewis 1979 ( m ) */
(PID.TID 0000.0001)                -2.000000000000000E+03
(PID.TID 0000.0001)     ;
(PID.TID 0000.0001)  Equation of State : eosType = LINEAR
(PID.TID 0000.0001) tAlpha =   /* Linear EOS thermal expansion coefficient ( 1/degree ) */
(PID.TID 0000.0001)                 2.000000000000000E-04
(PID.TID 0000.0001)     ;
(PID.TID 0000.0001) sBeta =   /* Linear EOS haline contraction coefficient ( 1/ppt ) */
(PID.TID 0000.0001)                 0.000000000000000E+00
(PID.TID 0000.0001)     ;
(PID.TID 0000.0001) rhonil =   /* Reference density ( kg/m^3 ) */
(PID.TID 0000.0001)                 9.998000000000000E+02
(PID.TID 0000.0001)     ;
(PID.TID 0000.0001) rhoConst =   /* Reference density ( kg/m^3 ) */
(PID.TID 0000.0001)                 9.998000000000000E+02
(PID.TID 0000.0001)     ;
(PID.TID 0000.0001) rhoConstFresh =   /* Reference density ( kg/m^3 ) */
(PID.TID 0000.0001)                 9.998000000000000E+02
(PID.TID 0000.0001)     ;
(PID.TID 0000.0001) gravity =   /* Gravitational acceleration ( m/s^2 ) */
(PID.TID 0000.0001)                 9.810000000000000E+00
(PID.TID 0000.0001)     ;
(PID.TID 0000.0001) gBaro =   /* Barotropic gravity ( m/s^2 ) */
(PID.TID 0000.0001)                 9.810000000000000E+00
(PID.TID 0000.0001)     ;
(PID.TID 0000.0001) rotationPeriod =   /* Rotation Period ( s ) */
(PID.TID 0000.0001)                 8.640000000000000E+04
(PID.TID 0000.0001)     ;
(PID.TID 0000.0001) omega =   /* Angular velocity ( rad/s ) */
(PID.TID 0000.0001)                 7.272205216643040E-05
(PID.TID 0000.0001)     ;
(PID.TID 0000.0001) f0 =   /* Reference coriolis parameter ( 1/s ) */
(PID.TID 0000.0001)                 0.000000000000000E+00
(PID.TID 0000.0001)     ;
(PID.TID 0000.0001) beta =   /* Beta ( 1/(m.s) ) */
(PID.TID 0000.0001)                 0.000000000000000E+00
(PID.TID 0000.0001)     ;
(PID.TID 0000.0001) freeSurfFac =   /* Implicit free surface factor */
(PID.TID 0000.0001)                 1.000000000000000E+00
(PID.TID 0000.0001)     ;
(PID.TID 0000.0001) implicitFreeSurface =   /* Implicit free surface on/off flag */
(PID.TID 0000.0001)                   T
(PID.TID 0000.0001)     ;
(PID.TID 0000.0001) rigidLid =   /* Rigid lid on/off flag */
(PID.TID 0000.0001)                   F
(PID.TID 0000.0001)     ;
(PID.TID 0000.0001) implicSurfPress =   /* Surface Pressure implicit factor (0-1)*/
(PID.TID 0000.0001)                 1.000000000000000E+00
(PID.TID 0000.0001)     ;
(PID.TID 0000.0001) implicDiv2Dflow =   /* Barot. Flow Div. implicit factor (0-1)*/
(PID.TID 0000.0001)                 1.000000000000000E+00
(PID.TID 0000.0001)     ;
(PID.TID 0000.0001) exactConserv =   /* Exact Volume Conservation on/off flag*/
(PID.TID 0000.0001)                   F
(PID.TID 0000.0001)     ;
(PID.TID 0000.0001) uniformLin_PhiSurf =   /* use uniform Bo_surf on/off flag*/
(PID.TID 0000.0001)                   T
(PID.TID 0000.0001)     ;
(PID.TID 0000.0001) nonlinFreeSurf =   /* Non-linear Free Surf. options (-1,0,1,2,3)*/
(PID.TID 0000.0001)                       0
(PID.TID 0000.0001)     ;
(PID.TID 0000.0001)      -1,0= Off ; 1,2,3= On, 2=+rescale gU,gV, 3=+update cg2d solv.
(PID.TID 0000.0001) hFacInf =   /* lower threshold for hFac (nonlinFreeSurf only)*/
(PID.TID 0000.0001)                 2.000000000000000E-01
(PID.TID 0000.0001)     ;
(PID.TID 0000.0001) hFacSup =   /* upper threshold for hFac (nonlinFreeSurf only)*/
(PID.TID 0000.0001)                 2.000000000000000E+00
(PID.TID 0000.0001)     ;
(PID.TID 0000.0001) select_rStar =   /* r* Coordinate options (not yet implemented)*/
(PID.TID 0000.0001)                       0
(PID.TID 0000.0001)     ;
(PID.TID 0000.0001) useRealFreshWaterFlux =   /* Real Fresh Water Flux on/off flag*/
(PID.TID 0000.0001)                   F
(PID.TID 0000.0001)     ;
(PID.TID 0000.0001) convertFW2Salt = /* convert F.W. Flux to Salt Flux (-1=use local S)(ppt)*/
(PID.TID 0000.0001)                 3.500000000000000E+01
(PID.TID 0000.0001)     ;
(PID.TID 0000.0001) nonHydrostatic =  /* Non-Hydrostatic on/off flag */
(PID.TID 0000.0001)                   T
(PID.TID 0000.0001)     ;
(PID.TID 0000.0001) nh_Am2 = /* Non-Hydrostatic terms scaling factor */
(PID.TID 0000.0001)                 1.000000000000000E+00
(PID.TID 0000.0001)     ;
(PID.TID 0000.0001) momStepping =  /* Momentum equation on/off flag */
(PID.TID 0000.0001)                   T
(PID.TID 0000.0001)     ;
(PID.TID 0000.0001) momAdvection =  /* Momentum advection on/off flag */
(PID.TID 0000.0001)                   T
(PID.TID 0000.0001)     ;
(PID.TID 0000.0001) momViscosity =  /* Momentum viscosity on/off flag */
(PID.TID 0000.0001)                   T
(PID.TID 0000.0001)     ;
(PID.TID 0000.0001) momImplVertAdv =/* Momentum implicit vert. advection on/off*/
(PID.TID 0000.0001)                   F
(PID.TID 0000.0001)     ;
(PID.TID 0000.0001) implicitViscosity = /* Implicit viscosity on/off flag */
(PID.TID 0000.0001)                   F
(PID.TID 0000.0001)     ;
(PID.TID 0000.0001) useCoriolis =  /* Coriolis on/off flag */
(PID.TID 0000.0001)                   T
(PID.TID 0000.0001)     ;
(PID.TID 0000.0001) useCDscheme =  /* CD scheme on/off flag */
(PID.TID 0000.0001)                   F
(PID.TID 0000.0001)     ;
(PID.TID 0000.0001) useJamartWetPoints= /* Coriolis WetPoints method flag */
(PID.TID 0000.0001)                   F
(PID.TID 0000.0001)     ;
(PID.TID 0000.0001) useJamartMomAdv= /* V.I. Non-linear terms Jamart flag */
(PID.TID 0000.0001)                   F
(PID.TID 0000.0001)     ;
(PID.TID 0000.0001) SadournyCoriolis= /* Sadourny Coriolis discr. flag */
(PID.TID 0000.0001)                   F
(PID.TID 0000.0001)     ;
(PID.TID 0000.0001) upwindVorticity= /* Upwind bias vorticity flag */
(PID.TID 0000.0001)                   F
(PID.TID 0000.0001)     ;
(PID.TID 0000.0001) useAbsVorticity= /* Work with f+zeta in Coriolis */
(PID.TID 0000.0001)                   F
(PID.TID 0000.0001)     ;
(PID.TID 0000.0001) highOrderVorticity= /* High order interp. of vort. flag */
(PID.TID 0000.0001)                   F
(PID.TID 0000.0001)     ;
(PID.TID 0000.0001) upwindShear= /* Upwind vertical Shear advection flag */
(PID.TID 0000.0001)                   F
(PID.TID 0000.0001)     ;
(PID.TID 0000.0001) selectKEscheme= /* Kinetic Energy scheme selector */
(PID.TID 0000.0001)                       0
(PID.TID 0000.0001)     ;
(PID.TID 0000.0001) momForcing =  /* Momentum forcing on/off flag */
(PID.TID 0000.0001)                   T
(PID.TID 0000.0001)     ;
(PID.TID 0000.0001) momPressureForcing =  /* Momentum pressure term on/off flag */
(PID.TID 0000.0001)                   T
(PID.TID 0000.0001)     ;
(PID.TID 0000.0001) implicitIntGravWave= /* Implicit Internal Gravity Wave flag */
(PID.TID 0000.0001)                   F
(PID.TID 0000.0001)     ;
(PID.TID 0000.0001) staggerTimeStep =   /* Stagger time stepping on/off flag */
(PID.TID 0000.0001)                   F
(PID.TID 0000.0001)     ;
(PID.TID 0000.0001) multiDimAdvection =   /* enable/disable Multi-Dim Advection */
(PID.TID 0000.0001)                   T
(PID.TID 0000.0001)     ;
(PID.TID 0000.0001) useMultiDimAdvec =   /* Multi-Dim Advection is/is-not used */
(PID.TID 0000.0001)                   T
(PID.TID 0000.0001)     ;
(PID.TID 0000.0001) implicitDiffusion =/* Implicit Diffusion on/off flag */
(PID.TID 0000.0001)                   F
(PID.TID 0000.0001)     ;
(PID.TID 0000.0001) tempStepping =  /* Temperature equation on/off flag */
(PID.TID 0000.0001)                   T
(PID.TID 0000.0001)     ;
(PID.TID 0000.0001) tempAdvection=  /* Temperature advection on/off flag */
(PID.TID 0000.0001)                   T
(PID.TID 0000.0001)     ;
(PID.TID 0000.0001) tempImplVertAdv =/* Temp. implicit vert. advection on/off */
(PID.TID 0000.0001)                   F
(PID.TID 0000.0001)     ;
(PID.TID 0000.0001) tempForcing  =  /* Temperature forcing on/off flag */
(PID.TID 0000.0001)                   T
(PID.TID 0000.0001)     ;
(PID.TID 0000.0001) saltStepping =  /* Salinity equation on/off flag */
(PID.TID 0000.0001)                   T
(PID.TID 0000.0001)     ;
(PID.TID 0000.0001) saltAdvection=  /* Salinity advection on/off flag */
(PID.TID 0000.0001)                   T
(PID.TID 0000.0001)     ;
(PID.TID 0000.0001) saltImplVertAdv =/* Sali. implicit vert. advection on/off */
(PID.TID 0000.0001)                   F
(PID.TID 0000.0001)     ;
(PID.TID 0000.0001) saltForcing  =  /* Salinity forcing on/off flag */
(PID.TID 0000.0001)                   T
(PID.TID 0000.0001)     ;
(PID.TID 0000.0001)  readBinaryPrec = /* Precision used for reading binary files */
(PID.TID 0000.0001)                      64
(PID.TID 0000.0001)     ;
(PID.TID 0000.0001) writeBinaryPrec = /* Precision used for writing binary files */
(PID.TID 0000.0001)                      32
(PID.TID 0000.0001)     ;
(PID.TID 0000.0001)  globalFiles = /* write "global" (=not per tile) files */
(PID.TID 0000.0001)                   F
(PID.TID 0000.0001)     ;
(PID.TID 0000.0001)  useSingleCpuIO = /* only master MPI process does I/O */
(PID.TID 0000.0001)                   F
(PID.TID 0000.0001)     ;
(PID.TID 0000.0001)  debugMode  =  /* Debug Mode on/off flag */
(PID.TID 0000.0001)                   F
(PID.TID 0000.0001)     ;
(PID.TID 0000.0001)    debLevA  =  /* 1rst level of debugging */
(PID.TID 0000.0001)                       1
(PID.TID 0000.0001)     ;
(PID.TID 0000.0001)    debLevB  =  /* 2nd  level of debugging */
(PID.TID 0000.0001)                       2
(PID.TID 0000.0001)     ;
(PID.TID 0000.0001)  debugLevel =  /* select debugging level */
(PID.TID 0000.0001)                       1
(PID.TID 0000.0001)     ;
(PID.TID 0000.0001) //
(PID.TID 0000.0001) // Elliptic solver(s) paramters ( PARM02 in namelist )
(PID.TID 0000.0001) //
(PID.TID 0000.0001) cg2dMaxIters =   /* Upper limit on 2d con. grad iterations  */
(PID.TID 0000.0001)                     300
(PID.TID 0000.0001)     ;
(PID.TID 0000.0001) cg2dChkResFreq =   /* 2d con. grad convergence test frequency */
(PID.TID 0000.0001)                       1
(PID.TID 0000.0001)     ;
(PID.TID 0000.0001) cg2dTargetResidual =   /* 2d con. grad target residual  */
(PID.TID 0000.0001)                 1.000000000000000E-13
(PID.TID 0000.0001)     ;
(PID.TID 0000.0001) cg2dTargetResWunit =   /* CG2d target residual [W units] */
(PID.TID 0000.0001)                -1.000000000000000E+00
(PID.TID 0000.0001)     ;
(PID.TID 0000.0001) cg2dPreCondFreq =   /* Freq. for updating cg2d preconditioner */
(PID.TID 0000.0001)                       1
(PID.TID 0000.0001)     ;
(PID.TID 0000.0001) //
(PID.TID 0000.0001) // Time stepping paramters ( PARM03 in namelist )
(PID.TID 0000.0001) //
(PID.TID 0000.0001) nIter0 =   /* Run starting timestep number  */
(PID.TID 0000.0001)                       0
(PID.TID 0000.0001)     ;
(PID.TID 0000.0001) nTimeSteps =   /* Number of timesteps */
(PID.TID 0000.0001)                      20
(PID.TID 0000.0001)     ;
(PID.TID 0000.0001) deltatTmom =   /* Momentum equation timestep ( s ) */
(PID.TID 0000.0001)                 2.000000000000000E+01
(PID.TID 0000.0001)     ;
(PID.TID 0000.0001) deltaTfreesurf =   /* FreeSurface equation timestep ( s ) */
(PID.TID 0000.0001)                 2.000000000000000E+01
(PID.TID 0000.0001)     ;
(PID.TID 0000.0001) dTtracerLev =   /* Tracer equation timestep ( s ) */
(PID.TID 0000.0001)    60 @  2.000000000000000E+01              /* K =  1: 60 */
(PID.TID 0000.0001)     ;
(PID.TID 0000.0001) deltatTClock  =   /* Model clock timestep ( s ) */
(PID.TID 0000.0001)                 2.000000000000000E+01
(PID.TID 0000.0001)     ;
(PID.TID 0000.0001) cAdjFreq =   /* Convective adjustment interval ( s ) */
(PID.TID 0000.0001)                 0.000000000000000E+00
(PID.TID 0000.0001)     ;
(PID.TID 0000.0001) forcing_In_AB =   /* put T,S Forcing in Adams-Bash. stepping */
(PID.TID 0000.0001)                   T
(PID.TID 0000.0001)     ;
(PID.TID 0000.0001) doAB_onGtGs = /* apply AB on Tendencies (rather than on T,S)*/
(PID.TID 0000.0001)                   T
(PID.TID 0000.0001)     ;
(PID.TID 0000.0001) abEps =   /* Adams-Bashforth-2 stabilizing weight */
(PID.TID 0000.0001)                 1.000000000000000E-02
(PID.TID 0000.0001)     ;
(PID.TID 0000.0001) baseTime =   /* Model base time ( s ). */
(PID.TID 0000.0001)                 0.000000000000000E+00
(PID.TID 0000.0001)     ;
(PID.TID 0000.0001) startTime =   /* Run start time ( s ). */
(PID.TID 0000.0001)                 0.000000000000000E+00
(PID.TID 0000.0001)     ;
(PID.TID 0000.0001) endTime =   /* Integration ending time ( s ). */
(PID.TID 0000.0001)                 4.000000000000000E+02
(PID.TID 0000.0001)     ;
(PID.TID 0000.0001) pChkPtFreq =   /* Permanent restart/checkpoint file interval ( s ). */
(PID.TID 0000.0001)                 0.000000000000000E+00
(PID.TID 0000.0001)     ;
(PID.TID 0000.0001) chkPtFreq =   /* Rolling restart/checkpoint file interval ( s ). */
(PID.TID 0000.0001)                 0.000000000000000E+00
(PID.TID 0000.0001)     ;
(PID.TID 0000.0001) pickup_write_mdsio =   /* Model IO flag. */
(PID.TID 0000.0001)                   T
(PID.TID 0000.0001)     ;
(PID.TID 0000.0001) pickup_read_mdsio =   /* Model IO flag. */
(PID.TID 0000.0001)                   T
(PID.TID 0000.0001)     ;
(PID.TID 0000.0001) pickup_write_immed =   /* Model IO flag. */
(PID.TID 0000.0001)                   F
(PID.TID 0000.0001)     ;
(PID.TID 0000.0001) dumpFreq =   /* Model state write out interval ( s ). */
(PID.TID 0000.0001)                 6.000000000000000E+03
(PID.TID 0000.0001)     ;
(PID.TID 0000.0001) dumpInitAndLast= /* write out Initial & Last iter. model state */
(PID.TID 0000.0001)                   T
(PID.TID 0000.0001)     ;
(PID.TID 0000.0001) snapshot_mdsio =   /* Model IO flag. */
(PID.TID 0000.0001)                   T
(PID.TID 0000.0001)     ;
(PID.TID 0000.0001) monitorFreq =   /* Monitor output interval ( s ). */
(PID.TID 0000.0001)                 1.000000000000000E+00
(PID.TID 0000.0001)     ;
(PID.TID 0000.0001) monitor_stdio =   /* Model IO flag. */
(PID.TID 0000.0001)                   T
(PID.TID 0000.0001)     ;
(PID.TID 0000.0001) externForcingPeriod =   /* forcing period (s) */
(PID.TID 0000.0001)                 0.000000000000000E+00
(PID.TID 0000.0001)     ;
(PID.TID 0000.0001) externForcingCycle =   /* period of the cyle (s). */
(PID.TID 0000.0001)                 0.000000000000000E+00
(PID.TID 0000.0001)     ;
(PID.TID 0000.0001) tauThetaClimRelax =   /* relaxation time scale (s) */
(PID.TID 0000.0001)                 0.000000000000000E+00
(PID.TID 0000.0001)     ;
(PID.TID 0000.0001) tauSaltClimRelax =   /* relaxation time scale (s) */
(PID.TID 0000.0001)                 0.000000000000000E+00
(PID.TID 0000.0001)     ;
(PID.TID 0000.0001) latBandClimRelax =   /* max. Lat. where relaxation */
(PID.TID 0000.0001)                 6.000000000000000E+02
(PID.TID 0000.0001)     ;
(PID.TID 0000.0001) //
(PID.TID 0000.0001) // Gridding paramters ( PARM04 in namelist )
(PID.TID 0000.0001) //
(PID.TID 0000.0001) usingCartesianGrid =   /* Cartesian coordinates flag ( True / False ) */
(PID.TID 0000.0001)                   T
(PID.TID 0000.0001)     ;
(PID.TID 0000.0001) usingSphericalPolarGrid =   /* Spherical coordinates flag ( True / False ) */
(PID.TID 0000.0001)                   F
(PID.TID 0000.0001)     ;
(PID.TID 0000.0001) usingCylindricalGrid =   /* Spherical coordinates flag ( True / False ) */
(PID.TID 0000.0001)                   F
(PID.TID 0000.0001)     ;
(PID.TID 0000.0001) Ro_SeaLevel =   /* r(1) ( units of r ) */
(PID.TID 0000.0001)                 0.000000000000000E+00
(PID.TID 0000.0001)     ;
(PID.TID 0000.0001) rkSign =   /* index orientation relative to vertical coordinate */
(PID.TID 0000.0001)                -1.000000000000000E+00
(PID.TID 0000.0001)     ;
(PID.TID 0000.0001) horiVertRatio =   /* Ratio on units : Horiz - Vertical */
(PID.TID 0000.0001)                 1.000000000000000E+00
(PID.TID 0000.0001)     ;
(PID.TID 0000.0001) drC =   /* C spacing ( units of r ) */
(PID.TID 0000.0001)                 1.666666666666667E+00,      /* K =  1 */
(PID.TID 0000.0001)    59 @  3.333333333333333E+00              /* K =  2: 60 */
(PID.TID 0000.0001)     ;
(PID.TID 0000.0001) drF =   /* W spacing ( units of r ) */
(PID.TID 0000.0001)    60 @  3.333333333333333E+00              /* K =  1: 60 */
(PID.TID 0000.0001)     ;
(PID.TID 0000.0001) delX =   /* U spacing ( m - cartesian, degrees - spherical ) */
(PID.TID 0000.0001)                 1.333350557843028E+01,      /* I =  1 */
(PID.TID 0000.0001)                 1.333351440956528E+01,      /* I =  2 */
(PID.TID 0000.0001)                 1.333352369347595E+01,      /* I =  3 */
(PID.TID 0000.0001)                 1.333353345337592E+01,      /* I =  4 */
(PID.TID 0000.0001)                 1.333354371366897E+01,      /* I =  5 */
(PID.TID 0000.0001)                 1.333355450000997E+01,      /* I =  6 */
(PID.TID 0000.0001)                 1.333356583936910E+01,      /* I =  7 */
(PID.TID 0000.0001)                 1.333357776009920E+01,      /* I =  8 */
(PID.TID 0000.0001)                 1.333359029200671E+01,      /* I =  9 */
(PID.TID 0000.0001)                 1.333360346642616E+01,      /* I = 10 */
(PID.TID 0000.0001)                 1.333361731629850E+01,      /* I = 11 */
(PID.TID 0000.0001)                 1.333363187625347E+01,      /* I = 12 */
(PID.TID 0000.0001)                 1.333364718269615E+01,      /* I = 13 */
(PID.TID 0000.0001)                 1.333366327389799E+01,      /* I = 14 */
(PID.TID 0000.0001)                 1.333368019009244E+01,      /* I = 15 */
(PID.TID 0000.0001)                 1.333369797357559E+01,      /* I = 16 */
(PID.TID 0000.0001)                 1.333371666881184E+01,      /* I = 17 */
(PID.TID 0000.0001)                 1.333373632254509E+01,      /* I = 18 */
(PID.TID 0000.0001)                 1.333375698391556E+01,      /* I = 19 */
(PID.TID 0000.0001)                 1.333377870458262E+01,      /* I = 20 */
(PID.TID 0000.0001)                 1.333380153885394E+01,      /* I = 21 */
(PID.TID 0000.0001)                 1.333382554382122E+01,      /* I = 22 */
(PID.TID 0000.0001)                 1.333385077950289E+01,      /* I = 23 */
(PID.TID 0000.0001)                 1.333387730899413E+01,      /* I = 24 */
(PID.TID 0000.0001)                 1.333390519862456E+01,      /* I = 25 */
(PID.TID 0000.0001)                 1.333393451812401E+01,      /* I = 26 */
(PID.TID 0000.0001)                 1.333396534079683E+01,      /* I = 27 */
(PID.TID 0000.0001)                 1.333399774370505E+01,      /* I = 28 */
(PID.TID 0000.0001)                 1.333403180786100E+01,      /* I = 29 */
(PID.TID 0000.0001)                 1.333406761842972E+01,      /* I = 30 */
(PID.TID 0000.0001)                 1.333410526494186E+01,      /* I = 31 */
(PID.TID 0000.0001)                 1.333414484151735E+01,      /* I = 32 */
(PID.TID 0000.0001)                 1.333418644710058E+01,      /* I = 33 */
(PID.TID 0000.0001)                 1.333423018570770E+01,      /* I = 34 */
(PID.TID 0000.0001)                 1.333427616668645E+01,      /* I = 35 */
(PID.TID 0000.0001)                 1.333432450498941E+01,      /* I = 36 */
(PID.TID 0000.0001)                 1.333437532146121E+01,      /* I = 37 */
(PID.TID 0000.0001)                 1.333442874314039E+01,      /* I = 38 */
(PID.TID 0000.0001)                 1.333448490357685E+01,      /* I = 39 */
(PID.TID 0000.0001)                 1.333454394316540E+01,      /* I = 40 */
(PID.TID 0000.0001)                 1.333460600949649E+01,      /* I = 41 */
(PID.TID 0000.0001)                 1.333467125772490E+01,      /* I = 42 */
(PID.TID 0000.0001)                 1.333473985095722E+01,      /* I = 43 */
(PID.TID 0000.0001)                 1.333481196065927E+01,      /* I = 44 */
(PID.TID 0000.0001)                 1.333488776708430E+01,      /* I = 45 */
(PID.TID 0000.0001)                 1.333496745972311E+01,      /* I = 46 */
(PID.TID 0000.0001)                 1.333505123777728E+01,      /* I = 47 */
(PID.TID 0000.0001)                 1.333513931065653E+01,      /* I = 48 */
(PID.TID 0000.0001)                 1.333523189850155E+01,      /* I = 49 */
(PID.TID 0000.0001)                 1.333532923273362E+01,      /* I = 50 */
(PID.TID 0000.0001)                 1.333543155663230E+01,      /* I = 51 */
(PID.TID 0000.0001)                 1.333553912594271E+01,      /* I = 52 */
(PID.TID 0000.0001)                 1.333565220951381E+01,      /* I = 53 */
(PID.TID 0000.0001)                 1.333577108996939E+01,      /* I = 54 */
(PID.TID 0000.0001)                 1.333589606441332E+01,      /* I = 55 */
(PID.TID 0000.0001)                 1.333602744517087E+01,      /* I = 56 */
(PID.TID 0000.0001)                 1.333616556056795E+01,      /* I = 57 */
(PID.TID 0000.0001)                 1.333631075575012E+01,      /* I = 58 */
(PID.TID 0000.0001)                 1.333646339354350E+01,      /* I = 59 */
(PID.TID 0000.0001)                 1.333662385535963E+01,      /* I = 60 */
(PID.TID 0000.0001)                 1.333679254214663E+01,      /* I = 61 */
(PID.TID 0000.0001)                 1.333696987538879E+01,      /* I = 62 */
(PID.TID 0000.0001)                 1.333715629815737E+01,      /* I = 63 */
(PID.TID 0000.0001)                 1.333735227621493E+01,      /* I = 64 */
(PID.TID 0000.0001)                 1.333755829917607E+01,      /* I = 65 */
(PID.TID 0000.0001)                 1.333777488172740E+01,      /* I = 66 */
(PID.TID 0000.0001)                 1.333800256490973E+01,      /* I = 67 */
(PID.TID 0000.0001)                 1.333824191746569E+01,      /* I = 68 */
(PID.TID 0000.0001)                 1.333849353725603E+01,      /* I = 69 */
(PID.TID 0000.0001)                 1.333875805274814E+01,      /* I = 70 */
(PID.TID 0000.0001)                 1.333903612458039E+01,      /* I = 71 */
(PID.TID 0000.0001)                 1.333932844720622E+01,      /* I = 72 */
(PID.TID 0000.0001)                 1.333963575062193E+01,      /* I = 73 */
(PID.TID 0000.0001)                 1.333995880218238E+01,      /* I = 74 */
(PID.TID 0000.0001)                 1.334029840850922E+01,      /* I = 75 */
(PID.TID 0000.0001)                 1.334065541749604E+01,      /* I = 76 */
(PID.TID 0000.0001)                 1.334103072041559E+01,      /* I = 77 */
(PID.TID 0000.0001)                 1.334142525413410E+01,      /* I = 78 */
(PID.TID 0000.0001)                 1.334184000343805E+01,      /* I = 79 */
(PID.TID 0000.0001)                 1.334227600347911E+01,      /* I = 80 */
(PID.TID 0000.0001)                 1.334273434234323E+01,      /* I = 81 */
(PID.TID 0000.0001)                 1.334321616375004E+01,      /* I = 82 */
(PID.TID 0000.0001)                 1.334372266988904E+01,      /* I = 83 */
(PID.TID 0000.0001)                 1.334425512439963E+01,      /* I = 84 */
(PID.TID 0000.0001)                 1.334481485550199E+01,      /* I = 85 */
(PID.TID 0000.0001)                 1.334540325928642E+01,      /* I = 86 */
(PID.TID 0000.0001)                 1.334602180316902E+01,      /* I = 87 */
(PID.TID 0000.0001)                 1.334667202952212E+01,      /* I = 88 */
(PID.TID 0000.0001)                 1.334735555948791E+01,      /* I = 89 */
(PID.TID 0000.0001)                 1.334807409698463E+01,      /* I = 90 */
(PID.TID 0000.0001)                 1.334882943291471E+01,      /* I = 91 */
(PID.TID 0000.0001)                 1.334962344958492E+01,      /* I = 92 */
(PID.TID 0000.0001)                 1.335045812534896E+01,      /* I = 93 */
(PID.TID 0000.0001)                 1.335133553948354E+01,      /* I = 94 */
(PID.TID 0000.0001)                 1.335225787730935E+01,      /* I = 95 */
(PID.TID 0000.0001)                 1.335322743556898E+01,      /* I = 96 */
(PID.TID 0000.0001)                 1.335424662807443E+01,      /* I = 97 */
(PID.TID 0000.0001)                 1.335531799163729E+01,      /* I = 98 */
(PID.TID 0000.0001)                 1.335644419229545E+01,      /* I = 99 */
(PID.TID 0000.0001)                 1.335762803185068E+01,      /* I =100 */
(PID.TID 0000.0001)                 1.335887245473227E+01,      /* I =101 */
(PID.TID 0000.0001)                 1.336018055520228E+01,      /* I =102 */
(PID.TID 0000.0001)                 1.336155558491909E+01,      /* I =103 */
(PID.TID 0000.0001)                 1.336300096087628E+01,      /* I =104 */
(PID.TID 0000.0001)                 1.336452027373481E+01,      /* I =105 */
(PID.TID 0000.0001)                 1.336611729656740E+01,      /* I =106 */
(PID.TID 0000.0001)                 1.336779599403433E+01,      /* I =107 */
(PID.TID 0000.0001)                 1.336956053201144E+01,      /* I =108 */
(PID.TID 0000.0001)                 1.337141528769127E+01,      /* I =109 */
(PID.TID 0000.0001)                 1.337336486017965E+01,      /* I =110 */
(PID.TID 0000.0001)                 1.337541408161077E+01,      /* I =111 */
(PID.TID 0000.0001)                 1.337756802880465E+01,      /* I =112 */
(PID.TID 0000.0001)                 1.337983203549213E+01,      /* I =113 */
(PID.TID 0000.0001)                 1.338221170513314E+01,      /* I =114 */
(PID.TID 0000.0001)                 1.338471292435540E+01,      /* I =115 */
(PID.TID 0000.0001)                 1.338734187704133E+01,      /* I =116 */
(PID.TID 0000.0001)                 1.339010505909238E+01,      /* I =117 */
(PID.TID 0000.0001)                 1.339300929390070E+01,      /* I =118 */
(PID.TID 0000.0001)                 1.339606174855942E+01,      /* I =119 */
(PID.TID 0000.0001)                 1.339926995084359E+01,      /* I =120 */
(PID.TID 0000.0001)                 1.340264180699529E+01,      /* I =121 */
(PID.TID 0000.0001)                 1.340618562034696E+01,      /* I =122 */
(PID.TID 0000.0001)                 1.340991011081868E+01,      /* I =123 */
(PID.TID 0000.0001)                 1.341382443532556E+01,      /* I =124 */
(PID.TID 0000.0001)                 1.341793820913294E+01,      /* I =125 */
(PID.TID 0000.0001)                 1.342226152819769E+01,      /* I =126 */
(PID.TID 0000.0001)                 1.342680499253510E+01,      /* I =127 */
(PID.TID 0000.0001)                 1.343157973065163E+01,      /* I =128 */
(PID.TID 0000.0001)                 1.343659742508456E+01,      /* I =129 */
(PID.TID 0000.0001)                 1.344187033909057E+01,      /* I =130 */
(PID.TID 0000.0001)                 1.344741134452547E+01,      /* I =131 */
(PID.TID 0000.0001)                 1.345323395095843E+01,      /* I =132 */
(PID.TID 0000.0001)                 1.345935233606388E+01,      /* I =133 */
(PID.TID 0000.0001)                 1.346578137733485E+01,      /* I =134 */
(PID.TID 0000.0001)                 1.347253668516156E+01,      /* I =135 */
(PID.TID 0000.0001)                 1.347963463731868E+01,      /* I =136 */
(PID.TID 0000.0001)                 1.348709241490466E+01,      /* I =137 */
(PID.TID 0000.0001)                 1.349492803977558E+01,      /* I =138 */
(PID.TID 0000.0001)                 1.350316041351508E+01,      /* I =139 */
(PID.TID 0000.0001)                 1.351180935798093E+01,      /* I =140 */
(PID.TID 0000.0001)                 1.352089565746654E+01,      /* I =141 */
(PID.TID 0000.0001)                 1.353044110251419E+01,      /* I =142 */
(PID.TID 0000.0001)                 1.354046853541373E+01,      /* I =143 */
(PID.TID 0000.0001)                 1.355100189741760E+01,      /* I =144 */
(PID.TID 0000.0001)                 1.356206627769899E+01,      /* I =145 */
(PID.TID 0000.0001)                 1.357368796407594E+01,      /* I =146 */
(PID.TID 0000.0001)                 1.358589449551856E+01,      /* I =147 */
(PID.TID 0000.0001)                 1.359871471645078E+01,      /* I =148 */
(PID.TID 0000.0001)                 1.361217883285115E+01,      /* I =149 */
(PID.TID 0000.0001)                 1.362631847014915E+01,      /* I =150 */
(PID.TID 0000.0001)                 1.364116673290460E+01,      /* I =151 */
(PID.TID 0000.0001)                 1.365675826624731E+01,      /* I =152 */
(PID.TID 0000.0001)                 1.367312931904298E+01,      /* I =153 */
(PID.TID 0000.0001)                 1.369031780873773E+01,      /* I =154 */
(PID.TID 0000.0001)                 1.370836338781988E+01,      /* I =155 */
(PID.TID 0000.0001)                 1.372730751182062E+01,      /* I =156 */
(PID.TID 0000.0001)                 1.374719350875757E+01,      /* I =157 */
(PID.TID 0000.0001)                 1.376806664990509E+01,      /* I =158 */
(PID.TID 0000.0001)                 1.378997422175274E+01,      /* I =159 */
(PID.TID 0000.0001)                 1.381296559898911E+01,      /* I =160 */
(PID.TID 0000.0001)                 1.383709231832104E+01,      /* I =161 */
(PID.TID 0000.0001)                 1.386240815290873E+01,      /* I =162 */
(PID.TID 0000.0001)                 1.388896918716481E+01,      /* I =163 */
(PID.TID 0000.0001)                 1.391683389163015E+01,      /* I =164 */
(PID.TID 0000.0001)                 1.394606319760068E+01,      /* I =165 */
(PID.TID 0000.0001)                 1.397672057113785E+01,      /* I =166 */
(PID.TID 0000.0001)                 1.400887208604991E+01,      /* I =167 */
(PID.TID 0000.0001)                 1.404258649538309E+01,      /* I =168 */
(PID.TID 0000.0001)                 1.407793530090862E+01,      /* I =169 */
(PID.TID 0000.0001)                 1.411499282003617E+01,      /* I =170 */
(PID.TID 0000.0001)                 1.415383624952395E+01,      /* I =171 */
(PID.TID 0000.0001)                 1.419454572529201E+01,      /* I =172 */
(PID.TID 0000.0001)                 1.423720437757808E+01,      /* I =173 */
(PID.TID 0000.0001)                 1.428189838060363E+01,      /* I =174 */
(PID.TID 0000.0001)                 1.432871699584345E+01,      /* I =175 */
(PID.TID 0000.0001)                 1.437775260791372E+01,      /* I =176 */
(PID.TID 0000.0001)                 1.442910075201240E+01,      /* I =177 */
(PID.TID 0000.0001)                 1.448286013176230E+01,      /* I =178 */
(PID.TID 0000.0001)                 1.453913262622100E+01,      /* I =179 */
(PID.TID 0000.0001)                 1.459802328473512E+01,      /* I =180 */
(PID.TID 0000.0001)                 1.465964030822818E+01,      /* I =181 */
(PID.TID 0000.0001)                 1.472409501542447E+01,      /* I =182 */
(PID.TID 0000.0001)                 1.479150179242509E+01,      /* I =183 */
(PID.TID 0000.0001)                 1.486197802396983E+01,      /* I =184 */
(PID.TID 0000.0001)                 1.493564400464020E+01,      /* I =185 */
(PID.TID 0000.0001)                 1.501262282818657E+01,      /* I =186 */
(PID.TID 0000.0001)                 1.509304025309917E+01,      /* I =187 */
(PID.TID 0000.0001)                 1.517702454248925E+01,      /* I =188 */
(PID.TID 0000.0001)                 1.526470627630714E+01,      /* I =189 */
(PID.TID 0000.0001)                 1.535621813389983E+01,      /* I =190 */
(PID.TID 0000.0001)                 1.545169464490609E+01,      /* I =191 */
(PID.TID 0000.0001)                 1.555127190650460E+01,      /* I =192 */
(PID.TID 0000.0001)                 1.565508726507390E+01,      /* I =193 */
(PID.TID 0000.0001)                 1.576327896039616E+01,      /* I =194 */
(PID.TID 0000.0001)                 1.587598573064292E+01,      /* I =195 */
(PID.TID 0000.0001)                 1.599334637652494E+01,      /* I =196 */
(PID.TID 0000.0001)                 1.611549928317337E+01,      /* I =197 */
(PID.TID 0000.0001)                 1.624258189854968E+01,      /* I =198 */
(PID.TID 0000.0001)                 1.637473016746109E+01,      /* I =199 */
(PID.TID 0000.0001)                 1.651207792058980E+01,      /* I =200 */
(PID.TID 0000.0001)                 1.665475621833111E+01,      /* I =201 */
(PID.TID 0000.0001)                 1.680289264967994E+01,      /* I =202 */
(PID.TID 0000.0001)                 1.695661058690918E+01,      /* I =203 */
(PID.TID 0000.0001)                 1.711602839734634E+01,      /* I =204 */
(PID.TID 0000.0001)                 1.728125861417839E+01,      /* I =205 */
(PID.TID 0000.0001)                 1.745240706889426E+01,      /* I =206 */
(PID.TID 0000.0001)                 1.762957198870894E+01,      /* I =207 */
(PID.TID 0000.0001)                 1.781284306309535E+01,      /* I =208 */
(PID.TID 0000.0001)                 1.800230048437439E+01,      /* I =209 */
(PID.TID 0000.0001)                 1.819801396816951E+01,      /* I =210 */
(PID.TID 0000.0001)                 1.840004176040835E+01,      /* I =211 */
(PID.TID 0000.0001)                 1.860842963843782E+01,      /* I =212 */
(PID.TID 0000.0001)                 1.882320991469193E+01,      /* I =213 */
(PID.TID 0000.0001)                 1.904440045219844E+01,      /* I =214 */
(PID.TID 0000.0001)                 1.927200370200823E+01,      /* I =215 */
(PID.TID 0000.0001)                 1.950600577335953E+01,      /* I =216 */
(PID.TID 0000.0001)                 1.974637554802371E+01,      /* I =217 */
(PID.TID 0000.0001)                 1.999306385079687E+01,      /* I =218 */
(PID.TID 0000.0001)                 2.024600268847589E+01,      /* I =219 */
(PID.TID 0000.0001)                 2.050510456986654E+01,      /* I =220 */
(PID.TID 0000.0001)                 2.077026191939032E+01,      /* I =221 */
(PID.TID 0000.0001)                 2.104134659666656E+01,      /* I =222 */
(PID.TID 0000.0001)                 2.131820953402739E+01,      /* I =223 */
(PID.TID 0000.0001)                 2.160068050326367E+01,      /* I =224 */
(PID.TID 0000.0001)                 2.188856802198952E+01,      /* I =225 */
(PID.TID 0000.0001)                 2.218165940884890E+01,      /* I =226 */
(PID.TID 0000.0001)                 2.247972099537336E+01,      /* I =227 */
(PID.TID 0000.0001)                 2.278249850064545E+01,      /* I =228 */
(PID.TID 0000.0001)                 2.308971757304531E+01,      /* I =229 */
(PID.TID 0000.0001)                 2.340108450128388E+01,      /* I =230 */
(PID.TID 0000.0001)                 2.371628709468741E+01,      /* I =231 */
(PID.TID 0000.0001)                 2.403499573033461E+01,      /* I =232 */
(PID.TID 0000.0001)                 2.435686456220453E+01,      /* I =233 */
(PID.TID 0000.0001)                 2.468153288502243E+01,      /* I =234 */
(PID.TID 0000.0001)                 2.500862664304538E+01,      /* I =235 */
(PID.TID 0000.0001)                 2.533776007166725E+01,      /* I =236 */
(PID.TID 0000.0001)                 2.566853745750001E+01,      /* I =237 */
(PID.TID 0000.0001)                 2.600055500056160E+01,      /* I =238 */
(PID.TID 0000.0001)                 2.633340276042106E+01,      /* I =239 */
(PID.TID 0000.0001)                 2.666666666666666E+01,      /* I =240 */
(PID.TID 0000.0001)                 2.699993057291228E+01,      /* I =241 */
(PID.TID 0000.0001)                 2.733277833277173E+01,      /* I =242 */
(PID.TID 0000.0001)                 2.766479587583332E+01,      /* I =243 */
(PID.TID 0000.0001)                 2.799557326166608E+01,      /* I =244 */
(PID.TID 0000.0001)                 2.832470669028795E+01,      /* I =245 */
(PID.TID 0000.0001)                 2.865180044831091E+01,      /* I =246 */
(PID.TID 0000.0001)                 2.897646877112880E+01,      /* I =247 */
(PID.TID 0000.0001)                 2.929833760299872E+01,      /* I =248 */
(PID.TID 0000.0001)                 2.961704623864592E+01,      /* I =249 */
(PID.TID 0000.0001)                 2.993224883204945E+01,      /* I =250 */
(PID.TID 0000.0001)                 3.024361576028802E+01,      /* I =251 */
(PID.TID 0000.0001)                 3.055083483268788E+01,      /* I =252 */
(PID.TID 0000.0001)                 3.085361233795997E+01,      /* I =253 */
(PID.TID 0000.0001)                 3.115167392448443E+01,      /* I =254 */
(PID.TID 0000.0001)                 3.144476531134382E+01,      /* I =255 */
(PID.TID 0000.0001)                 3.173265283006967E+01,      /* I =256 */
(PID.TID 0000.0001)                 3.201512379930595E+01,      /* I =257 */
(PID.TID 0000.0001)                 3.229198673666677E+01,      /* I =258 */
(PID.TID 0000.0001)                 3.256307141394301E+01,      /* I =259 */
(PID.TID 0000.0001)                 3.282822876346680E+01,      /* I =260 */
(PID.TID 0000.0001)                 3.308733064485744E+01,      /* I =261 */
(PID.TID 0000.0001)                 3.334026948253647E+01,      /* I =262 */
(PID.TID 0000.0001)                 3.358695778530962E+01,      /* I =263 */
(PID.TID 0000.0001)                 3.382732755997380E+01,      /* I =264 */
(PID.TID 0000.0001)                 3.406132963132509E+01,      /* I =265 */
(PID.TID 0000.0001)                 3.428893288113490E+01,      /* I =266 */
(PID.TID 0000.0001)                 3.451012341864140E+01,      /* I =267 */
(PID.TID 0000.0001)                 3.472490369489551E+01,      /* I =268 */
(PID.TID 0000.0001)                 3.493329157292499E+01,      /* I =269 */
(PID.TID 0000.0001)                 3.513531936516383E+01,      /* I =270 */
(PID.TID 0000.0001)                 3.533103284895893E+01,      /* I =271 */
(PID.TID 0000.0001)                 3.552049027023799E+01,      /* I =272 */
(PID.TID 0000.0001)                 3.570376134462440E+01,      /* I =273 */
(PID.TID 0000.0001)                 3.588092626443907E+01,      /* I =274 */
(PID.TID 0000.0001)                 3.605207471915494E+01,      /* I =275 */
(PID.TID 0000.0001)                 3.621730493598699E+01,      /* I =276 */
(PID.TID 0000.0001)                 3.637672274642415E+01,      /* I =277 */
(PID.TID 0000.0001)                 3.653044068365339E+01,      /* I =278 */
(PID.TID 0000.0001)                 3.667857711500223E+01,      /* I =279 */
(PID.TID 0000.0001)                 3.682125541274353E+01,      /* I =280 */
(PID.TID 0000.0001)                 3.695860316587224E+01,      /* I =281 */
(PID.TID 0000.0001)                 3.709075143478366E+01,      /* I =282 */
(PID.TID 0000.0001)                 3.721783405015996E+01,      /* I =283 */
(PID.TID 0000.0001)                 3.733998695680840E+01,      /* I =284 */
(PID.TID 0000.0001)                 3.745734760269041E+01,      /* I =285 */
(PID.TID 0000.0001)                 3.757005437293716E+01,      /* I =286 */
(PID.TID 0000.0001)                 3.767824606825943E+01,      /* I =287 */
(PID.TID 0000.0001)                 3.778206142682873E+01,      /* I =288 */
(PID.TID 0000.0001)                 3.788163868842724E+01,      /* I =289 */
(PID.TID 0000.0001)                 3.797711519943351E+01,      /* I =290 */
(PID.TID 0000.0001)                 3.806862705702619E+01,      /* I =291 */
(PID.TID 0000.0001)                 3.815630879084409E+01,      /* I =292 */
(PID.TID 0000.0001)                 3.824029308023417E+01,      /* I =293 */
(PID.TID 0000.0001)                 3.832071050514676E+01,      /* I =294 */
(PID.TID 0000.0001)                 3.839768932869313E+01,      /* I =295 */
(PID.TID 0000.0001)                 3.847135530936350E+01,      /* I =296 */
(PID.TID 0000.0001)                 3.854183154090824E+01,      /* I =297 */
(PID.TID 0000.0001)                 3.860923831790885E+01,      /* I =298 */
(PID.TID 0000.0001)                 3.867369302510515E+01,      /* I =299 */
(PID.TID 0000.0001)                 3.873531004859822E+01,      /* I =300 */
(PID.TID 0000.0001)                 3.879420070711233E+01,      /* I =301 */
(PID.TID 0000.0001)                 3.885047320157103E+01,      /* I =302 */
(PID.TID 0000.0001)                 3.890423258132093E+01,      /* I =303 */
(PID.TID 0000.0001)                 3.895558072541962E+01,      /* I =304 */
(PID.TID 0000.0001)                 3.900461633748988E+01,      /* I =305 */
(PID.TID 0000.0001)                 3.905143495272970E+01,      /* I =306 */
(PID.TID 0000.0001)                 3.909612895575525E+01,      /* I =307 */
(PID.TID 0000.0001)                 3.913878760804132E+01,      /* I =308 */
(PID.TID 0000.0001)                 3.917949708380939E+01,      /* I =309 */
(PID.TID 0000.0001)                 3.921834051329716E+01,      /* I =310 */
(PID.TID 0000.0001)                 3.925539803242471E+01,      /* I =311 */
(PID.TID 0000.0001)                 3.929074683795024E+01,      /* I =312 */
(PID.TID 0000.0001)                 3.932446124728342E+01,      /* I =313 */
(PID.TID 0000.0001)                 3.935661276219549E+01,      /* I =314 */
(PID.TID 0000.0001)                 3.938727013573265E+01,      /* I =315 */
(PID.TID 0000.0001)                 3.941649944170319E+01,      /* I =316 */
(PID.TID 0000.0001)                 3.944436414616852E+01,      /* I =317 */
(PID.TID 0000.0001)                 3.947092518042460E+01,      /* I =318 */
(PID.TID 0000.0001)                 3.949624101501229E+01,      /* I =319 */
(PID.TID 0000.0001)                 3.952036773434423E+01       /* I =320 */
(PID.TID 0000.0001)     ;
(PID.TID 0000.0001) delY =   /* V spacing ( m - cartesian, degrees - spherical ) */
(PID.TID 0000.0001)                 2.000000000000000E+02       /* J =  1 */
(PID.TID 0000.0001)     ;
(PID.TID 0000.0001) phiMin =    /* South edge (ignored - cartesian, degrees - spherical ) */
(PID.TID 0000.0001)                 0.000000000000000E+00
(PID.TID 0000.0001)     ;
(PID.TID 0000.0001) thetaMin =    /* West edge ( ignored - cartesian, degrees - spherical ) */
(PID.TID 0000.0001)                 0.000000000000000E+00
(PID.TID 0000.0001)     ;
(PID.TID 0000.0001) rSphere =    /* Radius ( ignored - cartesian, m - spherical ) */
(PID.TID 0000.0001)                 6.370000000000000E+06
(PID.TID 0000.0001)     ;
(PID.TID 0000.0001) xcoord =   /* P-point X coord ( m - cartesian, degrees - spherical ) */
(PID.TID 0000.0001)                 6.666752789215142E+00,      /* I =  1 */
(PID.TID 0000.0001)                 2.000026278321292E+01,      /* I =  2 */
(PID.TID 0000.0001)                 3.333378183473354E+01,      /* I =  3 */
(PID.TID 0000.0001)                 4.666731040815947E+01,      /* I =  4 */
(PID.TID 0000.0001)                 6.000084899168192E+01,      /* I =  5 */
(PID.TID 0000.0001)                 7.333439809852139E+01,      /* I =  6 */
(PID.TID 0000.0001)                 8.666795826821092E+01,      /* I =  7 */
(PID.TID 0000.0001)                 1.000015300679451E+02,      /* I =  8 */
(PID.TID 0000.0001)                 1.133351140939980E+02,      /* I =  9 */
(PID.TID 0000.0001)                 1.266687109732144E+02,      /* I = 10 */
(PID.TID 0000.0001)                 1.400023213645768E+02,      /* I = 11 */
(PID.TID 0000.0001)                 1.533359459608528E+02,      /* I = 12 */
(PID.TID 0000.0001)                 1.666695854903276E+02,      /* I = 13 */
(PID.TID 0000.0001)                 1.800032407186246E+02,      /* I = 14 */
(PID.TID 0000.0001)                 1.933369124506199E+02,      /* I = 15 */
(PID.TID 0000.0001)                 2.066706015324539E+02,      /* I = 16 */
(PID.TID 0000.0001)                 2.200043088536476E+02,      /* I = 17 */
(PID.TID 0000.0001)                 2.333380353493261E+02,      /* I = 18 */
(PID.TID 0000.0001)                 2.466717820025564E+02,      /* I = 19 */
(PID.TID 0000.0001)                 2.600055498468055E+02,      /* I = 20 */
(PID.TID 0000.0001)                 2.733393399685237E+02,      /* I = 21 */
(PID.TID 0000.0001)                 2.866731535098613E+02,      /* I = 22 */
(PID.TID 0000.0001)                 3.000069916715234E+02,      /* I = 23 */
(PID.TID 0000.0001)                 3.133408557157719E+02,      /* I = 24 */
(PID.TID 0000.0001)                 3.266747469695813E+02,      /* I = 25 */
(PID.TID 0000.0001)                 3.400086668279556E+02,      /* I = 26 */
(PID.TID 0000.0001)                 3.533426167574160E+02,      /* I = 27 */
(PID.TID 0000.0001)                 3.666765982996669E+02,      /* I = 28 */
(PID.TID 0000.0001)                 3.800106130754499E+02,      /* I = 29 */
(PID.TID 0000.0001)                 3.933446627885953E+02,      /* I = 30 */
(PID.TID 0000.0001)                 4.066787492302811E+02,      /* I = 31 */
(PID.TID 0000.0001)                 4.200128742835107E+02,      /* I = 32 */
(PID.TID 0000.0001)                 4.333470399278197E+02,      /* I = 33 */
(PID.TID 0000.0001)                 4.466812482442238E+02,      /* I = 34 */
(PID.TID 0000.0001)                 4.600155014204209E+02,      /* I = 35 */
(PID.TID 0000.0001)                 4.733498017562588E+02,      /* I = 36 */
(PID.TID 0000.0001)                 4.866841516694841E+02,      /* I = 37 */
(PID.TID 0000.0001)                 5.000185537017849E+02,      /* I = 38 */
(PID.TID 0000.0001)                 5.133530105251435E+02,      /* I = 39 */
(PID.TID 0000.0001)                 5.266875249485147E+02,      /* I = 40 */
(PID.TID 0000.0001)                 5.400220999248456E+02,      /* I = 41 */
(PID.TID 0000.0001)                 5.533567385584563E+02,      /* I = 42 */
(PID.TID 0000.0001)                 5.666914441127974E+02,      /* I = 43 */
(PID.TID 0000.0001)                 5.800262200186057E+02,      /* I = 44 */
(PID.TID 0000.0001)                 5.933610698824775E+02,      /* I = 45 */
(PID.TID 0000.0001)                 6.066959974958811E+02,      /* I = 46 */
(PID.TID 0000.0001)                 6.200310068446313E+02,      /* I = 47 */
(PID.TID 0000.0001)                 6.333661021188482E+02,      /* I = 48 */
(PID.TID 0000.0001)                 6.467012877234272E+02,      /* I = 49 */
(PID.TID 0000.0001)                 6.600365682890449E+02,      /* I = 50 */
(PID.TID 0000.0001)                 6.733719486837279E+02,      /* I = 51 */
(PID.TID 0000.0001)                 6.867074340250153E+02,      /* I = 52 */
(PID.TID 0000.0001)                 7.000430296927436E+02,      /* I = 53 */
(PID.TID 0000.0001)                 7.133787413424852E+02,      /* I = 54 */
(PID.TID 0000.0001)                 7.267145749196766E+02,      /* I = 55 */
(PID.TID 0000.0001)                 7.400505366744686E+02,      /* I = 56 */
(PID.TID 0000.0001)                 7.533866331773379E+02,      /* I = 57 */
(PID.TID 0000.0001)                 7.667228713354970E+02,      /* I = 58 */
(PID.TID 0000.0001)                 7.800592584101438E+02,      /* I = 59 */
(PID.TID 0000.0001)                 7.933958020345954E+02,      /* I = 60 */
(PID.TID 0000.0001)                 8.067325102333485E+02,      /* I = 61 */
(PID.TID 0000.0001)                 8.200693914421163E+02,      /* I = 62 */
(PID.TID 0000.0001)                 8.334064545288893E+02,      /* I = 63 */
(PID.TID 0000.0001)                 8.467437088160755E+02,      /* I = 64 */
(PID.TID 0000.0001)                 8.600811641037710E+02,      /* I = 65 */
(PID.TID 0000.0001)                 8.734188306942226E+02,      /* I = 66 */
(PID.TID 0000.0001)                 8.867567194175411E+02,      /* I = 67 */
(PID.TID 0000.0001)                 9.000948416587289E+02,      /* I = 68 */
(PID.TID 0000.0001)                 9.134332093860897E+02,      /* I = 69 */
(PID.TID 0000.0001)                 9.267718351810918E+02,      /* I = 70 */
(PID.TID 0000.0001)                 9.401107322697561E+02,      /* I = 71 */
(PID.TID 0000.0001)                 9.534499145556495E+02,      /* I = 72 */
(PID.TID 0000.0001)                 9.667893966545635E+02,      /* I = 73 */
(PID.TID 0000.0001)                 9.801291939309656E+02,      /* I = 74 */
(PID.TID 0000.0001)                 9.934693225363114E+02,      /* I = 75 */
(PID.TID 0000.0001)                 1.006809799449314E+03,      /* I = 76 */
(PID.TID 0000.0001)                 1.020150642518270E+03,      /* I = 77 */
(PID.TID 0000.0001)                 1.033491870505545E+03,      /* I = 78 */
(PID.TID 0000.0001)                 1.046833503134331E+03,      /* I = 79 */
(PID.TID 0000.0001)                 1.060175561137789E+03,      /* I = 80 */
(PID.TID 0000.0001)                 1.073518066310700E+03,      /* I = 81 */
(PID.TID 0000.0001)                 1.086861041563747E+03,      /* I = 82 */
(PID.TID 0000.0001)                 1.100204510980566E+03,      /* I = 83 */
(PID.TID 0000.0001)                 1.113548499877711E+03,      /* I = 84 */
(PID.TID 0000.0001)                 1.126893034867661E+03,      /* I = 85 */
(PID.TID 0000.0001)                 1.140238143925056E+03,      /* I = 86 */
(PID.TID 0000.0001)                 1.153583856456283E+03,      /* I = 87 */
(PID.TID 0000.0001)                 1.166930203372629E+03,      /* I = 88 */
(PID.TID 0000.0001)                 1.180277217167134E+03,      /* I = 89 */
(PID.TID 0000.0001)                 1.193624931995370E+03,      /* I = 90 */
(PID.TID 0000.0001)                 1.206973383760320E+03,      /* I = 91 */
(PID.TID 0000.0001)                 1.220322610201570E+03,      /* I = 92 */
(PID.TID 0000.0001)                 1.233672650989036E+03,      /* I = 93 */
(PID.TID 0000.0001)                 1.247023547821453E+03,      /* I = 94 */
(PID.TID 0000.0001)                 1.260375344529849E+03,      /* I = 95 */
(PID.TID 0000.0001)                 1.273728087186288E+03,      /* I = 96 */
(PID.TID 0000.0001)                 1.287081824218110E+03,      /* I = 97 */
(PID.TID 0000.0001)                 1.300436606527966E+03,      /* I = 98 */
(PID.TID 0000.0001)                 1.313792487619932E+03,      /* I = 99 */
(PID.TID 0000.0001)                 1.327149523732005E+03,      /* I =100 */
(PID.TID 0000.0001)                 1.340507773975296E+03,      /* I =101 */
(PID.TID 0000.0001)                 1.353867300480264E+03,      /* I =102 */
(PID.TID 0000.0001)                 1.367228168550325E+03,      /* I =103 */
(PID.TID 0000.0001)                 1.380590446823222E+03,      /* I =104 */
(PID.TID 0000.0001)                 1.393954207440528E+03,      /* I =105 */
(PID.TID 0000.0001)                 1.407319526225679E+03,      /* I =106 */
(PID.TID 0000.0001)                 1.420686482870980E+03,      /* I =107 */
(PID.TID 0000.0001)                 1.434055161134003E+03,      /* I =108 */
(PID.TID 0000.0001)                 1.447425649043854E+03,      /* I =109 */
(PID.TID 0000.0001)                 1.460798039117790E+03,      /* I =110 */
(PID.TID 0000.0001)                 1.474172428588685E+03,      /* I =111 */
(PID.TID 0000.0001)                 1.487548919643893E+03,      /* I =112 */
(PID.TID 0000.0001)                 1.500927619676041E+03,      /* I =113 */
(PID.TID 0000.0001)                 1.514308641546354E+03,      /* I =114 */
(PID.TID 0000.0001)                 1.527692103861098E+03,      /* I =115 */
(PID.TID 0000.0001)                 1.541078131261796E+03,      /* I =116 */
(PID.TID 0000.0001)                 1.554466854729863E+03,      /* I =117 */
(PID.TID 0000.0001)                 1.567858411906360E+03,      /* I =118 */
(PID.TID 0000.0001)                 1.581252947427590E+03,      /* I =119 */
(PID.TID 0000.0001)                 1.594650613277291E+03,      /* I =120 */
(PID.TID 0000.0001)                 1.608051569156210E+03,      /* I =121 */
(PID.TID 0000.0001)                 1.621455982869882E+03,      /* I =122 */
(PID.TID 0000.0001)                 1.634864030735464E+03,      /* I =123 */
(PID.TID 0000.0001)                 1.648275898008536E+03,      /* I =124 */
(PID.TID 0000.0001)                 1.661691779330766E+03,      /* I =125 */
(PID.TID 0000.0001)                 1.675111879199431E+03,      /* I =126 */
(PID.TID 0000.0001)                 1.688536412459797E+03,      /* I =127 */
(PID.TID 0000.0001)                 1.701965604821391E+03,      /* I =128 */
(PID.TID 0000.0001)                 1.715399693399259E+03,      /* I =129 */
(PID.TID 0000.0001)                 1.728838927281347E+03,      /* I =130 */
(PID.TID 0000.0001)                 1.742283568123155E+03,      /* I =131 */
(PID.TID 0000.0001)                 1.755733890770897E+03,      /* I =132 */
(PID.TID 0000.0001)                 1.769190183914408E+03,      /* I =133 */
(PID.TID 0000.0001)                 1.782652750771107E+03,      /* I =134 */
(PID.TID 0000.0001)                 1.796121909802355E+03,      /* I =135 */
(PID.TID 0000.0001)                 1.809597995463595E+03,      /* I =136 */
(PID.TID 0000.0001)                 1.823081358989707E+03,      /* I =137 */
(PID.TID 0000.0001)                 1.836572369217047E+03,      /* I =138 */
(PID.TID 0000.0001)                 1.850071413443693E+03,      /* I =139 */
(PID.TID 0000.0001)                 1.863578898329441E+03,      /* I =140 */
(PID.TID 0000.0001)                 1.877095250837164E+03,      /* I =141 */
(PID.TID 0000.0001)                 1.890620919217155E+03,      /* I =142 */
(PID.TID 0000.0001)                 1.904156374036119E+03,      /* I =143 */
(PID.TID 0000.0001)                 1.917702109252535E+03,      /* I =144 */
(PID.TID 0000.0001)                 1.931258643340093E+03,      /* I =145 */
(PID.TID 0000.0001)                 1.944826520460980E+03,      /* I =146 */
(PID.TID 0000.0001)                 1.958406311690778E+03,      /* I =147 */
(PID.TID 0000.0001)                 1.971998616296762E+03,      /* I =148 */
(PID.TID 0000.0001)                 1.985604063071413E+03,      /* I =149 */
(PID.TID 0000.0001)                 1.999223311722913E+03,      /* I =150 */
(PID.TID 0000.0001)                 2.012857054324440E+03,      /* I =151 */
(PID.TID 0000.0001)                 2.026506016824016E+03,      /* I =152 */
(PID.TID 0000.0001)                 2.040170960616661E+03,      /* I =153 */
(PID.TID 0000.0001)                 2.053852684180551E+03,      /* I =154 */
(PID.TID 0000.0001)                 2.067552024778830E+03,      /* I =155 */
(PID.TID 0000.0001)                 2.081269860228651E+03,      /* I =156 */
(PID.TID 0000.0001)                 2.095007110738939E+03,      /* I =157 */
(PID.TID 0000.0001)                 2.108764740818271E+03,      /* I =158 */
(PID.TID 0000.0001)                 2.122543761254100E+03,      /* I =159 */
(PID.TID 0000.0001)                 2.136345231164471E+03,      /* I =160 */
(PID.TID 0000.0001)                 2.150170260123126E+03,      /* I =161 */
(PID.TID 0000.0001)                 2.164020010358741E+03,      /* I =162 */
(PID.TID 0000.0001)                 2.177895699028778E+03,      /* I =163 */
(PID.TID 0000.0001)                 2.191798600568175E+03,      /* I =164 */
(PID.TID 0000.0001)                 2.205730049112791E+03,      /* I =165 */
(PID.TID 0000.0001)                 2.219691440997160E+03,      /* I =166 */
(PID.TID 0000.0001)                 2.233684237325754E+03,      /* I =167 */
(PID.TID 0000.0001)                 2.247709966616470E+03,      /* I =168 */
(PID.TID 0000.0001)                 2.261770227514616E+03,      /* I =169 */
(PID.TID 0000.0001)                 2.275866691575088E+03,      /* I =170 */
(PID.TID 0000.0001)                 2.290001106109868E+03,      /* I =171 */
(PID.TID 0000.0001)                 2.304175297097277E+03,      /* I =172 */
(PID.TID 0000.0001)                 2.318391172148711E+03,      /* I =173 */
(PID.TID 0000.0001)                 2.332650723527802E+03,      /* I =174 */
(PID.TID 0000.0001)                 2.346956031216026E+03,      /* I =175 */
(PID.TID 0000.0001)                 2.361309266017905E+03,      /* I =176 */
(PID.TID 0000.0001)                 2.375712692697868E+03,      /* I =177 */
(PID.TID 0000.0001)                 2.390168673139755E+03,      /* I =178 */
(PID.TID 0000.0001)                 2.404679669518747E+03,      /* I =179 */
(PID.TID 0000.0001)                 2.419248247474225E+03,      /* I =180 */
(PID.TID 0000.0001)                 2.433877079270706E+03,      /* I =181 */
(PID.TID 0000.0001)                 2.448568946932533E+03,      /* I =182 */
(PID.TID 0000.0001)                 2.463326745336457E+03,      /* I =183 */
(PID.TID 0000.0001)                 2.478153485244655E+03,      /* I =184 */
(PID.TID 0000.0001)                 2.493052296258960E+03,      /* I =185 */
(PID.TID 0000.0001)                 2.508026429675373E+03,      /* I =186 */
(PID.TID 0000.0001)                 2.523079261216016E+03,      /* I =187 */
(PID.TID 0000.0001)                 2.538214293613811E+03,      /* I =188 */
(PID.TID 0000.0001)                 2.553435159023209E+03,      /* I =189 */
(PID.TID 0000.0001)                 2.568745621228312E+03,      /* I =190 */
(PID.TID 0000.0001)                 2.584149577617715E+03,      /* I =191 */
(PID.TID 0000.0001)                 2.599651060893420E+03,      /* I =192 */
(PID.TID 0000.0001)                 2.615254240479209E+03,      /* I =193 */
(PID.TID 0000.0001)                 2.630963423591945E+03,      /* I =194 */
(PID.TID 0000.0001)                 2.646783055937464E+03,      /* I =195 */
(PID.TID 0000.0001)                 2.662717721991048E+03,      /* I =196 */
(PID.TID 0000.0001)                 2.678772144820897E+03,      /* I =197 */
(PID.TID 0000.0001)                 2.694951185411759E+03,      /* I =198 */
(PID.TID 0000.0001)                 2.711259841444764E+03,      /* I =199 */
(PID.TID 0000.0001)                 2.727703245488790E+03,      /* I =200 */
(PID.TID 0000.0001)                 2.744286662558250E+03,      /* I =201 */
(PID.TID 0000.0001)                 2.761015486992256E+03,      /* I =202 */
(PID.TID 0000.0001)                 2.777895238610550E+03,      /* I =203 */
(PID.TID 0000.0001)                 2.794931558102679E+03,      /* I =204 */
(PID.TID 0000.0001)                 2.812130201608441E+03,      /* I =205 */
(PID.TID 0000.0001)                 2.829497034449977E+03,      /* I =206 */
(PID.TID 0000.0001)                 2.847038023978779E+03,      /* I =207 */
(PID.TID 0000.0001)                 2.864759231504681E+03,      /* I =208 */
(PID.TID 0000.0001)                 2.882666803278416E+03,      /* I =209 */
(PID.TID 0000.0001)                 2.900766960504688E+03,      /* I =210 */
(PID.TID 0000.0001)                 2.919065988368977E+03,      /* I =211 */
(PID.TID 0000.0001)                 2.937570224068400E+03,      /* I =212 */
(PID.TID 0000.0001)                 2.956286043844965E+03,      /* I =213 */
(PID.TID 0000.0001)                 2.975219849028410E+03,      /* I =214 */
(PID.TID 0000.0001)                 2.994378051105513E+03,      /* I =215 */
(PID.TID 0000.0001)                 3.013767055843197E+03,      /* I =216 */
(PID.TID 0000.0001)                 3.033393246503889E+03,      /* I =217 */
(PID.TID 0000.0001)                 3.053262966203299E+03,      /* I =218 */
(PID.TID 0000.0001)                 3.073382499472936E+03,      /* I =219 */
(PID.TID 0000.0001)                 3.093758053102107E+03,      /* I =220 */
(PID.TID 0000.0001)                 3.114395736346735E+03,      /* I =221 */
(PID.TID 0000.0001)                 3.135301540604763E+03,      /* I =222 */
(PID.TID 0000.0001)                 3.156481318670110E+03,      /* I =223 */
(PID.TID 0000.0001)                 3.177940763688756E+03,      /* I =224 */
(PID.TID 0000.0001)                 3.199685387951382E+03,      /* I =225 */
(PID.TID 0000.0001)                 3.221720501666802E+03,      /* I =226 */
(PID.TID 0000.0001)                 3.244051191868914E+03,      /* I =227 */
(PID.TID 0000.0001)                 3.266682301616923E+03,      /* I =228 */
(PID.TID 0000.0001)                 3.289618409653768E+03,      /* I =229 */
(PID.TID 0000.0001)                 3.312863810690933E+03,      /* I =230 */
(PID.TID 0000.0001)                 3.336422496488919E+03,      /* I =231 */
(PID.TID 0000.0001)                 3.360298137901429E+03,      /* I =232 */
(PID.TID 0000.0001)                 3.384494068047699E+03,      /* I =233 */
(PID.TID 0000.0001)                 3.409013266771312E+03,      /* I =234 */
(PID.TID 0000.0001)                 3.433858346535347E+03,      /* I =235 */
(PID.TID 0000.0001)                 3.459031539892702E+03,      /* I =236 */
(PID.TID 0000.0001)                 3.484534688657286E+03,      /* I =237 */
(PID.TID 0000.0001)                 3.510369234886317E+03,      /* I =238 */
(PID.TID 0000.0001)                 3.536536213766808E+03,      /* I =239 */
(PID.TID 0000.0001)                 3.563036248480352E+03,      /* I =240 */
(PID.TID 0000.0001)                 3.589869547100142E+03,      /* I =241 */
(PID.TID 0000.0001)                 3.617035901552984E+03,      /* I =242 */
(PID.TID 0000.0001)                 3.644534688657286E+03,      /* I =243 */
(PID.TID 0000.0001)                 3.672364873226036E+03,      /* I =244 */
(PID.TID 0000.0001)                 3.700525013202013E+03,      /* I =245 */
(PID.TID 0000.0001)                 3.729013266771312E+03,      /* I =246 */
(PID.TID 0000.0001)                 3.757827401381032E+03,      /* I =247 */
(PID.TID 0000.0001)                 3.786964804568096E+03,      /* I =248 */
(PID.TID 0000.0001)                 3.816422496488919E+03,      /* I =249 */
(PID.TID 0000.0001)                 3.846197144024266E+03,      /* I =250 */
(PID.TID 0000.0001)                 3.876285076320435E+03,      /* I =251 */
(PID.TID 0000.0001)                 3.906682301616923E+03,      /* I =252 */
(PID.TID 0000.0001)                 3.937384525202247E+03,      /* I =253 */
(PID.TID 0000.0001)                 3.968387168333469E+03,      /* I =254 */
(PID.TID 0000.0001)                 3.999685387951383E+03,      /* I =255 */
(PID.TID 0000.0001)                 4.031274097022090E+03,      /* I =256 */
(PID.TID 0000.0001)                 4.063147985336778E+03,      /* I =257 */
(PID.TID 0000.0001)                 4.095301540604763E+03,      /* I =258 */
(PID.TID 0000.0001)                 4.127729069680068E+03,      /* I =259 */
(PID.TID 0000.0001)                 4.160424719768774E+03,      /* I =260 */
(PID.TID 0000.0001)                 4.193382499472936E+03,      /* I =261 */
(PID.TID 0000.0001)                 4.226596299536633E+03,      /* I =262 */
(PID.TID 0000.0001)                 4.260059913170556E+03,      /* I =263 */
(PID.TID 0000.0001)                 4.293767055843198E+03,      /* I =264 */
(PID.TID 0000.0001)                 4.327711384438848E+03,      /* I =265 */
(PID.TID 0000.0001)                 4.361886515695078E+03,      /* I =266 */
(PID.TID 0000.0001)                 4.396286043844966E+03,      /* I =267 */
(PID.TID 0000.0001)                 4.430903557401734E+03,      /* I =268 */
(PID.TID 0000.0001)                 4.465732655035644E+03,      /* I =269 */
(PID.TID 0000.0001)                 4.500766960504689E+03,      /* I =270 */
(PID.TID 0000.0001)                 4.536000136611749E+03,      /* I =271 */
(PID.TID 0000.0001)                 4.571425898171348E+03,      /* I =272 */
(PID.TID 0000.0001)                 4.607038023978779E+03,      /* I =273 */
(PID.TID 0000.0001)                 4.642830367783311E+03,      /* I =274 */
(PID.TID 0000.0001)                 4.678796868275108E+03,      /* I =275 */
(PID.TID 0000.0001)                 4.714931558102679E+03,      /* I =276 */
(PID.TID 0000.0001)                 4.751228571943884E+03,      /* I =277 */
(PID.TID 0000.0001)                 4.787682153658923E+03,      /* I =278 */
(PID.TID 0000.0001)                 4.824286662558251E+03,      /* I =279 */
(PID.TID 0000.0001)                 4.861036578822124E+03,      /* I =280 */
(PID.TID 0000.0001)                 4.897926508111432E+03,      /* I =281 */
(PID.TID 0000.0001)                 4.934951185411759E+03,      /* I =282 */
(PID.TID 0000.0001)                 4.972105478154231E+03,      /* I =283 */
(PID.TID 0000.0001)                 5.009384388657714E+03,      /* I =284 */
(PID.TID 0000.0001)                 5.046783055937464E+03,      /* I =285 */
(PID.TID 0000.0001)                 5.084296756925278E+03,      /* I =286 */
(PID.TID 0000.0001)                 5.121920907145877E+03,      /* I =287 */
(PID.TID 0000.0001)                 5.159651060893420E+03,      /* I =288 */
(PID.TID 0000.0001)                 5.197482910951048E+03,      /* I =289 */
(PID.TID 0000.0001)                 5.235412287894979E+03,      /* I =290 */
(PID.TID 0000.0001)                 5.273435159023209E+03,      /* I =291 */
(PID.TID 0000.0001)                 5.311547626947144E+03,      /* I =292 */
(PID.TID 0000.0001)                 5.349745927882684E+03,      /* I =293 */
(PID.TID 0000.0001)                 5.388026429675374E+03,      /* I =294 */
(PID.TID 0000.0001)                 5.426385629592294E+03,      /* I =295 */
(PID.TID 0000.0001)                 5.464820151911323E+03,      /* I =296 */
(PID.TID 0000.0001)                 5.503326745336459E+03,      /* I =297 */
(PID.TID 0000.0001)                 5.541902280265867E+03,      /* I =298 */
(PID.TID 0000.0001)                 5.580543745937373E+03,      /* I =299 */
(PID.TID 0000.0001)                 5.619248247474226E+03,      /* I =300 */
(PID.TID 0000.0001)                 5.658013002852080E+03,      /* I =301 */
(PID.TID 0000.0001)                 5.696835339806423E+03,      /* I =302 */
(PID.TID 0000.0001)                 5.735712692697868E+03,      /* I =303 */
(PID.TID 0000.0001)                 5.774642599351238E+03,      /* I =304 */
(PID.TID 0000.0001)                 5.813622697882693E+03,      /* I =305 */
(PID.TID 0000.0001)                 5.852650723527802E+03,      /* I =306 */
(PID.TID 0000.0001)                 5.891724505482044E+03,      /* I =307 */
(PID.TID 0000.0001)                 5.930841963763944E+03,      /* I =308 */
(PID.TID 0000.0001)                 5.970001106109868E+03,      /* I =309 */
(PID.TID 0000.0001)                 6.009200024908421E+03,      /* I =310 */
(PID.TID 0000.0001)                 6.048436894181283E+03,      /* I =311 */
(PID.TID 0000.0001)                 6.087709966616470E+03,      /* I =312 */
(PID.TID 0000.0001)                 6.127017570659087E+03,      /* I =313 */
(PID.TID 0000.0001)                 6.166358107663826E+03,      /* I =314 */
(PID.TID 0000.0001)                 6.205730049112790E+03,      /* I =315 */
(PID.TID 0000.0001)                 6.245131933901508E+03,      /* I =316 */
(PID.TID 0000.0001)                 6.284562365695443E+03,      /* I =317 */
(PID.TID 0000.0001)                 6.324020010358740E+03,      /* I =318 */
(PID.TID 0000.0001)                 6.363503593456458E+03,      /* I =319 */
(PID.TID 0000.0001)                 6.403011897831137E+03       /* I =320 */
(PID.TID 0000.0001)     ;
(PID.TID 0000.0001) ycoord =   /* P-point Y coord ( m - cartesian, degrees - spherical ) */
(PID.TID 0000.0001)                 1.000000000000000E+02       /* J =  1 */
(PID.TID 0000.0001)     ;
(PID.TID 0000.0001) rcoord =   /* P-point R coordinate (  units of r ) */
(PID.TID 0000.0001)                -1.666666666666667E+00,      /* K =  1 */
(PID.TID 0000.0001)                -5.000000000000000E+00,      /* K =  2 */
(PID.TID 0000.0001)                -8.333333333333334E+00,      /* K =  3 */
(PID.TID 0000.0001)                -1.166666666666667E+01,      /* K =  4 */
(PID.TID 0000.0001)                -1.500000000000000E+01,      /* K =  5 */
(PID.TID 0000.0001)                -1.833333333333334E+01,      /* K =  6 */
(PID.TID 0000.0001)                -2.166666666666667E+01,      /* K =  7 */
(PID.TID 0000.0001)                -2.500000000000000E+01,      /* K =  8 */
(PID.TID 0000.0001)                -2.833333333333333E+01,      /* K =  9 */
(PID.TID 0000.0001)                -3.166666666666666E+01,      /* K = 10 */
(PID.TID 0000.0001)                -3.500000000000000E+01,      /* K = 11 */
(PID.TID 0000.0001)                -3.833333333333334E+01,      /* K = 12 */
(PID.TID 0000.0001)                -4.166666666666667E+01,      /* K = 13 */
(PID.TID 0000.0001)                -4.500000000000001E+01,      /* K = 14 */
(PID.TID 0000.0001)                -4.833333333333334E+01,      /* K = 15 */
(PID.TID 0000.0001)                -5.166666666666668E+01,      /* K = 16 */
(PID.TID 0000.0001)                -5.500000000000001E+01,      /* K = 17 */
(PID.TID 0000.0001)                -5.833333333333335E+01,      /* K = 18 */
(PID.TID 0000.0001)                -6.166666666666669E+01,      /* K = 19 */
(PID.TID 0000.0001)                -6.500000000000001E+01,      /* K = 20 */
(PID.TID 0000.0001)                -6.833333333333334E+01,      /* K = 21 */
(PID.TID 0000.0001)                -7.166666666666667E+01,      /* K = 22 */
(PID.TID 0000.0001)                -7.500000000000000E+01,      /* K = 23 */
(PID.TID 0000.0001)                -7.833333333333333E+01,      /* K = 24 */
(PID.TID 0000.0001)                -8.166666666666666E+01,      /* K = 25 */
(PID.TID 0000.0001)                -8.499999999999999E+01,      /* K = 26 */
(PID.TID 0000.0001)                -8.833333333333331E+01,      /* K = 27 */
(PID.TID 0000.0001)                -9.166666666666664E+01,      /* K = 28 */
(PID.TID 0000.0001)                -9.499999999999997E+01,      /* K = 29 */
(PID.TID 0000.0001)                -9.833333333333330E+01,      /* K = 30 */
(PID.TID 0000.0001)                -1.016666666666666E+02,      /* K = 31 */
(PID.TID 0000.0001)                -1.050000000000000E+02,      /* K = 32 */
(PID.TID 0000.0001)                -1.083333333333333E+02,      /* K = 33 */
(PID.TID 0000.0001)                -1.116666666666666E+02,      /* K = 34 */
(PID.TID 0000.0001)                -1.149999999999999E+02,      /* K = 35 */
(PID.TID 0000.0001)                -1.183333333333333E+02,      /* K = 36 */
(PID.TID 0000.0001)                -1.216666666666666E+02,      /* K = 37 */
(PID.TID 0000.0001)                -1.249999999999999E+02,      /* K = 38 */
(PID.TID 0000.0001)                -1.283333333333333E+02,      /* K = 39 */
(PID.TID 0000.0001)                -1.316666666666666E+02,      /* K = 40 */
(PID.TID 0000.0001)                -1.349999999999999E+02,      /* K = 41 */
(PID.TID 0000.0001)                -1.383333333333333E+02,      /* K = 42 */
(PID.TID 0000.0001)                -1.416666666666666E+02,      /* K = 43 */
(PID.TID 0000.0001)                -1.450000000000000E+02,      /* K = 44 */
(PID.TID 0000.0001)                -1.483333333333333E+02,      /* K = 45 */
(PID.TID 0000.0001)                -1.516666666666667E+02,      /* K = 46 */
(PID.TID 0000.0001)                -1.550000000000000E+02,      /* K = 47 */
(PID.TID 0000.0001)                -1.583333333333333E+02,      /* K = 48 */
(PID.TID 0000.0001)                -1.616666666666667E+02,      /* K = 49 */
(PID.TID 0000.0001)                -1.650000000000000E+02,      /* K = 50 */
(PID.TID 0000.0001)                -1.683333333333334E+02,      /* K = 51 */
(PID.TID 0000.0001)                -1.716666666666667E+02,      /* K = 52 */
(PID.TID 0000.0001)                -1.750000000000001E+02,      /* K = 53 */
(PID.TID 0000.0001)                -1.783333333333334E+02,      /* K = 54 */
(PID.TID 0000.0001)                -1.816666666666667E+02,      /* K = 55 */
(PID.TID 0000.0001)                -1.850000000000001E+02,      /* K = 56 */
(PID.TID 0000.0001)                -1.883333333333334E+02,      /* K = 57 */
(PID.TID 0000.0001)                -1.916666666666668E+02,      /* K = 58 */
(PID.TID 0000.0001)                -1.950000000000001E+02,      /* K = 59 */
(PID.TID 0000.0001)                -1.983333333333335E+02       /* K = 60 */
(PID.TID 0000.0001)     ;
(PID.TID 0000.0001) rF =   /* W-Interf. R coordinate (  units of r ) */
(PID.TID 0000.0001)                 0.000000000000000E+00,      /* K =  1 */
(PID.TID 0000.0001)                -3.333333333333333E+00,      /* K =  2 */
(PID.TID 0000.0001)                -6.666666666666667E+00,      /* K =  3 */
(PID.TID 0000.0001)                -1.000000000000000E+01,      /* K =  4 */
(PID.TID 0000.0001)                -1.333333333333333E+01,      /* K =  5 */
(PID.TID 0000.0001)                -1.666666666666667E+01,      /* K =  6 */
(PID.TID 0000.0001)                -2.000000000000000E+01,      /* K =  7 */
(PID.TID 0000.0001)                -2.333333333333333E+01,      /* K =  8 */
(PID.TID 0000.0001)                -2.666666666666666E+01,      /* K =  9 */
(PID.TID 0000.0001)                -3.000000000000000E+01,      /* K = 10 */
(PID.TID 0000.0001)                -3.333333333333333E+01,      /* K = 11 */
(PID.TID 0000.0001)                -3.666666666666666E+01,      /* K = 12 */
(PID.TID 0000.0001)                -4.000000000000000E+01,      /* K = 13 */
(PID.TID 0000.0001)                -4.333333333333334E+01,      /* K = 14 */
(PID.TID 0000.0001)                -4.666666666666667E+01,      /* K = 15 */
(PID.TID 0000.0001)                -5.000000000000001E+01,      /* K = 16 */
(PID.TID 0000.0001)                -5.333333333333334E+01,      /* K = 17 */
(PID.TID 0000.0001)                -5.666666666666668E+01,      /* K = 18 */
(PID.TID 0000.0001)                -6.000000000000001E+01,      /* K = 19 */
(PID.TID 0000.0001)                -6.333333333333335E+01,      /* K = 20 */
(PID.TID 0000.0001)                -6.666666666666669E+01,      /* K = 21 */
(PID.TID 0000.0001)                -7.000000000000001E+01,      /* K = 22 */
(PID.TID 0000.0001)                -7.333333333333334E+01,      /* K = 23 */
(PID.TID 0000.0001)                -7.666666666666667E+01,      /* K = 24 */
(PID.TID 0000.0001)                -8.000000000000000E+01,      /* K = 25 */
(PID.TID 0000.0001)                -8.333333333333333E+01,      /* K = 26 */
(PID.TID 0000.0001)                -8.666666666666666E+01,      /* K = 27 */
(PID.TID 0000.0001)                -8.999999999999999E+01,      /* K = 28 */
(PID.TID 0000.0001)                -9.333333333333331E+01,      /* K = 29 */
(PID.TID 0000.0001)                -9.666666666666664E+01,      /* K = 30 */
(PID.TID 0000.0001)                -9.999999999999997E+01,      /* K = 31 */
(PID.TID 0000.0001)                -1.033333333333333E+02,      /* K = 32 */
(PID.TID 0000.0001)                -1.066666666666666E+02,      /* K = 33 */
(PID.TID 0000.0001)                -1.100000000000000E+02,      /* K = 34 */
(PID.TID 0000.0001)                -1.133333333333333E+02,      /* K = 35 */
(PID.TID 0000.0001)                -1.166666666666666E+02,      /* K = 36 */
(PID.TID 0000.0001)                -1.199999999999999E+02,      /* K = 37 */
(PID.TID 0000.0001)                -1.233333333333333E+02,      /* K = 38 */
(PID.TID 0000.0001)                -1.266666666666666E+02,      /* K = 39 */
(PID.TID 0000.0001)                -1.299999999999999E+02,      /* K = 40 */
(PID.TID 0000.0001)                -1.333333333333333E+02,      /* K = 41 */
(PID.TID 0000.0001)                -1.366666666666666E+02,      /* K = 42 */
(PID.TID 0000.0001)                -1.400000000000000E+02,      /* K = 43 */
(PID.TID 0000.0001)                -1.433333333333333E+02,      /* K = 44 */
(PID.TID 0000.0001)                -1.466666666666667E+02,      /* K = 45 */
(PID.TID 0000.0001)                -1.500000000000000E+02,      /* K = 46 */
(PID.TID 0000.0001)                -1.533333333333333E+02,      /* K = 47 */
(PID.TID 0000.0001)                -1.566666666666667E+02,      /* K = 48 */
(PID.TID 0000.0001)                -1.600000000000000E+02,      /* K = 49 */
(PID.TID 0000.0001)                -1.633333333333334E+02,      /* K = 50 */
(PID.TID 0000.0001)                -1.666666666666667E+02,      /* K = 51 */
(PID.TID 0000.0001)                -1.700000000000001E+02,      /* K = 52 */
(PID.TID 0000.0001)                -1.733333333333334E+02,      /* K = 53 */
(PID.TID 0000.0001)                -1.766666666666667E+02,      /* K = 54 */
(PID.TID 0000.0001)                -1.800000000000001E+02,      /* K = 55 */
(PID.TID 0000.0001)                -1.833333333333334E+02,      /* K = 56 */
(PID.TID 0000.0001)                -1.866666666666668E+02,      /* K = 57 */
(PID.TID 0000.0001)                -1.900000000000001E+02,      /* K = 58 */
(PID.TID 0000.0001)                -1.933333333333335E+02,      /* K = 59 */
(PID.TID 0000.0001)                -1.966666666666668E+02,      /* K = 60 */
(PID.TID 0000.0001)                -2.000000000000001E+02       /* K = 61 */
(PID.TID 0000.0001)     ;
(PID.TID 0000.0001) dxF =  /* dxF(:,1,:,1) ( m - cartesian, degrees - spherical ) */
(PID.TID 0000.0001)                 1.333350557843028E+01,      /* I =  1 */
(PID.TID 0000.0001)                 1.333351440956528E+01,      /* I =  2 */
(PID.TID 0000.0001)                 1.333352369347595E+01,      /* I =  3 */
(PID.TID 0000.0001)                 1.333353345337592E+01,      /* I =  4 */
(PID.TID 0000.0001)                 1.333354371366897E+01,      /* I =  5 */
(PID.TID 0000.0001)                 1.333355450000997E+01,      /* I =  6 */
(PID.TID 0000.0001)                 1.333356583936910E+01,      /* I =  7 */
(PID.TID 0000.0001)                 1.333357776009920E+01,      /* I =  8 */
(PID.TID 0000.0001)                 1.333359029200671E+01,      /* I =  9 */
(PID.TID 0000.0001)                 1.333360346642616E+01,      /* I = 10 */
(PID.TID 0000.0001)                 1.333361731629850E+01,      /* I = 11 */
(PID.TID 0000.0001)                 1.333363187625347E+01,      /* I = 12 */
(PID.TID 0000.0001)                 1.333364718269615E+01,      /* I = 13 */
(PID.TID 0000.0001)                 1.333366327389799E+01,      /* I = 14 */
(PID.TID 0000.0001)                 1.333368019009244E+01,      /* I = 15 */
(PID.TID 0000.0001)                 1.333369797357559E+01,      /* I = 16 */
(PID.TID 0000.0001)                 1.333371666881184E+01,      /* I = 17 */
(PID.TID 0000.0001)                 1.333373632254509E+01,      /* I = 18 */
(PID.TID 0000.0001)                 1.333375698391556E+01,      /* I = 19 */
(PID.TID 0000.0001)                 1.333377870458262E+01,      /* I = 20 */
(PID.TID 0000.0001)                 1.333380153885394E+01,      /* I = 21 */
(PID.TID 0000.0001)                 1.333382554382122E+01,      /* I = 22 */
(PID.TID 0000.0001)                 1.333385077950289E+01,      /* I = 23 */
(PID.TID 0000.0001)                 1.333387730899413E+01,      /* I = 24 */
(PID.TID 0000.0001)                 1.333390519862456E+01,      /* I = 25 */
(PID.TID 0000.0001)                 1.333393451812401E+01,      /* I = 26 */
(PID.TID 0000.0001)                 1.333396534079683E+01,      /* I = 27 */
(PID.TID 0000.0001)                 1.333399774370505E+01,      /* I = 28 */
(PID.TID 0000.0001)                 1.333403180786100E+01,      /* I = 29 */
(PID.TID 0000.0001)                 1.333406761842972E+01,      /* I = 30 */
(PID.TID 0000.0001)                 1.333410526494186E+01,      /* I = 31 */
(PID.TID 0000.0001)                 1.333414484151735E+01,      /* I = 32 */
(PID.TID 0000.0001)                 1.333418644710058E+01,      /* I = 33 */
(PID.TID 0000.0001)                 1.333423018570770E+01,      /* I = 34 */
(PID.TID 0000.0001)                 1.333427616668645E+01,      /* I = 35 */
(PID.TID 0000.0001)                 1.333432450498941E+01,      /* I = 36 */
(PID.TID 0000.0001)                 1.333437532146121E+01,      /* I = 37 */
(PID.TID 0000.0001)                 1.333442874314039E+01,      /* I = 38 */
(PID.TID 0000.0001)                 1.333448490357685E+01,      /* I = 39 */
(PID.TID 0000.0001)                 1.333454394316540E+01,      /* I = 40 */
(PID.TID 0000.0001)                 1.333460600949649E+01,      /* I = 41 */
(PID.TID 0000.0001)                 1.333467125772490E+01,      /* I = 42 */
(PID.TID 0000.0001)                 1.333473985095722E+01,      /* I = 43 */
(PID.TID 0000.0001)                 1.333481196065927E+01,      /* I = 44 */
(PID.TID 0000.0001)                 1.333488776708430E+01,      /* I = 45 */
(PID.TID 0000.0001)                 1.333496745972311E+01,      /* I = 46 */
(PID.TID 0000.0001)                 1.333505123777728E+01,      /* I = 47 */
(PID.TID 0000.0001)                 1.333513931065653E+01,      /* I = 48 */
(PID.TID 0000.0001)                 1.333523189850155E+01,      /* I = 49 */
(PID.TID 0000.0001)                 1.333532923273362E+01,      /* I = 50 */
(PID.TID 0000.0001)                 1.333543155663230E+01,      /* I = 51 */
(PID.TID 0000.0001)                 1.333553912594271E+01,      /* I = 52 */
(PID.TID 0000.0001)                 1.333565220951381E+01,      /* I = 53 */
(PID.TID 0000.0001)                 1.333577108996939E+01,      /* I = 54 */
(PID.TID 0000.0001)                 1.333589606441332E+01,      /* I = 55 */
(PID.TID 0000.0001)                 1.333602744517087E+01,      /* I = 56 */
(PID.TID 0000.0001)                 1.333616556056795E+01,      /* I = 57 */
(PID.TID 0000.0001)                 1.333631075575012E+01,      /* I = 58 */
(PID.TID 0000.0001)                 1.333646339354350E+01,      /* I = 59 */
(PID.TID 0000.0001)                 1.333662385535963E+01,      /* I = 60 */
(PID.TID 0000.0001)                 1.333679254214663E+01,      /* I = 61 */
(PID.TID 0000.0001)                 1.333696987538879E+01,      /* I = 62 */
(PID.TID 0000.0001)                 1.333715629815737E+01,      /* I = 63 */
(PID.TID 0000.0001)                 1.333735227621493E+01,      /* I = 64 */
(PID.TID 0000.0001)                 1.333755829917607E+01,      /* I = 65 */
(PID.TID 0000.0001)                 1.333777488172740E+01,      /* I = 66 */
(PID.TID 0000.0001)                 1.333800256490973E+01,      /* I = 67 */
(PID.TID 0000.0001)                 1.333824191746569E+01,      /* I = 68 */
(PID.TID 0000.0001)                 1.333849353725603E+01,      /* I = 69 */
(PID.TID 0000.0001)                 1.333875805274814E+01,      /* I = 70 */
(PID.TID 0000.0001)                 1.333903612458039E+01,      /* I = 71 */
(PID.TID 0000.0001)                 1.333932844720622E+01,      /* I = 72 */
(PID.TID 0000.0001)                 1.333963575062193E+01,      /* I = 73 */
(PID.TID 0000.0001)                 1.333995880218238E+01,      /* I = 74 */
(PID.TID 0000.0001)                 1.334029840850922E+01,      /* I = 75 */
(PID.TID 0000.0001)                 1.334065541749604E+01,      /* I = 76 */
(PID.TID 0000.0001)                 1.334103072041559E+01,      /* I = 77 */
(PID.TID 0000.0001)                 1.334142525413410E+01,      /* I = 78 */
(PID.TID 0000.0001)                 1.334184000343805E+01,      /* I = 79 */
(PID.TID 0000.0001)                 1.334227600347911E+01,      /* I = 80 */
(PID.TID 0000.0001)                 1.334273434234323E+01,      /* I = 81 */
(PID.TID 0000.0001)                 1.334321616375004E+01,      /* I = 82 */
(PID.TID 0000.0001)                 1.334372266988904E+01,      /* I = 83 */
(PID.TID 0000.0001)                 1.334425512439963E+01,      /* I = 84 */
(PID.TID 0000.0001)                 1.334481485550199E+01,      /* I = 85 */
(PID.TID 0000.0001)                 1.334540325928642E+01,      /* I = 86 */
(PID.TID 0000.0001)                 1.334602180316902E+01,      /* I = 87 */
(PID.TID 0000.0001)                 1.334667202952212E+01,      /* I = 88 */
(PID.TID 0000.0001)                 1.334735555948791E+01,      /* I = 89 */
(PID.TID 0000.0001)                 1.334807409698463E+01,      /* I = 90 */
(PID.TID 0000.0001)                 1.334882943291471E+01,      /* I = 91 */
(PID.TID 0000.0001)                 1.334962344958492E+01,      /* I = 92 */
(PID.TID 0000.0001)                 1.335045812534896E+01,      /* I = 93 */
(PID.TID 0000.0001)                 1.335133553948354E+01,      /* I = 94 */
(PID.TID 0000.0001)                 1.335225787730935E+01,      /* I = 95 */
(PID.TID 0000.0001)                 1.335322743556898E+01,      /* I = 96 */
(PID.TID 0000.0001)                 1.335424662807443E+01,      /* I = 97 */
(PID.TID 0000.0001)                 1.335531799163729E+01,      /* I = 98 */
(PID.TID 0000.0001)                 1.335644419229545E+01,      /* I = 99 */
(PID.TID 0000.0001)                 1.335762803185068E+01,      /* I =100 */
(PID.TID 0000.0001)                 1.335887245473227E+01,      /* I =101 */
(PID.TID 0000.0001)                 1.336018055520228E+01,      /* I =102 */
(PID.TID 0000.0001)                 1.336155558491909E+01,      /* I =103 */
(PID.TID 0000.0001)                 1.336300096087628E+01,      /* I =104 */
(PID.TID 0000.0001)                 1.336452027373481E+01,      /* I =105 */
(PID.TID 0000.0001)                 1.336611729656740E+01,      /* I =106 */
(PID.TID 0000.0001)                 1.336779599403433E+01,      /* I =107 */
(PID.TID 0000.0001)                 1.336956053201144E+01,      /* I =108 */
(PID.TID 0000.0001)                 1.337141528769127E+01,      /* I =109 */
(PID.TID 0000.0001)                 1.337336486017965E+01,      /* I =110 */
(PID.TID 0000.0001)                 1.337541408161077E+01,      /* I =111 */
(PID.TID 0000.0001)                 1.337756802880465E+01,      /* I =112 */
(PID.TID 0000.0001)                 1.337983203549213E+01,      /* I =113 */
(PID.TID 0000.0001)                 1.338221170513314E+01,      /* I =114 */
(PID.TID 0000.0001)                 1.338471292435540E+01,      /* I =115 */
(PID.TID 0000.0001)                 1.338734187704133E+01,      /* I =116 */
(PID.TID 0000.0001)                 1.339010505909238E+01,      /* I =117 */
(PID.TID 0000.0001)                 1.339300929390070E+01,      /* I =118 */
(PID.TID 0000.0001)                 1.339606174855942E+01,      /* I =119 */
(PID.TID 0000.0001)                 1.339926995084359E+01,      /* I =120 */
(PID.TID 0000.0001)                 1.340264180699529E+01,      /* I =121 */
(PID.TID 0000.0001)                 1.340618562034696E+01,      /* I =122 */
(PID.TID 0000.0001)                 1.340991011081868E+01,      /* I =123 */
(PID.TID 0000.0001)                 1.341382443532556E+01,      /* I =124 */
(PID.TID 0000.0001)                 1.341793820913294E+01,      /* I =125 */
(PID.TID 0000.0001)                 1.342226152819769E+01,      /* I =126 */
(PID.TID 0000.0001)                 1.342680499253510E+01,      /* I =127 */
(PID.TID 0000.0001)                 1.343157973065163E+01,      /* I =128 */
(PID.TID 0000.0001)                 1.343659742508456E+01,      /* I =129 */
(PID.TID 0000.0001)                 1.344187033909057E+01,      /* I =130 */
(PID.TID 0000.0001)                 1.344741134452547E+01,      /* I =131 */
(PID.TID 0000.0001)                 1.345323395095843E+01,      /* I =132 */
(PID.TID 0000.0001)                 1.345935233606388E+01,      /* I =133 */
(PID.TID 0000.0001)                 1.346578137733485E+01,      /* I =134 */
(PID.TID 0000.0001)                 1.347253668516156E+01,      /* I =135 */
(PID.TID 0000.0001)                 1.347963463731868E+01,      /* I =136 */
(PID.TID 0000.0001)                 1.348709241490466E+01,      /* I =137 */
(PID.TID 0000.0001)                 1.349492803977558E+01,      /* I =138 */
(PID.TID 0000.0001)                 1.350316041351508E+01,      /* I =139 */
(PID.TID 0000.0001)                 1.351180935798093E+01,      /* I =140 */
(PID.TID 0000.0001)                 1.352089565746654E+01,      /* I =141 */
(PID.TID 0000.0001)                 1.353044110251419E+01,      /* I =142 */
(PID.TID 0000.0001)                 1.354046853541373E+01,      /* I =143 */
(PID.TID 0000.0001)                 1.355100189741760E+01,      /* I =144 */
(PID.TID 0000.0001)                 1.356206627769899E+01,      /* I =145 */
(PID.TID 0000.0001)                 1.357368796407594E+01,      /* I =146 */
(PID.TID 0000.0001)                 1.358589449551856E+01,      /* I =147 */
(PID.TID 0000.0001)                 1.359871471645078E+01,      /* I =148 */
(PID.TID 0000.0001)                 1.361217883285115E+01,      /* I =149 */
(PID.TID 0000.0001)                 1.362631847014915E+01,      /* I =150 */
(PID.TID 0000.0001)                 1.364116673290460E+01,      /* I =151 */
(PID.TID 0000.0001)                 1.365675826624731E+01,      /* I =152 */
(PID.TID 0000.0001)                 1.367312931904298E+01,      /* I =153 */
(PID.TID 0000.0001)                 1.369031780873773E+01,      /* I =154 */
(PID.TID 0000.0001)                 1.370836338781988E+01,      /* I =155 */
(PID.TID 0000.0001)                 1.372730751182062E+01,      /* I =156 */
(PID.TID 0000.0001)                 1.374719350875757E+01,      /* I =157 */
(PID.TID 0000.0001)                 1.376806664990509E+01,      /* I =158 */
(PID.TID 0000.0001)                 1.378997422175274E+01,      /* I =159 */
(PID.TID 0000.0001)                 1.381296559898911E+01,      /* I =160 */
(PID.TID 0000.0001)                 1.383709231832104E+01,      /* I =161 */
(PID.TID 0000.0001)                 1.386240815290873E+01,      /* I =162 */
(PID.TID 0000.0001)                 1.388896918716481E+01,      /* I =163 */
(PID.TID 0000.0001)                 1.391683389163015E+01,      /* I =164 */
(PID.TID 0000.0001)                 1.394606319760068E+01,      /* I =165 */
(PID.TID 0000.0001)                 1.397672057113785E+01,      /* I =166 */
(PID.TID 0000.0001)                 1.400887208604991E+01,      /* I =167 */
(PID.TID 0000.0001)                 1.404258649538309E+01,      /* I =168 */
(PID.TID 0000.0001)                 1.407793530090862E+01,      /* I =169 */
(PID.TID 0000.0001)                 1.411499282003617E+01,      /* I =170 */
(PID.TID 0000.0001)                 1.415383624952395E+01,      /* I =171 */
(PID.TID 0000.0001)                 1.419454572529201E+01,      /* I =172 */
(PID.TID 0000.0001)                 1.423720437757808E+01,      /* I =173 */
(PID.TID 0000.0001)                 1.428189838060363E+01,      /* I =174 */
(PID.TID 0000.0001)                 1.432871699584345E+01,      /* I =175 */
(PID.TID 0000.0001)                 1.437775260791372E+01,      /* I =176 */
(PID.TID 0000.0001)                 1.442910075201240E+01,      /* I =177 */
(PID.TID 0000.0001)                 1.448286013176230E+01,      /* I =178 */
(PID.TID 0000.0001)                 1.453913262622100E+01,      /* I =179 */
(PID.TID 0000.0001)                 1.459802328473512E+01,      /* I =180 */
(PID.TID 0000.0001)                 1.465964030822818E+01,      /* I =181 */
(PID.TID 0000.0001)                 1.472409501542447E+01,      /* I =182 */
(PID.TID 0000.0001)                 1.479150179242509E+01,      /* I =183 */
(PID.TID 0000.0001)                 1.486197802396983E+01,      /* I =184 */
(PID.TID 0000.0001)                 1.493564400464020E+01,      /* I =185 */
(PID.TID 0000.0001)                 1.501262282818657E+01,      /* I =186 */
(PID.TID 0000.0001)                 1.509304025309917E+01,      /* I =187 */
(PID.TID 0000.0001)                 1.517702454248925E+01,      /* I =188 */
(PID.TID 0000.0001)                 1.526470627630714E+01,      /* I =189 */
(PID.TID 0000.0001)                 1.535621813389983E+01,      /* I =190 */
(PID.TID 0000.0001)                 1.545169464490609E+01,      /* I =191 */
(PID.TID 0000.0001)                 1.555127190650460E+01,      /* I =192 */
(PID.TID 0000.0001)                 1.565508726507390E+01,      /* I =193 */
(PID.TID 0000.0001)                 1.576327896039616E+01,      /* I =194 */
(PID.TID 0000.0001)                 1.587598573064292E+01,      /* I =195 */
(PID.TID 0000.0001)                 1.599334637652494E+01,      /* I =196 */
(PID.TID 0000.0001)                 1.611549928317337E+01,      /* I =197 */
(PID.TID 0000.0001)                 1.624258189854968E+01,      /* I =198 */
(PID.TID 0000.0001)                 1.637473016746109E+01,      /* I =199 */
(PID.TID 0000.0001)                 1.651207792058980E+01,      /* I =200 */
(PID.TID 0000.0001)                 1.665475621833111E+01,      /* I =201 */
(PID.TID 0000.0001)                 1.680289264967994E+01,      /* I =202 */
(PID.TID 0000.0001)                 1.695661058690918E+01,      /* I =203 */
(PID.TID 0000.0001)                 1.711602839734634E+01,      /* I =204 */
(PID.TID 0000.0001)                 1.728125861417839E+01,      /* I =205 */
(PID.TID 0000.0001)                 1.745240706889426E+01,      /* I =206 */
(PID.TID 0000.0001)                 1.762957198870894E+01,      /* I =207 */
(PID.TID 0000.0001)                 1.781284306309535E+01,      /* I =208 */
(PID.TID 0000.0001)                 1.800230048437439E+01,      /* I =209 */
(PID.TID 0000.0001)                 1.819801396816951E+01,      /* I =210 */
(PID.TID 0000.0001)                 1.840004176040835E+01,      /* I =211 */
(PID.TID 0000.0001)                 1.860842963843782E+01,      /* I =212 */
(PID.TID 0000.0001)                 1.882320991469193E+01,      /* I =213 */
(PID.TID 0000.0001)                 1.904440045219844E+01,      /* I =214 */
(PID.TID 0000.0001)                 1.927200370200823E+01,      /* I =215 */
(PID.TID 0000.0001)                 1.950600577335953E+01,      /* I =216 */
(PID.TID 0000.0001)                 1.974637554802371E+01,      /* I =217 */
(PID.TID 0000.0001)                 1.999306385079687E+01,      /* I =218 */
(PID.TID 0000.0001)                 2.024600268847589E+01,      /* I =219 */
(PID.TID 0000.0001)                 2.050510456986654E+01,      /* I =220 */
(PID.TID 0000.0001)                 2.077026191939032E+01,      /* I =221 */
(PID.TID 0000.0001)                 2.104134659666656E+01,      /* I =222 */
(PID.TID 0000.0001)                 2.131820953402739E+01,      /* I =223 */
(PID.TID 0000.0001)                 2.160068050326367E+01,      /* I =224 */
(PID.TID 0000.0001)                 2.188856802198952E+01,      /* I =225 */
(PID.TID 0000.0001)                 2.218165940884890E+01,      /* I =226 */
(PID.TID 0000.0001)                 2.247972099537336E+01,      /* I =227 */
(PID.TID 0000.0001)                 2.278249850064545E+01,      /* I =228 */
(PID.TID 0000.0001)                 2.308971757304531E+01,      /* I =229 */
(PID.TID 0000.0001)                 2.340108450128388E+01,      /* I =230 */
(PID.TID 0000.0001)                 2.371628709468741E+01,      /* I =231 */
(PID.TID 0000.0001)                 2.403499573033461E+01,      /* I =232 */
(PID.TID 0000.0001)                 2.435686456220453E+01,      /* I =233 */
(PID.TID 0000.0001)                 2.468153288502243E+01,      /* I =234 */
(PID.TID 0000.0001)                 2.500862664304538E+01,      /* I =235 */
(PID.TID 0000.0001)                 2.533776007166725E+01,      /* I =236 */
(PID.TID 0000.0001)                 2.566853745750001E+01,      /* I =237 */
(PID.TID 0000.0001)                 2.600055500056160E+01,      /* I =238 */
(PID.TID 0000.0001)                 2.633340276042106E+01,      /* I =239 */
(PID.TID 0000.0001)                 2.666666666666666E+01,      /* I =240 */
(PID.TID 0000.0001)                 2.699993057291228E+01,      /* I =241 */
(PID.TID 0000.0001)                 2.733277833277173E+01,      /* I =242 */
(PID.TID 0000.0001)                 2.766479587583332E+01,      /* I =243 */
(PID.TID 0000.0001)                 2.799557326166608E+01,      /* I =244 */
(PID.TID 0000.0001)                 2.832470669028795E+01,      /* I =245 */
(PID.TID 0000.0001)                 2.865180044831091E+01,      /* I =246 */
(PID.TID 0000.0001)                 2.897646877112880E+01,      /* I =247 */
(PID.TID 0000.0001)                 2.929833760299872E+01,      /* I =248 */
(PID.TID 0000.0001)                 2.961704623864592E+01,      /* I =249 */
(PID.TID 0000.0001)                 2.993224883204945E+01,      /* I =250 */
(PID.TID 0000.0001)                 3.024361576028802E+01,      /* I =251 */
(PID.TID 0000.0001)                 3.055083483268788E+01,      /* I =252 */
(PID.TID 0000.0001)                 3.085361233795997E+01,      /* I =253 */
(PID.TID 0000.0001)                 3.115167392448443E+01,      /* I =254 */
(PID.TID 0000.0001)                 3.144476531134382E+01,      /* I =255 */
(PID.TID 0000.0001)                 3.173265283006967E+01,      /* I =256 */
(PID.TID 0000.0001)                 3.201512379930595E+01,      /* I =257 */
(PID.TID 0000.0001)                 3.229198673666677E+01,      /* I =258 */
(PID.TID 0000.0001)                 3.256307141394301E+01,      /* I =259 */
(PID.TID 0000.0001)                 3.282822876346680E+01,      /* I =260 */
(PID.TID 0000.0001)                 3.308733064485744E+01,      /* I =261 */
(PID.TID 0000.0001)                 3.334026948253647E+01,      /* I =262 */
(PID.TID 0000.0001)                 3.358695778530962E+01,      /* I =263 */
(PID.TID 0000.0001)                 3.382732755997380E+01,      /* I =264 */
(PID.TID 0000.0001)                 3.406132963132509E+01,      /* I =265 */
(PID.TID 0000.0001)                 3.428893288113490E+01,      /* I =266 */
(PID.TID 0000.0001)                 3.451012341864140E+01,      /* I =267 */
(PID.TID 0000.0001)                 3.472490369489551E+01,      /* I =268 */
(PID.TID 0000.0001)                 3.493329157292499E+01,      /* I =269 */
(PID.TID 0000.0001)                 3.513531936516383E+01,      /* I =270 */
(PID.TID 0000.0001)                 3.533103284895893E+01,      /* I =271 */
(PID.TID 0000.0001)                 3.552049027023799E+01,      /* I =272 */
(PID.TID 0000.0001)                 3.570376134462440E+01,      /* I =273 */
(PID.TID 0000.0001)                 3.588092626443907E+01,      /* I =274 */
(PID.TID 0000.0001)                 3.605207471915494E+01,      /* I =275 */
(PID.TID 0000.0001)                 3.621730493598699E+01,      /* I =276 */
(PID.TID 0000.0001)                 3.637672274642415E+01,      /* I =277 */
(PID.TID 0000.0001)                 3.653044068365339E+01,      /* I =278 */
(PID.TID 0000.0001)                 3.667857711500223E+01,      /* I =279 */
(PID.TID 0000.0001)                 3.682125541274353E+01,      /* I =280 */
(PID.TID 0000.0001)                 3.695860316587224E+01,      /* I =281 */
(PID.TID 0000.0001)                 3.709075143478366E+01,      /* I =282 */
(PID.TID 0000.0001)                 3.721783405015996E+01,      /* I =283 */
(PID.TID 0000.0001)                 3.733998695680840E+01,      /* I =284 */
(PID.TID 0000.0001)                 3.745734760269041E+01,      /* I =285 */
(PID.TID 0000.0001)                 3.757005437293716E+01,      /* I =286 */
(PID.TID 0000.0001)                 3.767824606825943E+01,      /* I =287 */
(PID.TID 0000.0001)                 3.778206142682873E+01,      /* I =288 */
(PID.TID 0000.0001)                 3.788163868842724E+01,      /* I =289 */
(PID.TID 0000.0001)                 3.797711519943351E+01,      /* I =290 */
(PID.TID 0000.0001)                 3.806862705702619E+01,      /* I =291 */
(PID.TID 0000.0001)                 3.815630879084409E+01,      /* I =292 */
(PID.TID 0000.0001)                 3.824029308023417E+01,      /* I =293 */
(PID.TID 0000.0001)                 3.832071050514676E+01,      /* I =294 */
(PID.TID 0000.0001)                 3.839768932869313E+01,      /* I =295 */
(PID.TID 0000.0001)                 3.847135530936350E+01,      /* I =296 */
(PID.TID 0000.0001)                 3.854183154090824E+01,      /* I =297 */
(PID.TID 0000.0001)                 3.860923831790885E+01,      /* I =298 */
(PID.TID 0000.0001)                 3.867369302510515E+01,      /* I =299 */
(PID.TID 0000.0001)                 3.873531004859822E+01,      /* I =300 */
(PID.TID 0000.0001)                 3.879420070711233E+01,      /* I =301 */
(PID.TID 0000.0001)                 3.885047320157103E+01,      /* I =302 */
(PID.TID 0000.0001)                 3.890423258132093E+01,      /* I =303 */
(PID.TID 0000.0001)                 3.895558072541962E+01,      /* I =304 */
(PID.TID 0000.0001)                 3.900461633748988E+01,      /* I =305 */
(PID.TID 0000.0001)                 3.905143495272970E+01,      /* I =306 */
(PID.TID 0000.0001)                 3.909612895575525E+01,      /* I =307 */
(PID.TID 0000.0001)                 3.913878760804132E+01,      /* I =308 */
(PID.TID 0000.0001)                 3.917949708380939E+01,      /* I =309 */
(PID.TID 0000.0001)                 3.921834051329716E+01,      /* I =310 */
(PID.TID 0000.0001)                 3.925539803242471E+01,      /* I =311 */
(PID.TID 0000.0001)                 3.929074683795024E+01,      /* I =312 */
(PID.TID 0000.0001)                 3.932446124728342E+01,      /* I =313 */
(PID.TID 0000.0001)                 3.935661276219549E+01,      /* I =314 */
(PID.TID 0000.0001)                 3.938727013573265E+01,      /* I =315 */
(PID.TID 0000.0001)                 3.941649944170319E+01,      /* I =316 */
(PID.TID 0000.0001)                 3.944436414616852E+01,      /* I =317 */
(PID.TID 0000.0001)                 3.947092518042460E+01,      /* I =318 */
(PID.TID 0000.0001)                 3.949624101501229E+01,      /* I =319 */
(PID.TID 0000.0001)                 3.952036773434423E+01       /* I =320 */
(PID.TID 0000.0001)     ;
(PID.TID 0000.0001) dxF =  /* dxF(1,:,1,:) ( m - cartesian, degrees - spherical ) */
(PID.TID 0000.0001)                 1.333350557843028E+01       /* J =  1 */
(PID.TID 0000.0001)     ;
(PID.TID 0000.0001) dyF =  /* dyF(:,1,:,1) ( m - cartesian, degrees - spherical ) */
(PID.TID 0000.0001)   320 @  2.000000000000000E+02              /* I =  1:320 */
(PID.TID 0000.0001)     ;
(PID.TID 0000.0001) dyF =  /* dyF(1,:,1,:) ( m - cartesian, degrees - spherical ) */
(PID.TID 0000.0001)                 2.000000000000000E+02       /* J =  1 */
(PID.TID 0000.0001)     ;
(PID.TID 0000.0001) dxG =  /* dxG(:,1,:,1) ( m - cartesian, degrees - spherical ) */
(PID.TID 0000.0001)                 1.333350557843028E+01,      /* I =  1 */
(PID.TID 0000.0001)                 1.333351440956528E+01,      /* I =  2 */
(PID.TID 0000.0001)                 1.333352369347595E+01,      /* I =  3 */
(PID.TID 0000.0001)                 1.333353345337592E+01,      /* I =  4 */
(PID.TID 0000.0001)                 1.333354371366897E+01,      /* I =  5 */
(PID.TID 0000.0001)                 1.333355450000997E+01,      /* I =  6 */
(PID.TID 0000.0001)                 1.333356583936910E+01,      /* I =  7 */
(PID.TID 0000.0001)                 1.333357776009920E+01,      /* I =  8 */
(PID.TID 0000.0001)                 1.333359029200671E+01,      /* I =  9 */
(PID.TID 0000.0001)                 1.333360346642616E+01,      /* I = 10 */
(PID.TID 0000.0001)                 1.333361731629850E+01,      /* I = 11 */
(PID.TID 0000.0001)                 1.333363187625347E+01,      /* I = 12 */
(PID.TID 0000.0001)                 1.333364718269615E+01,      /* I = 13 */
(PID.TID 0000.0001)                 1.333366327389799E+01,      /* I = 14 */
(PID.TID 0000.0001)                 1.333368019009244E+01,      /* I = 15 */
(PID.TID 0000.0001)                 1.333369797357559E+01,      /* I = 16 */
(PID.TID 0000.0001)                 1.333371666881184E+01,      /* I = 17 */
(PID.TID 0000.0001)                 1.333373632254509E+01,      /* I = 18 */
(PID.TID 0000.0001)                 1.333375698391556E+01,      /* I = 19 */
(PID.TID 0000.0001)                 1.333377870458262E+01,      /* I = 20 */
(PID.TID 0000.0001)                 1.333380153885394E+01,      /* I = 21 */
(PID.TID 0000.0001)                 1.333382554382122E+01,      /* I = 22 */
(PID.TID 0000.0001)                 1.333385077950289E+01,      /* I = 23 */
(PID.TID 0000.0001)                 1.333387730899413E+01,      /* I = 24 */
(PID.TID 0000.0001)                 1.333390519862456E+01,      /* I = 25 */
(PID.TID 0000.0001)                 1.333393451812401E+01,      /* I = 26 */
(PID.TID 0000.0001)                 1.333396534079683E+01,      /* I = 27 */
(PID.TID 0000.0001)                 1.333399774370505E+01,      /* I = 28 */
(PID.TID 0000.0001)                 1.333403180786100E+01,      /* I = 29 */
(PID.TID 0000.0001)                 1.333406761842972E+01,      /* I = 30 */
(PID.TID 0000.0001)                 1.333410526494186E+01,      /* I = 31 */
(PID.TID 0000.0001)                 1.333414484151735E+01,      /* I = 32 */
(PID.TID 0000.0001)                 1.333418644710058E+01,      /* I = 33 */
(PID.TID 0000.0001)                 1.333423018570770E+01,      /* I = 34 */
(PID.TID 0000.0001)                 1.333427616668645E+01,      /* I = 35 */
(PID.TID 0000.0001)                 1.333432450498941E+01,      /* I = 36 */
(PID.TID 0000.0001)                 1.333437532146121E+01,      /* I = 37 */
(PID.TID 0000.0001)                 1.333442874314039E+01,      /* I = 38 */
(PID.TID 0000.0001)                 1.333448490357685E+01,      /* I = 39 */
(PID.TID 0000.0001)                 1.333454394316540E+01,      /* I = 40 */
(PID.TID 0000.0001)                 1.333460600949649E+01,      /* I = 41 */
(PID.TID 0000.0001)                 1.333467125772490E+01,      /* I = 42 */
(PID.TID 0000.0001)                 1.333473985095722E+01,      /* I = 43 */
(PID.TID 0000.0001)                 1.333481196065927E+01,      /* I = 44 */
(PID.TID 0000.0001)                 1.333488776708430E+01,      /* I = 45 */
(PID.TID 0000.0001)                 1.333496745972311E+01,      /* I = 46 */
(PID.TID 0000.0001)                 1.333505123777728E+01,      /* I = 47 */
(PID.TID 0000.0001)                 1.333513931065653E+01,      /* I = 48 */
(PID.TID 0000.0001)                 1.333523189850155E+01,      /* I = 49 */
(PID.TID 0000.0001)                 1.333532923273362E+01,      /* I = 50 */
(PID.TID 0000.0001)                 1.333543155663230E+01,      /* I = 51 */
(PID.TID 0000.0001)                 1.333553912594271E+01,      /* I = 52 */
(PID.TID 0000.0001)                 1.333565220951381E+01,      /* I = 53 */
(PID.TID 0000.0001)                 1.333577108996939E+01,      /* I = 54 */
(PID.TID 0000.0001)                 1.333589606441332E+01,      /* I = 55 */
(PID.TID 0000.0001)                 1.333602744517087E+01,      /* I = 56 */
(PID.TID 0000.0001)                 1.333616556056795E+01,      /* I = 57 */
(PID.TID 0000.0001)                 1.333631075575012E+01,      /* I = 58 */
(PID.TID 0000.0001)                 1.333646339354350E+01,      /* I = 59 */
(PID.TID 0000.0001)                 1.333662385535963E+01,      /* I = 60 */
(PID.TID 0000.0001)                 1.333679254214663E+01,      /* I = 61 */
(PID.TID 0000.0001)                 1.333696987538879E+01,      /* I = 62 */
(PID.TID 0000.0001)                 1.333715629815737E+01,      /* I = 63 */
(PID.TID 0000.0001)                 1.333735227621493E+01,      /* I = 64 */
(PID.TID 0000.0001)                 1.333755829917607E+01,      /* I = 65 */
(PID.TID 0000.0001)                 1.333777488172740E+01,      /* I = 66 */
(PID.TID 0000.0001)                 1.333800256490973E+01,      /* I = 67 */
(PID.TID 0000.0001)                 1.333824191746569E+01,      /* I = 68 */
(PID.TID 0000.0001)                 1.333849353725603E+01,      /* I = 69 */
(PID.TID 0000.0001)                 1.333875805274814E+01,      /* I = 70 */
(PID.TID 0000.0001)                 1.333903612458039E+01,      /* I = 71 */
(PID.TID 0000.0001)                 1.333932844720622E+01,      /* I = 72 */
(PID.TID 0000.0001)                 1.333963575062193E+01,      /* I = 73 */
(PID.TID 0000.0001)                 1.333995880218238E+01,      /* I = 74 */
(PID.TID 0000.0001)                 1.334029840850922E+01,      /* I = 75 */
(PID.TID 0000.0001)                 1.334065541749604E+01,      /* I = 76 */
(PID.TID 0000.0001)                 1.334103072041559E+01,      /* I = 77 */
(PID.TID 0000.0001)                 1.334142525413410E+01,      /* I = 78 */
(PID.TID 0000.0001)                 1.334184000343805E+01,      /* I = 79 */
(PID.TID 0000.0001)                 1.334227600347911E+01,      /* I = 80 */
(PID.TID 0000.0001)                 1.334273434234323E+01,      /* I = 81 */
(PID.TID 0000.0001)                 1.334321616375004E+01,      /* I = 82 */
(PID.TID 0000.0001)                 1.334372266988904E+01,      /* I = 83 */
(PID.TID 0000.0001)                 1.334425512439963E+01,      /* I = 84 */
(PID.TID 0000.0001)                 1.334481485550199E+01,      /* I = 85 */
(PID.TID 0000.0001)                 1.334540325928642E+01,      /* I = 86 */
(PID.TID 0000.0001)                 1.334602180316902E+01,      /* I = 87 */
(PID.TID 0000.0001)                 1.334667202952212E+01,      /* I = 88 */
(PID.TID 0000.0001)                 1.334735555948791E+01,      /* I = 89 */
(PID.TID 0000.0001)                 1.334807409698463E+01,      /* I = 90 */
(PID.TID 0000.0001)                 1.334882943291471E+01,      /* I = 91 */
(PID.TID 0000.0001)                 1.334962344958492E+01,      /* I = 92 */
(PID.TID 0000.0001)                 1.335045812534896E+01,      /* I = 93 */
(PID.TID 0000.0001)                 1.335133553948354E+01,      /* I = 94 */
(PID.TID 0000.0001)                 1.335225787730935E+01,      /* I = 95 */
(PID.TID 0000.0001)                 1.335322743556898E+01,      /* I = 96 */
(PID.TID 0000.0001)                 1.335424662807443E+01,      /* I = 97 */
(PID.TID 0000.0001)                 1.335531799163729E+01,      /* I = 98 */
(PID.TID 0000.0001)                 1.335644419229545E+01,      /* I = 99 */
(PID.TID 0000.0001)                 1.335762803185068E+01,      /* I =100 */
(PID.TID 0000.0001)                 1.335887245473227E+01,      /* I =101 */
(PID.TID 0000.0001)                 1.336018055520228E+01,      /* I =102 */
(PID.TID 0000.0001)                 1.336155558491909E+01,      /* I =103 */
(PID.TID 0000.0001)                 1.336300096087628E+01,      /* I =104 */
(PID.TID 0000.0001)                 1.336452027373481E+01,      /* I =105 */
(PID.TID 0000.0001)                 1.336611729656740E+01,      /* I =106 */
(PID.TID 0000.0001)                 1.336779599403433E+01,      /* I =107 */
(PID.TID 0000.0001)                 1.336956053201144E+01,      /* I =108 */
(PID.TID 0000.0001)                 1.337141528769127E+01,      /* I =109 */
(PID.TID 0000.0001)                 1.337336486017965E+01,      /* I =110 */
(PID.TID 0000.0001)                 1.337541408161077E+01,      /* I =111 */
(PID.TID 0000.0001)                 1.337756802880465E+01,      /* I =112 */
(PID.TID 0000.0001)                 1.337983203549213E+01,      /* I =113 */
(PID.TID 0000.0001)                 1.338221170513314E+01,      /* I =114 */
(PID.TID 0000.0001)                 1.338471292435540E+01,      /* I =115 */
(PID.TID 0000.0001)                 1.338734187704133E+01,      /* I =116 */
(PID.TID 0000.0001)                 1.339010505909238E+01,      /* I =117 */
(PID.TID 0000.0001)                 1.339300929390070E+01,      /* I =118 */
(PID.TID 0000.0001)                 1.339606174855942E+01,      /* I =119 */
(PID.TID 0000.0001)                 1.339926995084359E+01,      /* I =120 */
(PID.TID 0000.0001)                 1.340264180699529E+01,      /* I =121 */
(PID.TID 0000.0001)                 1.340618562034696E+01,      /* I =122 */
(PID.TID 0000.0001)                 1.340991011081868E+01,      /* I =123 */
(PID.TID 0000.0001)                 1.341382443532556E+01,      /* I =124 */
(PID.TID 0000.0001)                 1.341793820913294E+01,      /* I =125 */
(PID.TID 0000.0001)                 1.342226152819769E+01,      /* I =126 */
(PID.TID 0000.0001)                 1.342680499253510E+01,      /* I =127 */
(PID.TID 0000.0001)                 1.343157973065163E+01,      /* I =128 */
(PID.TID 0000.0001)                 1.343659742508456E+01,      /* I =129 */
(PID.TID 0000.0001)                 1.344187033909057E+01,      /* I =130 */
(PID.TID 0000.0001)                 1.344741134452547E+01,      /* I =131 */
(PID.TID 0000.0001)                 1.345323395095843E+01,      /* I =132 */
(PID.TID 0000.0001)                 1.345935233606388E+01,      /* I =133 */
(PID.TID 0000.0001)                 1.346578137733485E+01,      /* I =134 */
(PID.TID 0000.0001)                 1.347253668516156E+01,      /* I =135 */
(PID.TID 0000.0001)                 1.347963463731868E+01,      /* I =136 */
(PID.TID 0000.0001)                 1.348709241490466E+01,      /* I =137 */
(PID.TID 0000.0001)                 1.349492803977558E+01,      /* I =138 */
(PID.TID 0000.0001)                 1.350316041351508E+01,      /* I =139 */
(PID.TID 0000.0001)                 1.351180935798093E+01,      /* I =140 */
(PID.TID 0000.0001)                 1.352089565746654E+01,      /* I =141 */
(PID.TID 0000.0001)                 1.353044110251419E+01,      /* I =142 */
(PID.TID 0000.0001)                 1.354046853541373E+01,      /* I =143 */
(PID.TID 0000.0001)                 1.355100189741760E+01,      /* I =144 */
(PID.TID 0000.0001)                 1.356206627769899E+01,      /* I =145 */
(PID.TID 0000.0001)                 1.357368796407594E+01,      /* I =146 */
(PID.TID 0000.0001)                 1.358589449551856E+01,      /* I =147 */
(PID.TID 0000.0001)                 1.359871471645078E+01,      /* I =148 */
(PID.TID 0000.0001)                 1.361217883285115E+01,      /* I =149 */
(PID.TID 0000.0001)                 1.362631847014915E+01,      /* I =150 */
(PID.TID 0000.0001)                 1.364116673290460E+01,      /* I =151 */
(PID.TID 0000.0001)                 1.365675826624731E+01,      /* I =152 */
(PID.TID 0000.0001)                 1.367312931904298E+01,      /* I =153 */
(PID.TID 0000.0001)                 1.369031780873773E+01,      /* I =154 */
(PID.TID 0000.0001)                 1.370836338781988E+01,      /* I =155 */
(PID.TID 0000.0001)                 1.372730751182062E+01,      /* I =156 */
(PID.TID 0000.0001)                 1.374719350875757E+01,      /* I =157 */
(PID.TID 0000.0001)                 1.376806664990509E+01,      /* I =158 */
(PID.TID 0000.0001)                 1.378997422175274E+01,      /* I =159 */
(PID.TID 0000.0001)                 1.381296559898911E+01,      /* I =160 */
(PID.TID 0000.0001)                 1.383709231832104E+01,      /* I =161 */
(PID.TID 0000.0001)                 1.386240815290873E+01,      /* I =162 */
(PID.TID 0000.0001)                 1.388896918716481E+01,      /* I =163 */
(PID.TID 0000.0001)                 1.391683389163015E+01,      /* I =164 */
(PID.TID 0000.0001)                 1.394606319760068E+01,      /* I =165 */
(PID.TID 0000.0001)                 1.397672057113785E+01,      /* I =166 */
(PID.TID 0000.0001)                 1.400887208604991E+01,      /* I =167 */
(PID.TID 0000.0001)                 1.404258649538309E+01,      /* I =168 */
(PID.TID 0000.0001)                 1.407793530090862E+01,      /* I =169 */
(PID.TID 0000.0001)                 1.411499282003617E+01,      /* I =170 */
(PID.TID 0000.0001)                 1.415383624952395E+01,      /* I =171 */
(PID.TID 0000.0001)                 1.419454572529201E+01,      /* I =172 */
(PID.TID 0000.0001)                 1.423720437757808E+01,      /* I =173 */
(PID.TID 0000.0001)                 1.428189838060363E+01,      /* I =174 */
(PID.TID 0000.0001)                 1.432871699584345E+01,      /* I =175 */
(PID.TID 0000.0001)                 1.437775260791372E+01,      /* I =176 */
(PID.TID 0000.0001)                 1.442910075201240E+01,      /* I =177 */
(PID.TID 0000.0001)                 1.448286013176230E+01,      /* I =178 */
(PID.TID 0000.0001)                 1.453913262622100E+01,      /* I =179 */
(PID.TID 0000.0001)                 1.459802328473512E+01,      /* I =180 */
(PID.TID 0000.0001)                 1.465964030822818E+01,      /* I =181 */
(PID.TID 0000.0001)                 1.472409501542447E+01,      /* I =182 */
(PID.TID 0000.0001)                 1.479150179242509E+01,      /* I =183 */
(PID.TID 0000.0001)                 1.486197802396983E+01,      /* I =184 */
(PID.TID 0000.0001)                 1.493564400464020E+01,      /* I =185 */
(PID.TID 0000.0001)                 1.501262282818657E+01,      /* I =186 */
(PID.TID 0000.0001)                 1.509304025309917E+01,      /* I =187 */
(PID.TID 0000.0001)                 1.517702454248925E+01,      /* I =188 */
(PID.TID 0000.0001)                 1.526470627630714E+01,      /* I =189 */
(PID.TID 0000.0001)                 1.535621813389983E+01,      /* I =190 */
(PID.TID 0000.0001)                 1.545169464490609E+01,      /* I =191 */
(PID.TID 0000.0001)                 1.555127190650460E+01,      /* I =192 */
(PID.TID 0000.0001)                 1.565508726507390E+01,      /* I =193 */
(PID.TID 0000.0001)                 1.576327896039616E+01,      /* I =194 */
(PID.TID 0000.0001)                 1.587598573064292E+01,      /* I =195 */
(PID.TID 0000.0001)                 1.599334637652494E+01,      /* I =196 */
(PID.TID 0000.0001)                 1.611549928317337E+01,      /* I =197 */
(PID.TID 0000.0001)                 1.624258189854968E+01,      /* I =198 */
(PID.TID 0000.0001)                 1.637473016746109E+01,      /* I =199 */
(PID.TID 0000.0001)                 1.651207792058980E+01,      /* I =200 */
(PID.TID 0000.0001)                 1.665475621833111E+01,      /* I =201 */
(PID.TID 0000.0001)                 1.680289264967994E+01,      /* I =202 */
(PID.TID 0000.0001)                 1.695661058690918E+01,      /* I =203 */
(PID.TID 0000.0001)                 1.711602839734634E+01,      /* I =204 */
(PID.TID 0000.0001)                 1.728125861417839E+01,      /* I =205 */
(PID.TID 0000.0001)                 1.745240706889426E+01,      /* I =206 */
(PID.TID 0000.0001)                 1.762957198870894E+01,      /* I =207 */
(PID.TID 0000.0001)                 1.781284306309535E+01,      /* I =208 */
(PID.TID 0000.0001)                 1.800230048437439E+01,      /* I =209 */
(PID.TID 0000.0001)                 1.819801396816951E+01,      /* I =210 */
(PID.TID 0000.0001)                 1.840004176040835E+01,      /* I =211 */
(PID.TID 0000.0001)                 1.860842963843782E+01,      /* I =212 */
(PID.TID 0000.0001)                 1.882320991469193E+01,      /* I =213 */
(PID.TID 0000.0001)                 1.904440045219844E+01,      /* I =214 */
(PID.TID 0000.0001)                 1.927200370200823E+01,      /* I =215 */
(PID.TID 0000.0001)                 1.950600577335953E+01,      /* I =216 */
(PID.TID 0000.0001)                 1.974637554802371E+01,      /* I =217 */
(PID.TID 0000.0001)                 1.999306385079687E+01,      /* I =218 */
(PID.TID 0000.0001)                 2.024600268847589E+01,      /* I =219 */
(PID.TID 0000.0001)                 2.050510456986654E+01,      /* I =220 */
(PID.TID 0000.0001)                 2.077026191939032E+01,      /* I =221 */
(PID.TID 0000.0001)                 2.104134659666656E+01,      /* I =222 */
(PID.TID 0000.0001)                 2.131820953402739E+01,      /* I =223 */
(PID.TID 0000.0001)                 2.160068050326367E+01,      /* I =224 */
(PID.TID 0000.0001)                 2.188856802198952E+01,      /* I =225 */
(PID.TID 0000.0001)                 2.218165940884890E+01,      /* I =226 */
(PID.TID 0000.0001)                 2.247972099537336E+01,      /* I =227 */
(PID.TID 0000.0001)                 2.278249850064545E+01,      /* I =228 */
(PID.TID 0000.0001)                 2.308971757304531E+01,      /* I =229 */
(PID.TID 0000.0001)                 2.340108450128388E+01,      /* I =230 */
(PID.TID 0000.0001)                 2.371628709468741E+01,      /* I =231 */
(PID.TID 0000.0001)                 2.403499573033461E+01,      /* I =232 */
(PID.TID 0000.0001)                 2.435686456220453E+01,      /* I =233 */
(PID.TID 0000.0001)                 2.468153288502243E+01,      /* I =234 */
(PID.TID 0000.0001)                 2.500862664304538E+01,      /* I =235 */
(PID.TID 0000.0001)                 2.533776007166725E+01,      /* I =236 */
(PID.TID 0000.0001)                 2.566853745750001E+01,      /* I =237 */
(PID.TID 0000.0001)                 2.600055500056160E+01,      /* I =238 */
(PID.TID 0000.0001)                 2.633340276042106E+01,      /* I =239 */
(PID.TID 0000.0001)                 2.666666666666666E+01,      /* I =240 */
(PID.TID 0000.0001)                 2.699993057291228E+01,      /* I =241 */
(PID.TID 0000.0001)                 2.733277833277173E+01,      /* I =242 */
(PID.TID 0000.0001)                 2.766479587583332E+01,      /* I =243 */
(PID.TID 0000.0001)                 2.799557326166608E+01,      /* I =244 */
(PID.TID 0000.0001)                 2.832470669028795E+01,      /* I =245 */
(PID.TID 0000.0001)                 2.865180044831091E+01,      /* I =246 */
(PID.TID 0000.0001)                 2.897646877112880E+01,      /* I =247 */
(PID.TID 0000.0001)                 2.929833760299872E+01,      /* I =248 */
(PID.TID 0000.0001)                 2.961704623864592E+01,      /* I =249 */
(PID.TID 0000.0001)                 2.993224883204945E+01,      /* I =250 */
(PID.TID 0000.0001)                 3.024361576028802E+01,      /* I =251 */
(PID.TID 0000.0001)                 3.055083483268788E+01,      /* I =252 */
(PID.TID 0000.0001)                 3.085361233795997E+01,      /* I =253 */
(PID.TID 0000.0001)                 3.115167392448443E+01,      /* I =254 */
(PID.TID 0000.0001)                 3.144476531134382E+01,      /* I =255 */
(PID.TID 0000.0001)                 3.173265283006967E+01,      /* I =256 */
(PID.TID 0000.0001)                 3.201512379930595E+01,      /* I =257 */
(PID.TID 0000.0001)                 3.229198673666677E+01,      /* I =258 */
(PID.TID 0000.0001)                 3.256307141394301E+01,      /* I =259 */
(PID.TID 0000.0001)                 3.282822876346680E+01,      /* I =260 */
(PID.TID 0000.0001)                 3.308733064485744E+01,      /* I =261 */
(PID.TID 0000.0001)                 3.334026948253647E+01,      /* I =262 */
(PID.TID 0000.0001)                 3.358695778530962E+01,      /* I =263 */
(PID.TID 0000.0001)                 3.382732755997380E+01,      /* I =264 */
(PID.TID 0000.0001)                 3.406132963132509E+01,      /* I =265 */
(PID.TID 0000.0001)                 3.428893288113490E+01,      /* I =266 */
(PID.TID 0000.0001)                 3.451012341864140E+01,      /* I =267 */
(PID.TID 0000.0001)                 3.472490369489551E+01,      /* I =268 */
(PID.TID 0000.0001)                 3.493329157292499E+01,      /* I =269 */
(PID.TID 0000.0001)                 3.513531936516383E+01,      /* I =270 */
(PID.TID 0000.0001)                 3.533103284895893E+01,      /* I =271 */
(PID.TID 0000.0001)                 3.552049027023799E+01,      /* I =272 */
(PID.TID 0000.0001)                 3.570376134462440E+01,      /* I =273 */
(PID.TID 0000.0001)                 3.588092626443907E+01,      /* I =274 */
(PID.TID 0000.0001)                 3.605207471915494E+01,      /* I =275 */
(PID.TID 0000.0001)                 3.621730493598699E+01,      /* I =276 */
(PID.TID 0000.0001)                 3.637672274642415E+01,      /* I =277 */
(PID.TID 0000.0001)                 3.653044068365339E+01,      /* I =278 */
(PID.TID 0000.0001)                 3.667857711500223E+01,      /* I =279 */
(PID.TID 0000.0001)                 3.682125541274353E+01,      /* I =280 */
(PID.TID 0000.0001)                 3.695860316587224E+01,      /* I =281 */
(PID.TID 0000.0001)                 3.709075143478366E+01,      /* I =282 */
(PID.TID 0000.0001)                 3.721783405015996E+01,      /* I =283 */
(PID.TID 0000.0001)                 3.733998695680840E+01,      /* I =284 */
(PID.TID 0000.0001)                 3.745734760269041E+01,      /* I =285 */
(PID.TID 0000.0001)                 3.757005437293716E+01,      /* I =286 */
(PID.TID 0000.0001)                 3.767824606825943E+01,      /* I =287 */
(PID.TID 0000.0001)                 3.778206142682873E+01,      /* I =288 */
(PID.TID 0000.0001)                 3.788163868842724E+01,      /* I =289 */
(PID.TID 0000.0001)                 3.797711519943351E+01,      /* I =290 */
(PID.TID 0000.0001)                 3.806862705702619E+01,      /* I =291 */
(PID.TID 0000.0001)                 3.815630879084409E+01,      /* I =292 */
(PID.TID 0000.0001)                 3.824029308023417E+01,      /* I =293 */
(PID.TID 0000.0001)                 3.832071050514676E+01,      /* I =294 */
(PID.TID 0000.0001)                 3.839768932869313E+01,      /* I =295 */
(PID.TID 0000.0001)                 3.847135530936350E+01,      /* I =296 */
(PID.TID 0000.0001)                 3.854183154090824E+01,      /* I =297 */
(PID.TID 0000.0001)                 3.860923831790885E+01,      /* I =298 */
(PID.TID 0000.0001)                 3.867369302510515E+01,      /* I =299 */
(PID.TID 0000.0001)                 3.873531004859822E+01,      /* I =300 */
(PID.TID 0000.0001)                 3.879420070711233E+01,      /* I =301 */
(PID.TID 0000.0001)                 3.885047320157103E+01,      /* I =302 */
(PID.TID 0000.0001)                 3.890423258132093E+01,      /* I =303 */
(PID.TID 0000.0001)                 3.895558072541962E+01,      /* I =304 */
(PID.TID 0000.0001)                 3.900461633748988E+01,      /* I =305 */
(PID.TID 0000.0001)                 3.905143495272970E+01,      /* I =306 */
(PID.TID 0000.0001)                 3.909612895575525E+01,      /* I =307 */
(PID.TID 0000.0001)                 3.913878760804132E+01,      /* I =308 */
(PID.TID 0000.0001)                 3.917949708380939E+01,      /* I =309 */
(PID.TID 0000.0001)                 3.921834051329716E+01,      /* I =310 */
(PID.TID 0000.0001)                 3.925539803242471E+01,      /* I =311 */
(PID.TID 0000.0001)                 3.929074683795024E+01,      /* I =312 */
(PID.TID 0000.0001)                 3.932446124728342E+01,      /* I =313 */
(PID.TID 0000.0001)                 3.935661276219549E+01,      /* I =314 */
(PID.TID 0000.0001)                 3.938727013573265E+01,      /* I =315 */
(PID.TID 0000.0001)                 3.941649944170319E+01,      /* I =316 */
(PID.TID 0000.0001)                 3.944436414616852E+01,      /* I =317 */
(PID.TID 0000.0001)                 3.947092518042460E+01,      /* I =318 */
(PID.TID 0000.0001)                 3.949624101501229E+01,      /* I =319 */
(PID.TID 0000.0001)                 3.952036773434423E+01       /* I =320 */
(PID.TID 0000.0001)     ;
(PID.TID 0000.0001) dxG =  /* dxG(1,:,1,:) ( m - cartesian, degrees - spherical ) */
(PID.TID 0000.0001)                 1.333350557843028E+01       /* J =  1 */
(PID.TID 0000.0001)     ;
(PID.TID 0000.0001) dyG =  /* dyG(:,1,:,1) ( m - cartesian, degrees - spherical ) */
(PID.TID 0000.0001)   320 @  2.000000000000000E+02              /* I =  1:320 */
(PID.TID 0000.0001)     ;
(PID.TID 0000.0001) dyG =  /* dyG(1,:,1,:) ( m - cartesian, degrees - spherical ) */
(PID.TID 0000.0001)                 2.000000000000000E+02       /* J =  1 */
(PID.TID 0000.0001)     ;
(PID.TID 0000.0001) dxC =  /* dxC(:,1,:,1) ( m - cartesian, degrees - spherical ) */
(PID.TID 0000.0001)                 2.642693665638726E+01,      /* I =  1 */
(PID.TID 0000.0001)                 1.333350999399778E+01,      /* I =  2 */
(PID.TID 0000.0001)                 1.333351905152062E+01,      /* I =  3 */
(PID.TID 0000.0001)                 1.333352857342594E+01,      /* I =  4 */
(PID.TID 0000.0001)                 1.333353858352245E+01,      /* I =  5 */
(PID.TID 0000.0001)                 1.333354910683947E+01,      /* I =  6 */
(PID.TID 0000.0001)                 1.333356016968953E+01,      /* I =  7 */
(PID.TID 0000.0001)                 1.333357179973415E+01,      /* I =  8 */
(PID.TID 0000.0001)                 1.333358402605295E+01,      /* I =  9 */
(PID.TID 0000.0001)                 1.333359687921643E+01,      /* I = 10 */
(PID.TID 0000.0001)                 1.333361039136233E+01,      /* I = 11 */
(PID.TID 0000.0001)                 1.333362459627599E+01,      /* I = 12 */
(PID.TID 0000.0001)                 1.333363952947481E+01,      /* I = 13 */
(PID.TID 0000.0001)                 1.333365522829707E+01,      /* I = 14 */
(PID.TID 0000.0001)                 1.333367173199521E+01,      /* I = 15 */
(PID.TID 0000.0001)                 1.333368908183401E+01,      /* I = 16 */
(PID.TID 0000.0001)                 1.333370732119372E+01,      /* I = 17 */
(PID.TID 0000.0001)                 1.333372649567847E+01,      /* I = 18 */
(PID.TID 0000.0001)                 1.333374665323032E+01,      /* I = 19 */
(PID.TID 0000.0001)                 1.333376784424909E+01,      /* I = 20 */
(PID.TID 0000.0001)                 1.333379012171828E+01,      /* I = 21 */
(PID.TID 0000.0001)                 1.333381354133758E+01,      /* I = 22 */
(PID.TID 0000.0001)                 1.333383816166205E+01,      /* I = 23 */
(PID.TID 0000.0001)                 1.333386404424851E+01,      /* I = 24 */
(PID.TID 0000.0001)                 1.333389125380934E+01,      /* I = 25 */
(PID.TID 0000.0001)                 1.333391985837429E+01,      /* I = 26 */
(PID.TID 0000.0001)                 1.333394992946042E+01,      /* I = 27 */
(PID.TID 0000.0001)                 1.333398154225094E+01,      /* I = 28 */
(PID.TID 0000.0001)                 1.333401477578303E+01,      /* I = 29 */
(PID.TID 0000.0001)                 1.333404971314536E+01,      /* I = 30 */
(PID.TID 0000.0001)                 1.333408644168579E+01,      /* I = 31 */
(PID.TID 0000.0001)                 1.333412505322961E+01,      /* I = 32 */
(PID.TID 0000.0001)                 1.333416564430897E+01,      /* I = 33 */
(PID.TID 0000.0001)                 1.333420831640414E+01,      /* I = 34 */
(PID.TID 0000.0001)                 1.333425317619707E+01,      /* I = 35 */
(PID.TID 0000.0001)                 1.333430033583793E+01,      /* I = 36 */
(PID.TID 0000.0001)                 1.333434991322531E+01,      /* I = 37 */
(PID.TID 0000.0001)                 1.333440203230080E+01,      /* I = 38 */
(PID.TID 0000.0001)                 1.333445682335862E+01,      /* I = 39 */
(PID.TID 0000.0001)                 1.333451442337113E+01,      /* I = 40 */
(PID.TID 0000.0001)                 1.333457497633095E+01,      /* I = 41 */
(PID.TID 0000.0001)                 1.333463863361070E+01,      /* I = 42 */
(PID.TID 0000.0001)                 1.333470555434106E+01,      /* I = 43 */
(PID.TID 0000.0001)                 1.333477590580825E+01,      /* I = 44 */
(PID.TID 0000.0001)                 1.333484986387179E+01,      /* I = 45 */
(PID.TID 0000.0001)                 1.333492761340370E+01,      /* I = 46 */
(PID.TID 0000.0001)                 1.333500934875020E+01,      /* I = 47 */
(PID.TID 0000.0001)                 1.333509527421690E+01,      /* I = 48 */
(PID.TID 0000.0001)                 1.333518560457904E+01,      /* I = 49 */
(PID.TID 0000.0001)                 1.333528056561758E+01,      /* I = 50 */
(PID.TID 0000.0001)                 1.333538039468296E+01,      /* I = 51 */
(PID.TID 0000.0001)                 1.333548534128751E+01,      /* I = 52 */
(PID.TID 0000.0001)                 1.333559566772826E+01,      /* I = 53 */
(PID.TID 0000.0001)                 1.333571164974160E+01,      /* I = 54 */
(PID.TID 0000.0001)                 1.333583357719136E+01,      /* I = 55 */
(PID.TID 0000.0001)                 1.333596175479210E+01,      /* I = 56 */
(PID.TID 0000.0001)                 1.333609650286941E+01,      /* I = 57 */
(PID.TID 0000.0001)                 1.333623815815904E+01,      /* I = 58 */
(PID.TID 0000.0001)                 1.333638707464681E+01,      /* I = 59 */
(PID.TID 0000.0001)                 1.333654362445156E+01,      /* I = 60 */
(PID.TID 0000.0001)                 1.333670819875313E+01,      /* I = 61 */
(PID.TID 0000.0001)                 1.333688120876771E+01,      /* I = 62 */
(PID.TID 0000.0001)                 1.333706308677308E+01,      /* I = 63 */
(PID.TID 0000.0001)                 1.333725428718615E+01,      /* I = 64 */
(PID.TID 0000.0001)                 1.333745528769550E+01,      /* I = 65 */
(PID.TID 0000.0001)                 1.333766659045173E+01,      /* I = 66 */
(PID.TID 0000.0001)                 1.333788872331856E+01,      /* I = 67 */
(PID.TID 0000.0001)                 1.333812224118771E+01,      /* I = 68 */
(PID.TID 0000.0001)                 1.333836772736086E+01,      /* I = 69 */
(PID.TID 0000.0001)                 1.333862579500209E+01,      /* I = 70 */
(PID.TID 0000.0001)                 1.333889708866426E+01,      /* I = 71 */
(PID.TID 0000.0001)                 1.333918228589330E+01,      /* I = 72 */
(PID.TID 0000.0001)                 1.333948209891407E+01,      /* I = 73 */
(PID.TID 0000.0001)                 1.333979727640216E+01,      /* I = 74 */
(PID.TID 0000.0001)                 1.334012860534580E+01,      /* I = 75 */
(PID.TID 0000.0001)                 1.334047691300263E+01,      /* I = 76 */
(PID.TID 0000.0001)                 1.334084306895581E+01,      /* I = 77 */
(PID.TID 0000.0001)                 1.334122798727485E+01,      /* I = 78 */
(PID.TID 0000.0001)                 1.334163262878608E+01,      /* I = 79 */
(PID.TID 0000.0001)                 1.334205800345858E+01,      /* I = 80 */
(PID.TID 0000.0001)                 1.334250517291117E+01,      /* I = 81 */
(PID.TID 0000.0001)                 1.334297525304664E+01,      /* I = 82 */
(PID.TID 0000.0001)                 1.334346941681954E+01,      /* I = 83 */
(PID.TID 0000.0001)                 1.334398889714433E+01,      /* I = 84 */
(PID.TID 0000.0001)                 1.334453498995081E+01,      /* I = 85 */
(PID.TID 0000.0001)                 1.334510905739420E+01,      /* I = 86 */
(PID.TID 0000.0001)                 1.334571253122772E+01,      /* I = 87 */
(PID.TID 0000.0001)                 1.334634691634557E+01,      /* I = 88 */
(PID.TID 0000.0001)                 1.334701379450502E+01,      /* I = 89 */
(PID.TID 0000.0001)                 1.334771482823627E+01,      /* I = 90 */
(PID.TID 0000.0001)                 1.334845176494967E+01,      /* I = 91 */
(PID.TID 0000.0001)                 1.334922644124982E+01,      /* I = 92 */
(PID.TID 0000.0001)                 1.335004078746694E+01,      /* I = 93 */
(PID.TID 0000.0001)                 1.335089683241625E+01,      /* I = 94 */
(PID.TID 0000.0001)                 1.335179670839645E+01,      /* I = 95 */
(PID.TID 0000.0001)                 1.335274265643916E+01,      /* I = 96 */
(PID.TID 0000.0001)                 1.335373703182170E+01,      /* I = 97 */
(PID.TID 0000.0001)                 1.335478230985586E+01,      /* I = 98 */
(PID.TID 0000.0001)                 1.335588109196637E+01,      /* I = 99 */
(PID.TID 0000.0001)                 1.335703611207306E+01,      /* I =100 */
(PID.TID 0000.0001)                 1.335825024329148E+01,      /* I =101 */
(PID.TID 0000.0001)                 1.335952650496728E+01,      /* I =102 */
(PID.TID 0000.0001)                 1.336086807006069E+01,      /* I =103 */
(PID.TID 0000.0001)                 1.336227827289768E+01,      /* I =104 */
(PID.TID 0000.0001)                 1.336376061730554E+01,      /* I =105 */
(PID.TID 0000.0001)                 1.336531878515111E+01,      /* I =106 */
(PID.TID 0000.0001)                 1.336695664530086E+01,      /* I =107 */
(PID.TID 0000.0001)                 1.336867826302288E+01,      /* I =108 */
(PID.TID 0000.0001)                 1.337048790985136E+01,      /* I =109 */
(PID.TID 0000.0001)                 1.337239007393546E+01,      /* I =110 */
(PID.TID 0000.0001)                 1.337438947089521E+01,      /* I =111 */
(PID.TID 0000.0001)                 1.337649105520771E+01,      /* I =112 */
(PID.TID 0000.0001)                 1.337870003214839E+01,      /* I =113 */
(PID.TID 0000.0001)                 1.338102187031264E+01,      /* I =114 */
(PID.TID 0000.0001)                 1.338346231474427E+01,      /* I =115 */
(PID.TID 0000.0001)                 1.338602740069837E+01,      /* I =116 */
(PID.TID 0000.0001)                 1.338872346806686E+01,      /* I =117 */
(PID.TID 0000.0001)                 1.339155717649654E+01,      /* I =118 */
(PID.TID 0000.0001)                 1.339453552123006E+01,      /* I =119 */
(PID.TID 0000.0001)                 1.339766584970151E+01,      /* I =120 */
(PID.TID 0000.0001)                 1.340095587891944E+01,      /* I =121 */
(PID.TID 0000.0001)                 1.340441371367113E+01,      /* I =122 */
(PID.TID 0000.0001)                 1.340804786558282E+01,      /* I =123 */
(PID.TID 0000.0001)                 1.341186727307212E+01,      /* I =124 */
(PID.TID 0000.0001)                 1.341588132222925E+01,      /* I =125 */
(PID.TID 0000.0001)                 1.342009986866531E+01,      /* I =126 */
(PID.TID 0000.0001)                 1.342453326036640E+01,      /* I =127 */
(PID.TID 0000.0001)                 1.342919236159337E+01,      /* I =128 */
(PID.TID 0000.0001)                 1.343408857786809E+01,      /* I =129 */
(PID.TID 0000.0001)                 1.343923388208756E+01,      /* I =130 */
(PID.TID 0000.0001)                 1.344464084180802E+01,      /* I =131 */
(PID.TID 0000.0001)                 1.345032264774195E+01,      /* I =132 */
(PID.TID 0000.0001)                 1.345629314351116E+01,      /* I =133 */
(PID.TID 0000.0001)                 1.346256685669937E+01,      /* I =134 */
(PID.TID 0000.0001)                 1.346915903124821E+01,      /* I =135 */
(PID.TID 0000.0001)                 1.347608566124012E+01,      /* I =136 */
(PID.TID 0000.0001)                 1.348336352611167E+01,      /* I =137 */
(PID.TID 0000.0001)                 1.349101022734012E+01,      /* I =138 */
(PID.TID 0000.0001)                 1.349904422664533E+01,      /* I =139 */
(PID.TID 0000.0001)                 1.350748488574801E+01,      /* I =140 */
(PID.TID 0000.0001)                 1.351635250772373E+01,      /* I =141 */
(PID.TID 0000.0001)                 1.352566837999036E+01,      /* I =142 */
(PID.TID 0000.0001)                 1.353545481896396E+01,      /* I =143 */
(PID.TID 0000.0001)                 1.354573521641566E+01,      /* I =144 */
(PID.TID 0000.0001)                 1.355653408755829E+01,      /* I =145 */
(PID.TID 0000.0001)                 1.356787712088746E+01,      /* I =146 */
(PID.TID 0000.0001)                 1.357979122979725E+01,      /* I =147 */
(PID.TID 0000.0001)                 1.359230460598467E+01,      /* I =148 */
(PID.TID 0000.0001)                 1.360544677465097E+01,      /* I =149 */
(PID.TID 0000.0001)                 1.361924865150015E+01,      /* I =150 */
(PID.TID 0000.0001)                 1.363374260152687E+01,      /* I =151 */
(PID.TID 0000.0001)                 1.364896249957595E+01,      /* I =152 */
(PID.TID 0000.0001)                 1.366494379264515E+01,      /* I =153 */
(PID.TID 0000.0001)                 1.368172356389035E+01,      /* I =154 */
(PID.TID 0000.0001)                 1.369934059827880E+01,      /* I =155 */
(PID.TID 0000.0001)                 1.371783544982025E+01,      /* I =156 */
(PID.TID 0000.0001)                 1.373725051028909E+01,      /* I =157 */
(PID.TID 0000.0001)                 1.375763007933133E+01,      /* I =158 */
(PID.TID 0000.0001)                 1.377902043582892E+01,      /* I =159 */
(PID.TID 0000.0001)                 1.380146991037093E+01,      /* I =160 */
(PID.TID 0000.0001)                 1.382502895865507E+01,      /* I =161 */
(PID.TID 0000.0001)                 1.384975023561489E+01,      /* I =162 */
(PID.TID 0000.0001)                 1.387568867003677E+01,      /* I =163 */
(PID.TID 0000.0001)                 1.390290153939748E+01,      /* I =164 */
(PID.TID 0000.0001)                 1.393144854461542E+01,      /* I =165 */
(PID.TID 0000.0001)                 1.396139188436927E+01,      /* I =166 */
(PID.TID 0000.0001)                 1.399279632859388E+01,      /* I =167 */
(PID.TID 0000.0001)                 1.402572929071650E+01,      /* I =168 */
(PID.TID 0000.0001)                 1.406026089814585E+01,      /* I =169 */
(PID.TID 0000.0001)                 1.409646406047239E+01,      /* I =170 */
(PID.TID 0000.0001)                 1.413441453478006E+01,      /* I =171 */
(PID.TID 0000.0001)                 1.417419098740798E+01,      /* I =172 */
(PID.TID 0000.0001)                 1.421587505143505E+01,      /* I =173 */
(PID.TID 0000.0001)                 1.425955137909086E+01,      /* I =174 */
(PID.TID 0000.0001)                 1.430530768822354E+01,      /* I =175 */
(PID.TID 0000.0001)                 1.435323480187859E+01,      /* I =176 */
(PID.TID 0000.0001)                 1.440342667996306E+01,      /* I =177 */
(PID.TID 0000.0001)                 1.445598044188735E+01,      /* I =178 */
(PID.TID 0000.0001)                 1.451099637899165E+01,      /* I =179 */
(PID.TID 0000.0001)                 1.456857795547806E+01,      /* I =180 */
(PID.TID 0000.0001)                 1.462883179648165E+01,      /* I =181 */
(PID.TID 0000.0001)                 1.469186766182633E+01,      /* I =182 */
(PID.TID 0000.0001)                 1.475779840392478E+01,      /* I =183 */
(PID.TID 0000.0001)                 1.482673990819746E+01,      /* I =184 */
(PID.TID 0000.0001)                 1.489881101430502E+01,      /* I =185 */
(PID.TID 0000.0001)                 1.497413341641339E+01,      /* I =186 */
(PID.TID 0000.0001)                 1.505283154064287E+01,      /* I =187 */
(PID.TID 0000.0001)                 1.513503239779421E+01,      /* I =188 */
(PID.TID 0000.0001)                 1.522086540939820E+01,      /* I =189 */
(PID.TID 0000.0001)                 1.531046220510348E+01,      /* I =190 */
(PID.TID 0000.0001)                 1.540395638940296E+01,      /* I =191 */
(PID.TID 0000.0001)                 1.550148327570534E+01,      /* I =192 */
(PID.TID 0000.0001)                 1.560317958578925E+01,      /* I =193 */
(PID.TID 0000.0001)                 1.570918311273503E+01,      /* I =194 */
(PID.TID 0000.0001)                 1.581963234551954E+01,      /* I =195 */
(PID.TID 0000.0001)                 1.593466605358393E+01,      /* I =196 */
(PID.TID 0000.0001)                 1.605442282984915E+01,      /* I =197 */
(PID.TID 0000.0001)                 1.617904059086152E+01,      /* I =198 */
(PID.TID 0000.0001)                 1.630865603300538E+01,      /* I =199 */
(PID.TID 0000.0001)                 1.644340404402545E+01,      /* I =200 */
(PID.TID 0000.0001)                 1.658341706946045E+01,      /* I =201 */
(PID.TID 0000.0001)                 1.672882443400552E+01,      /* I =202 */
(PID.TID 0000.0001)                 1.687975161829456E+01,      /* I =203 */
(PID.TID 0000.0001)                 1.703631949212776E+01,      /* I =204 */
(PID.TID 0000.0001)                 1.719864350576236E+01,      /* I =205 */
(PID.TID 0000.0001)                 1.736683284153632E+01,      /* I =206 */
(PID.TID 0000.0001)                 1.754098952880160E+01,      /* I =207 */
(PID.TID 0000.0001)                 1.772120752590214E+01,      /* I =208 */
(PID.TID 0000.0001)                 1.790757177373487E+01,      /* I =209 */
(PID.TID 0000.0001)                 1.810015722627195E+01,      /* I =210 */
(PID.TID 0000.0001)                 1.829902786428892E+01,      /* I =211 */
(PID.TID 0000.0001)                 1.850423569942308E+01,      /* I =212 */
(PID.TID 0000.0001)                 1.871581977656487E+01,      /* I =213 */
(PID.TID 0000.0001)                 1.893380518344518E+01,      /* I =214 */
(PID.TID 0000.0001)                 1.915820207710334E+01,      /* I =215 */
(PID.TID 0000.0001)                 1.938900473768388E+01,      /* I =216 */
(PID.TID 0000.0001)                 1.962619066069162E+01,      /* I =217 */
(PID.TID 0000.0001)                 1.986971969941029E+01,      /* I =218 */
(PID.TID 0000.0001)                 2.011953326963638E+01,      /* I =219 */
(PID.TID 0000.0001)                 2.037555362917121E+01,      /* I =220 */
(PID.TID 0000.0001)                 2.063768324462843E+01,      /* I =221 */
(PID.TID 0000.0001)                 2.090580425802844E+01,      /* I =222 */
(PID.TID 0000.0001)                 2.117977806534697E+01,      /* I =223 */
(PID.TID 0000.0001)                 2.145944501864553E+01,      /* I =224 */
(PID.TID 0000.0001)                 2.174462426262659E+01,      /* I =225 */
(PID.TID 0000.0001)                 2.203511371541921E+01,      /* I =226 */
(PID.TID 0000.0001)                 2.233069020211113E+01,      /* I =227 */
(PID.TID 0000.0001)                 2.263110974800941E+01,      /* I =228 */
(PID.TID 0000.0001)                 2.293610803684538E+01,      /* I =229 */
(PID.TID 0000.0001)                 2.324540103716459E+01,      /* I =230 */
(PID.TID 0000.0001)                 2.355868579798565E+01,      /* I =231 */
(PID.TID 0000.0001)                 2.387564141251102E+01,      /* I =232 */
(PID.TID 0000.0001)                 2.419593014626957E+01,      /* I =233 */
(PID.TID 0000.0001)                 2.451919872361348E+01,      /* I =234 */
(PID.TID 0000.0001)                 2.484507976403390E+01,      /* I =235 */
(PID.TID 0000.0001)                 2.517319335735632E+01,      /* I =236 */
(PID.TID 0000.0001)                 2.550314876458363E+01,      /* I =237 */
(PID.TID 0000.0001)                 2.583454622903081E+01,      /* I =238 */
(PID.TID 0000.0001)                 2.616697888049133E+01,      /* I =239 */
(PID.TID 0000.0001)                 2.650003471354386E+01,      /* I =240 */
(PID.TID 0000.0001)                 2.683329861978947E+01,      /* I =241 */
(PID.TID 0000.0001)                 2.716635445284200E+01,      /* I =242 */
(PID.TID 0000.0001)                 2.749878710430253E+01,      /* I =243 */
(PID.TID 0000.0001)                 2.783018456874970E+01,      /* I =244 */
(PID.TID 0000.0001)                 2.816013997597701E+01,      /* I =245 */
(PID.TID 0000.0001)                 2.848825356929943E+01,      /* I =246 */
(PID.TID 0000.0001)                 2.881413460971985E+01,      /* I =247 */
(PID.TID 0000.0001)                 2.913740318706376E+01,      /* I =248 */
(PID.TID 0000.0001)                 2.945769192082232E+01,      /* I =249 */
(PID.TID 0000.0001)                 2.977464753534769E+01,      /* I =250 */
(PID.TID 0000.0001)                 3.008793229616873E+01,      /* I =251 */
(PID.TID 0000.0001)                 3.039722529648795E+01,      /* I =252 */
(PID.TID 0000.0001)                 3.070222358532392E+01,      /* I =253 */
(PID.TID 0000.0001)                 3.100264313122220E+01,      /* I =254 */
(PID.TID 0000.0001)                 3.129821961791412E+01,      /* I =255 */
(PID.TID 0000.0001)                 3.158870907070674E+01,      /* I =256 */
(PID.TID 0000.0001)                 3.187388831468781E+01,      /* I =257 */
(PID.TID 0000.0001)                 3.215355526798636E+01,      /* I =258 */
(PID.TID 0000.0001)                 3.242752907530489E+01,      /* I =259 */
(PID.TID 0000.0001)                 3.269565008870491E+01,      /* I =260 */
(PID.TID 0000.0001)                 3.295777970416212E+01,      /* I =261 */
(PID.TID 0000.0001)                 3.321380006369695E+01,      /* I =262 */
(PID.TID 0000.0001)                 3.346361363392305E+01,      /* I =263 */
(PID.TID 0000.0001)                 3.370714267264171E+01,      /* I =264 */
(PID.TID 0000.0001)                 3.394432859564945E+01,      /* I =265 */
(PID.TID 0000.0001)                 3.417513125623000E+01,      /* I =266 */
(PID.TID 0000.0001)                 3.439952814988815E+01,      /* I =267 */
(PID.TID 0000.0001)                 3.461751355676846E+01,      /* I =268 */
(PID.TID 0000.0001)                 3.482909763391025E+01,      /* I =269 */
(PID.TID 0000.0001)                 3.503430546904441E+01,      /* I =270 */
(PID.TID 0000.0001)                 3.523317610706138E+01,      /* I =271 */
(PID.TID 0000.0001)                 3.542576155959846E+01,      /* I =272 */
(PID.TID 0000.0001)                 3.561212580743119E+01,      /* I =273 */
(PID.TID 0000.0001)                 3.579234380453173E+01,      /* I =274 */
(PID.TID 0000.0001)                 3.596650049179701E+01,      /* I =275 */
(PID.TID 0000.0001)                 3.613468982757097E+01,      /* I =276 */
(PID.TID 0000.0001)                 3.629701384120557E+01,      /* I =277 */
(PID.TID 0000.0001)                 3.645358171503877E+01,      /* I =278 */
(PID.TID 0000.0001)                 3.660450889932781E+01,      /* I =279 */
(PID.TID 0000.0001)                 3.674991626387288E+01,      /* I =280 */
(PID.TID 0000.0001)                 3.688992928930789E+01,      /* I =281 */
(PID.TID 0000.0001)                 3.702467730032795E+01,      /* I =282 */
(PID.TID 0000.0001)                 3.715429274247181E+01,      /* I =283 */
(PID.TID 0000.0001)                 3.727891050348418E+01,      /* I =284 */
(PID.TID 0000.0001)                 3.739866727974940E+01,      /* I =285 */
(PID.TID 0000.0001)                 3.751370098781379E+01,      /* I =286 */
(PID.TID 0000.0001)                 3.762415022059830E+01,      /* I =287 */
(PID.TID 0000.0001)                 3.773015374754408E+01,      /* I =288 */
(PID.TID 0000.0001)                 3.783185005762799E+01,      /* I =289 */
(PID.TID 0000.0001)                 3.792937694393037E+01,      /* I =290 */
(PID.TID 0000.0001)                 3.802287112822985E+01,      /* I =291 */
(PID.TID 0000.0001)                 3.811246792393514E+01,      /* I =292 */
(PID.TID 0000.0001)                 3.819830093553912E+01,      /* I =293 */
(PID.TID 0000.0001)                 3.828050179269046E+01,      /* I =294 */
(PID.TID 0000.0001)                 3.835919991691994E+01,      /* I =295 */
(PID.TID 0000.0001)                 3.843452231902831E+01,      /* I =296 */
(PID.TID 0000.0001)                 3.850659342513587E+01,      /* I =297 */
(PID.TID 0000.0001)                 3.857553492940855E+01,      /* I =298 */
(PID.TID 0000.0001)                 3.864146567150701E+01,      /* I =299 */
(PID.TID 0000.0001)                 3.870450153685168E+01,      /* I =300 */
(PID.TID 0000.0001)                 3.876475537785527E+01,      /* I =301 */
(PID.TID 0000.0001)                 3.882233695434168E+01,      /* I =302 */
(PID.TID 0000.0001)                 3.887735289144598E+01,      /* I =303 */
(PID.TID 0000.0001)                 3.892990665337027E+01,      /* I =304 */
(PID.TID 0000.0001)                 3.898009853145474E+01,      /* I =305 */
(PID.TID 0000.0001)                 3.902802564510979E+01,      /* I =306 */
(PID.TID 0000.0001)                 3.907378195424248E+01,      /* I =307 */
(PID.TID 0000.0001)                 3.911745828189828E+01,      /* I =308 */
(PID.TID 0000.0001)                 3.915914234592535E+01,      /* I =309 */
(PID.TID 0000.0001)                 3.919891879855328E+01,      /* I =310 */
(PID.TID 0000.0001)                 3.923686927286094E+01,      /* I =311 */
(PID.TID 0000.0001)                 3.927307243518748E+01,      /* I =312 */
(PID.TID 0000.0001)                 3.930760404261683E+01,      /* I =313 */
(PID.TID 0000.0001)                 3.934053700473945E+01,      /* I =314 */
(PID.TID 0000.0001)                 3.937194144896407E+01,      /* I =315 */
(PID.TID 0000.0001)                 3.940188478871792E+01,      /* I =316 */
(PID.TID 0000.0001)                 3.943043179393585E+01,      /* I =317 */
(PID.TID 0000.0001)                 3.945764466329656E+01,      /* I =318 */
(PID.TID 0000.0001)                 3.948358309771845E+01,      /* I =319 */
(PID.TID 0000.0001)                 3.950830437467826E+01       /* I =320 */
(PID.TID 0000.0001)     ;
(PID.TID 0000.0001) dxC =  /* dxC(1,:,1,:) ( m - cartesian, degrees - spherical ) */
(PID.TID 0000.0001)                 2.642693665638726E+01       /* J =  1 */
(PID.TID 0000.0001)     ;
(PID.TID 0000.0001) dyC =  /* dyC(:,1,:,1) ( m - cartesian, degrees - spherical ) */
(PID.TID 0000.0001)   320 @  2.000000000000000E+02              /* I =  1:320 */
(PID.TID 0000.0001)     ;
(PID.TID 0000.0001) dyC =  /* dyC(1,:,1,:) ( m - cartesian, degrees - spherical ) */
(PID.TID 0000.0001)                 2.000000000000000E+02       /* J =  1 */
(PID.TID 0000.0001)     ;
(PID.TID 0000.0001) dxV =  /* dxV(:,1,:,1) ( m - cartesian, degrees - spherical ) */
(PID.TID 0000.0001)                 2.642693665638726E+01,      /* I =  1 */
(PID.TID 0000.0001)                 1.333350999399778E+01,      /* I =  2 */
(PID.TID 0000.0001)                 1.333351905152062E+01,      /* I =  3 */
(PID.TID 0000.0001)                 1.333352857342594E+01,      /* I =  4 */
(PID.TID 0000.0001)                 1.333353858352245E+01,      /* I =  5 */
(PID.TID 0000.0001)                 1.333354910683947E+01,      /* I =  6 */
(PID.TID 0000.0001)                 1.333356016968953E+01,      /* I =  7 */
(PID.TID 0000.0001)                 1.333357179973415E+01,      /* I =  8 */
(PID.TID 0000.0001)                 1.333358402605295E+01,      /* I =  9 */
(PID.TID 0000.0001)                 1.333359687921643E+01,      /* I = 10 */
(PID.TID 0000.0001)                 1.333361039136233E+01,      /* I = 11 */
(PID.TID 0000.0001)                 1.333362459627599E+01,      /* I = 12 */
(PID.TID 0000.0001)                 1.333363952947481E+01,      /* I = 13 */
(PID.TID 0000.0001)                 1.333365522829707E+01,      /* I = 14 */
(PID.TID 0000.0001)                 1.333367173199521E+01,      /* I = 15 */
(PID.TID 0000.0001)                 1.333368908183401E+01,      /* I = 16 */
(PID.TID 0000.0001)                 1.333370732119372E+01,      /* I = 17 */
(PID.TID 0000.0001)                 1.333372649567847E+01,      /* I = 18 */
(PID.TID 0000.0001)                 1.333374665323032E+01,      /* I = 19 */
(PID.TID 0000.0001)                 1.333376784424909E+01,      /* I = 20 */
(PID.TID 0000.0001)                 1.333379012171828E+01,      /* I = 21 */
(PID.TID 0000.0001)                 1.333381354133758E+01,      /* I = 22 */
(PID.TID 0000.0001)                 1.333383816166205E+01,      /* I = 23 */
(PID.TID 0000.0001)                 1.333386404424851E+01,      /* I = 24 */
(PID.TID 0000.0001)                 1.333389125380934E+01,      /* I = 25 */
(PID.TID 0000.0001)                 1.333391985837429E+01,      /* I = 26 */
(PID.TID 0000.0001)                 1.333394992946042E+01,      /* I = 27 */
(PID.TID 0000.0001)                 1.333398154225094E+01,      /* I = 28 */
(PID.TID 0000.0001)                 1.333401477578303E+01,      /* I = 29 */
(PID.TID 0000.0001)                 1.333404971314536E+01,      /* I = 30 */
(PID.TID 0000.0001)                 1.333408644168579E+01,      /* I = 31 */
(PID.TID 0000.0001)                 1.333412505322961E+01,      /* I = 32 */
(PID.TID 0000.0001)                 1.333416564430897E+01,      /* I = 33 */
(PID.TID 0000.0001)                 1.333420831640414E+01,      /* I = 34 */
(PID.TID 0000.0001)                 1.333425317619707E+01,      /* I = 35 */
(PID.TID 0000.0001)                 1.333430033583793E+01,      /* I = 36 */
(PID.TID 0000.0001)                 1.333434991322531E+01,      /* I = 37 */
(PID.TID 0000.0001)                 1.333440203230080E+01,      /* I = 38 */
(PID.TID 0000.0001)                 1.333445682335862E+01,      /* I = 39 */
(PID.TID 0000.0001)                 1.333451442337113E+01,      /* I = 40 */
(PID.TID 0000.0001)                 1.333457497633095E+01,      /* I = 41 */
(PID.TID 0000.0001)                 1.333463863361070E+01,      /* I = 42 */
(PID.TID 0000.0001)                 1.333470555434106E+01,      /* I = 43 */
(PID.TID 0000.0001)                 1.333477590580825E+01,      /* I = 44 */
(PID.TID 0000.0001)                 1.333484986387179E+01,      /* I = 45 */
(PID.TID 0000.0001)                 1.333492761340370E+01,      /* I = 46 */
(PID.TID 0000.0001)                 1.333500934875020E+01,      /* I = 47 */
(PID.TID 0000.0001)                 1.333509527421690E+01,      /* I = 48 */
(PID.TID 0000.0001)                 1.333518560457904E+01,      /* I = 49 */
(PID.TID 0000.0001)                 1.333528056561758E+01,      /* I = 50 */
(PID.TID 0000.0001)                 1.333538039468296E+01,      /* I = 51 */
(PID.TID 0000.0001)                 1.333548534128751E+01,      /* I = 52 */
(PID.TID 0000.0001)                 1.333559566772826E+01,      /* I = 53 */
(PID.TID 0000.0001)                 1.333571164974160E+01,      /* I = 54 */
(PID.TID 0000.0001)                 1.333583357719136E+01,      /* I = 55 */
(PID.TID 0000.0001)                 1.333596175479210E+01,      /* I = 56 */
(PID.TID 0000.0001)                 1.333609650286941E+01,      /* I = 57 */
(PID.TID 0000.0001)                 1.333623815815904E+01,      /* I = 58 */
(PID.TID 0000.0001)                 1.333638707464681E+01,      /* I = 59 */
(PID.TID 0000.0001)                 1.333654362445156E+01,      /* I = 60 */
(PID.TID 0000.0001)                 1.333670819875313E+01,      /* I = 61 */
(PID.TID 0000.0001)                 1.333688120876771E+01,      /* I = 62 */
(PID.TID 0000.0001)                 1.333706308677308E+01,      /* I = 63 */
(PID.TID 0000.0001)                 1.333725428718615E+01,      /* I = 64 */
(PID.TID 0000.0001)                 1.333745528769550E+01,      /* I = 65 */
(PID.TID 0000.0001)                 1.333766659045173E+01,      /* I = 66 */
(PID.TID 0000.0001)                 1.333788872331856E+01,      /* I = 67 */
(PID.TID 0000.0001)                 1.333812224118771E+01,      /* I = 68 */
(PID.TID 0000.0001)                 1.333836772736086E+01,      /* I = 69 */
(PID.TID 0000.0001)                 1.333862579500209E+01,      /* I = 70 */
(PID.TID 0000.0001)                 1.333889708866426E+01,      /* I = 71 */
(PID.TID 0000.0001)                 1.333918228589330E+01,      /* I = 72 */
(PID.TID 0000.0001)                 1.333948209891407E+01,      /* I = 73 */
(PID.TID 0000.0001)                 1.333979727640216E+01,      /* I = 74 */
(PID.TID 0000.0001)                 1.334012860534580E+01,      /* I = 75 */
(PID.TID 0000.0001)                 1.334047691300263E+01,      /* I = 76 */
(PID.TID 0000.0001)                 1.334084306895581E+01,      /* I = 77 */
(PID.TID 0000.0001)                 1.334122798727485E+01,      /* I = 78 */
(PID.TID 0000.0001)                 1.334163262878608E+01,      /* I = 79 */
(PID.TID 0000.0001)                 1.334205800345858E+01,      /* I = 80 */
(PID.TID 0000.0001)                 1.334250517291117E+01,      /* I = 81 */
(PID.TID 0000.0001)                 1.334297525304664E+01,      /* I = 82 */
(PID.TID 0000.0001)                 1.334346941681954E+01,      /* I = 83 */
(PID.TID 0000.0001)                 1.334398889714433E+01,      /* I = 84 */
(PID.TID 0000.0001)                 1.334453498995081E+01,      /* I = 85 */
(PID.TID 0000.0001)                 1.334510905739420E+01,      /* I = 86 */
(PID.TID 0000.0001)                 1.334571253122772E+01,      /* I = 87 */
(PID.TID 0000.0001)                 1.334634691634557E+01,      /* I = 88 */
(PID.TID 0000.0001)                 1.334701379450502E+01,      /* I = 89 */
(PID.TID 0000.0001)                 1.334771482823627E+01,      /* I = 90 */
(PID.TID 0000.0001)                 1.334845176494967E+01,      /* I = 91 */
(PID.TID 0000.0001)                 1.334922644124982E+01,      /* I = 92 */
(PID.TID 0000.0001)                 1.335004078746694E+01,      /* I = 93 */
(PID.TID 0000.0001)                 1.335089683241625E+01,      /* I = 94 */
(PID.TID 0000.0001)                 1.335179670839645E+01,      /* I = 95 */
(PID.TID 0000.0001)                 1.335274265643916E+01,      /* I = 96 */
(PID.TID 0000.0001)                 1.335373703182170E+01,      /* I = 97 */
(PID.TID 0000.0001)                 1.335478230985586E+01,      /* I = 98 */
(PID.TID 0000.0001)                 1.335588109196637E+01,      /* I = 99 */
(PID.TID 0000.0001)                 1.335703611207306E+01,      /* I =100 */
(PID.TID 0000.0001)                 1.335825024329148E+01,      /* I =101 */
(PID.TID 0000.0001)                 1.335952650496728E+01,      /* I =102 */
(PID.TID 0000.0001)                 1.336086807006069E+01,      /* I =103 */
(PID.TID 0000.0001)                 1.336227827289768E+01,      /* I =104 */
(PID.TID 0000.0001)                 1.336376061730554E+01,      /* I =105 */
(PID.TID 0000.0001)                 1.336531878515111E+01,      /* I =106 */
(PID.TID 0000.0001)                 1.336695664530086E+01,      /* I =107 */
(PID.TID 0000.0001)                 1.336867826302288E+01,      /* I =108 */
(PID.TID 0000.0001)                 1.337048790985136E+01,      /* I =109 */
(PID.TID 0000.0001)                 1.337239007393546E+01,      /* I =110 */
(PID.TID 0000.0001)                 1.337438947089521E+01,      /* I =111 */
(PID.TID 0000.0001)                 1.337649105520771E+01,      /* I =112 */
(PID.TID 0000.0001)                 1.337870003214839E+01,      /* I =113 */
(PID.TID 0000.0001)                 1.338102187031264E+01,      /* I =114 */
(PID.TID 0000.0001)                 1.338346231474427E+01,      /* I =115 */
(PID.TID 0000.0001)                 1.338602740069837E+01,      /* I =116 */
(PID.TID 0000.0001)                 1.338872346806686E+01,      /* I =117 */
(PID.TID 0000.0001)                 1.339155717649654E+01,      /* I =118 */
(PID.TID 0000.0001)                 1.339453552123006E+01,      /* I =119 */
(PID.TID 0000.0001)                 1.339766584970151E+01,      /* I =120 */
(PID.TID 0000.0001)                 1.340095587891944E+01,      /* I =121 */
(PID.TID 0000.0001)                 1.340441371367113E+01,      /* I =122 */
(PID.TID 0000.0001)                 1.340804786558282E+01,      /* I =123 */
(PID.TID 0000.0001)                 1.341186727307212E+01,      /* I =124 */
(PID.TID 0000.0001)                 1.341588132222925E+01,      /* I =125 */
(PID.TID 0000.0001)                 1.342009986866531E+01,      /* I =126 */
(PID.TID 0000.0001)                 1.342453326036640E+01,      /* I =127 */
(PID.TID 0000.0001)                 1.342919236159337E+01,      /* I =128 */
(PID.TID 0000.0001)                 1.343408857786809E+01,      /* I =129 */
(PID.TID 0000.0001)                 1.343923388208756E+01,      /* I =130 */
(PID.TID 0000.0001)                 1.344464084180802E+01,      /* I =131 */
(PID.TID 0000.0001)                 1.345032264774195E+01,      /* I =132 */
(PID.TID 0000.0001)                 1.345629314351116E+01,      /* I =133 */
(PID.TID 0000.0001)                 1.346256685669937E+01,      /* I =134 */
(PID.TID 0000.0001)                 1.346915903124821E+01,      /* I =135 */
(PID.TID 0000.0001)                 1.347608566124012E+01,      /* I =136 */
(PID.TID 0000.0001)                 1.348336352611167E+01,      /* I =137 */
(PID.TID 0000.0001)                 1.349101022734012E+01,      /* I =138 */
(PID.TID 0000.0001)                 1.349904422664533E+01,      /* I =139 */
(PID.TID 0000.0001)                 1.350748488574801E+01,      /* I =140 */
(PID.TID 0000.0001)                 1.351635250772373E+01,      /* I =141 */
(PID.TID 0000.0001)                 1.352566837999036E+01,      /* I =142 */
(PID.TID 0000.0001)                 1.353545481896396E+01,      /* I =143 */
(PID.TID 0000.0001)                 1.354573521641566E+01,      /* I =144 */
(PID.TID 0000.0001)                 1.355653408755829E+01,      /* I =145 */
(PID.TID 0000.0001)                 1.356787712088746E+01,      /* I =146 */
(PID.TID 0000.0001)                 1.357979122979725E+01,      /* I =147 */
(PID.TID 0000.0001)                 1.359230460598467E+01,      /* I =148 */
(PID.TID 0000.0001)                 1.360544677465097E+01,      /* I =149 */
(PID.TID 0000.0001)                 1.361924865150015E+01,      /* I =150 */
(PID.TID 0000.0001)                 1.363374260152687E+01,      /* I =151 */
(PID.TID 0000.0001)                 1.364896249957595E+01,      /* I =152 */
(PID.TID 0000.0001)                 1.366494379264515E+01,      /* I =153 */
(PID.TID 0000.0001)                 1.368172356389035E+01,      /* I =154 */
(PID.TID 0000.0001)                 1.369934059827880E+01,      /* I =155 */
(PID.TID 0000.0001)                 1.371783544982025E+01,      /* I =156 */
(PID.TID 0000.0001)                 1.373725051028909E+01,      /* I =157 */
(PID.TID 0000.0001)                 1.375763007933133E+01,      /* I =158 */
(PID.TID 0000.0001)                 1.377902043582892E+01,      /* I =159 */
(PID.TID 0000.0001)                 1.380146991037093E+01,      /* I =160 */
(PID.TID 0000.0001)                 1.382502895865507E+01,      /* I =161 */
(PID.TID 0000.0001)                 1.384975023561489E+01,      /* I =162 */
(PID.TID 0000.0001)                 1.387568867003677E+01,      /* I =163 */
(PID.TID 0000.0001)                 1.390290153939748E+01,      /* I =164 */
(PID.TID 0000.0001)                 1.393144854461542E+01,      /* I =165 */
(PID.TID 0000.0001)                 1.396139188436927E+01,      /* I =166 */
(PID.TID 0000.0001)                 1.399279632859388E+01,      /* I =167 */
(PID.TID 0000.0001)                 1.402572929071650E+01,      /* I =168 */
(PID.TID 0000.0001)                 1.406026089814585E+01,      /* I =169 */
(PID.TID 0000.0001)                 1.409646406047239E+01,      /* I =170 */
(PID.TID 0000.0001)                 1.413441453478006E+01,      /* I =171 */
(PID.TID 0000.0001)                 1.417419098740798E+01,      /* I =172 */
(PID.TID 0000.0001)                 1.421587505143505E+01,      /* I =173 */
(PID.TID 0000.0001)                 1.425955137909086E+01,      /* I =174 */
(PID.TID 0000.0001)                 1.430530768822354E+01,      /* I =175 */
(PID.TID 0000.0001)                 1.435323480187859E+01,      /* I =176 */
(PID.TID 0000.0001)                 1.440342667996306E+01,      /* I =177 */
(PID.TID 0000.0001)                 1.445598044188735E+01,      /* I =178 */
(PID.TID 0000.0001)                 1.451099637899165E+01,      /* I =179 */
(PID.TID 0000.0001)                 1.456857795547806E+01,      /* I =180 */
(PID.TID 0000.0001)                 1.462883179648165E+01,      /* I =181 */
(PID.TID 0000.0001)                 1.469186766182633E+01,      /* I =182 */
(PID.TID 0000.0001)                 1.475779840392478E+01,      /* I =183 */
(PID.TID 0000.0001)                 1.482673990819746E+01,      /* I =184 */
(PID.TID 0000.0001)                 1.489881101430502E+01,      /* I =185 */
(PID.TID 0000.0001)                 1.497413341641339E+01,      /* I =186 */
(PID.TID 0000.0001)                 1.505283154064287E+01,      /* I =187 */
(PID.TID 0000.0001)                 1.513503239779421E+01,      /* I =188 */
(PID.TID 0000.0001)                 1.522086540939820E+01,      /* I =189 */
(PID.TID 0000.0001)                 1.531046220510348E+01,      /* I =190 */
(PID.TID 0000.0001)                 1.540395638940296E+01,      /* I =191 */
(PID.TID 0000.0001)                 1.550148327570534E+01,      /* I =192 */
(PID.TID 0000.0001)                 1.560317958578925E+01,      /* I =193 */
(PID.TID 0000.0001)                 1.570918311273503E+01,      /* I =194 */
(PID.TID 0000.0001)                 1.581963234551954E+01,      /* I =195 */
(PID.TID 0000.0001)                 1.593466605358393E+01,      /* I =196 */
(PID.TID 0000.0001)                 1.605442282984915E+01,      /* I =197 */
(PID.TID 0000.0001)                 1.617904059086152E+01,      /* I =198 */
(PID.TID 0000.0001)                 1.630865603300538E+01,      /* I =199 */
(PID.TID 0000.0001)                 1.644340404402545E+01,      /* I =200 */
(PID.TID 0000.0001)                 1.658341706946045E+01,      /* I =201 */
(PID.TID 0000.0001)                 1.672882443400552E+01,      /* I =202 */
(PID.TID 0000.0001)                 1.687975161829456E+01,      /* I =203 */
(PID.TID 0000.0001)                 1.703631949212776E+01,      /* I =204 */
(PID.TID 0000.0001)                 1.719864350576236E+01,      /* I =205 */
(PID.TID 0000.0001)                 1.736683284153632E+01,      /* I =206 */
(PID.TID 0000.0001)                 1.754098952880160E+01,      /* I =207 */
(PID.TID 0000.0001)                 1.772120752590214E+01,      /* I =208 */
(PID.TID 0000.0001)                 1.790757177373487E+01,      /* I =209 */
(PID.TID 0000.0001)                 1.810015722627195E+01,      /* I =210 */
(PID.TID 0000.0001)                 1.829902786428892E+01,      /* I =211 */
(PID.TID 0000.0001)                 1.850423569942308E+01,      /* I =212 */
(PID.TID 0000.0001)                 1.871581977656487E+01,      /* I =213 */
(PID.TID 0000.0001)                 1.893380518344518E+01,      /* I =214 */
(PID.TID 0000.0001)                 1.915820207710334E+01,      /* I =215 */
(PID.TID 0000.0001)                 1.938900473768388E+01,      /* I =216 */
(PID.TID 0000.0001)                 1.962619066069162E+01,      /* I =217 */
(PID.TID 0000.0001)                 1.986971969941029E+01,      /* I =218 */
(PID.TID 0000.0001)                 2.011953326963638E+01,      /* I =219 */
(PID.TID 0000.0001)                 2.037555362917121E+01,      /* I =220 */
(PID.TID 0000.0001)                 2.063768324462843E+01,      /* I =221 */
(PID.TID 0000.0001)                 2.090580425802844E+01,      /* I =222 */
(PID.TID 0000.0001)                 2.117977806534697E+01,      /* I =223 */
(PID.TID 0000.0001)                 2.145944501864553E+01,      /* I =224 */
(PID.TID 0000.0001)                 2.174462426262659E+01,      /* I =225 */
(PID.TID 0000.0001)                 2.203511371541921E+01,      /* I =226 */
(PID.TID 0000.0001)                 2.233069020211113E+01,      /* I =227 */
(PID.TID 0000.0001)                 2.263110974800941E+01,      /* I =228 */
(PID.TID 0000.0001)                 2.293610803684538E+01,      /* I =229 */
(PID.TID 0000.0001)                 2.324540103716459E+01,      /* I =230 */
(PID.TID 0000.0001)                 2.355868579798565E+01,      /* I =231 */
(PID.TID 0000.0001)                 2.387564141251102E+01,      /* I =232 */
(PID.TID 0000.0001)                 2.419593014626957E+01,      /* I =233 */
(PID.TID 0000.0001)                 2.451919872361348E+01,      /* I =234 */
(PID.TID 0000.0001)                 2.484507976403390E+01,      /* I =235 */
(PID.TID 0000.0001)                 2.517319335735632E+01,      /* I =236 */
(PID.TID 0000.0001)                 2.550314876458363E+01,      /* I =237 */
(PID.TID 0000.0001)                 2.583454622903081E+01,      /* I =238 */
(PID.TID 0000.0001)                 2.616697888049133E+01,      /* I =239 */
(PID.TID 0000.0001)                 2.650003471354386E+01,      /* I =240 */
(PID.TID 0000.0001)                 2.683329861978947E+01,      /* I =241 */
(PID.TID 0000.0001)                 2.716635445284200E+01,      /* I =242 */
(PID.TID 0000.0001)                 2.749878710430253E+01,      /* I =243 */
(PID.TID 0000.0001)                 2.783018456874970E+01,      /* I =244 */
(PID.TID 0000.0001)                 2.816013997597701E+01,      /* I =245 */
(PID.TID 0000.0001)                 2.848825356929943E+01,      /* I =246 */
(PID.TID 0000.0001)                 2.881413460971985E+01,      /* I =247 */
(PID.TID 0000.0001)                 2.913740318706376E+01,      /* I =248 */
(PID.TID 0000.0001)                 2.945769192082232E+01,      /* I =249 */
(PID.TID 0000.0001)                 2.977464753534769E+01,      /* I =250 */
(PID.TID 0000.0001)                 3.008793229616873E+01,      /* I =251 */
(PID.TID 0000.0001)                 3.039722529648795E+01,      /* I =252 */
(PID.TID 0000.0001)                 3.070222358532392E+01,      /* I =253 */
(PID.TID 0000.0001)                 3.100264313122220E+01,      /* I =254 */
(PID.TID 0000.0001)                 3.129821961791412E+01,      /* I =255 */
(PID.TID 0000.0001)                 3.158870907070674E+01,      /* I =256 */
(PID.TID 0000.0001)                 3.187388831468781E+01,      /* I =257 */
(PID.TID 0000.0001)                 3.215355526798636E+01,      /* I =258 */
(PID.TID 0000.0001)                 3.242752907530489E+01,      /* I =259 */
(PID.TID 0000.0001)                 3.269565008870491E+01,      /* I =260 */
(PID.TID 0000.0001)                 3.295777970416212E+01,      /* I =261 */
(PID.TID 0000.0001)                 3.321380006369695E+01,      /* I =262 */
(PID.TID 0000.0001)                 3.346361363392305E+01,      /* I =263 */
(PID.TID 0000.0001)                 3.370714267264171E+01,      /* I =264 */
(PID.TID 0000.0001)                 3.394432859564945E+01,      /* I =265 */
(PID.TID 0000.0001)                 3.417513125623000E+01,      /* I =266 */
(PID.TID 0000.0001)                 3.439952814988815E+01,      /* I =267 */
(PID.TID 0000.0001)                 3.461751355676846E+01,      /* I =268 */
(PID.TID 0000.0001)                 3.482909763391025E+01,      /* I =269 */
(PID.TID 0000.0001)                 3.503430546904441E+01,      /* I =270 */
(PID.TID 0000.0001)                 3.523317610706138E+01,      /* I =271 */
(PID.TID 0000.0001)                 3.542576155959846E+01,      /* I =272 */
(PID.TID 0000.0001)                 3.561212580743119E+01,      /* I =273 */
(PID.TID 0000.0001)                 3.579234380453173E+01,      /* I =274 */
(PID.TID 0000.0001)                 3.596650049179701E+01,      /* I =275 */
(PID.TID 0000.0001)                 3.613468982757097E+01,      /* I =276 */
(PID.TID 0000.0001)                 3.629701384120557E+01,      /* I =277 */
(PID.TID 0000.0001)                 3.645358171503877E+01,      /* I =278 */
(PID.TID 0000.0001)                 3.660450889932781E+01,      /* I =279 */
(PID.TID 0000.0001)                 3.674991626387288E+01,      /* I =280 */
(PID.TID 0000.0001)                 3.688992928930789E+01,      /* I =281 */
(PID.TID 0000.0001)                 3.702467730032795E+01,      /* I =282 */
(PID.TID 0000.0001)                 3.715429274247181E+01,      /* I =283 */
(PID.TID 0000.0001)                 3.727891050348418E+01,      /* I =284 */
(PID.TID 0000.0001)                 3.739866727974940E+01,      /* I =285 */
(PID.TID 0000.0001)                 3.751370098781379E+01,      /* I =286 */
(PID.TID 0000.0001)                 3.762415022059830E+01,      /* I =287 */
(PID.TID 0000.0001)                 3.773015374754408E+01,      /* I =288 */
(PID.TID 0000.0001)                 3.783185005762799E+01,      /* I =289 */
(PID.TID 0000.0001)                 3.792937694393037E+01,      /* I =290 */
(PID.TID 0000.0001)                 3.802287112822985E+01,      /* I =291 */
(PID.TID 0000.0001)                 3.811246792393514E+01,      /* I =292 */
(PID.TID 0000.0001)                 3.819830093553912E+01,      /* I =293 */
(PID.TID 0000.0001)                 3.828050179269046E+01,      /* I =294 */
(PID.TID 0000.0001)                 3.835919991691994E+01,      /* I =295 */
(PID.TID 0000.0001)                 3.843452231902831E+01,      /* I =296 */
(PID.TID 0000.0001)                 3.850659342513587E+01,      /* I =297 */
(PID.TID 0000.0001)                 3.857553492940855E+01,      /* I =298 */
(PID.TID 0000.0001)                 3.864146567150701E+01,      /* I =299 */
(PID.TID 0000.0001)                 3.870450153685168E+01,      /* I =300 */
(PID.TID 0000.0001)                 3.876475537785527E+01,      /* I =301 */
(PID.TID 0000.0001)                 3.882233695434168E+01,      /* I =302 */
(PID.TID 0000.0001)                 3.887735289144598E+01,      /* I =303 */
(PID.TID 0000.0001)                 3.892990665337027E+01,      /* I =304 */
(PID.TID 0000.0001)                 3.898009853145474E+01,      /* I =305 */
(PID.TID 0000.0001)                 3.902802564510979E+01,      /* I =306 */
(PID.TID 0000.0001)                 3.907378195424248E+01,      /* I =307 */
(PID.TID 0000.0001)                 3.911745828189828E+01,      /* I =308 */
(PID.TID 0000.0001)                 3.915914234592535E+01,      /* I =309 */
(PID.TID 0000.0001)                 3.919891879855328E+01,      /* I =310 */
(PID.TID 0000.0001)                 3.923686927286094E+01,      /* I =311 */
(PID.TID 0000.0001)                 3.927307243518748E+01,      /* I =312 */
(PID.TID 0000.0001)                 3.930760404261683E+01,      /* I =313 */
(PID.TID 0000.0001)                 3.934053700473945E+01,      /* I =314 */
(PID.TID 0000.0001)                 3.937194144896407E+01,      /* I =315 */
(PID.TID 0000.0001)                 3.940188478871792E+01,      /* I =316 */
(PID.TID 0000.0001)                 3.943043179393585E+01,      /* I =317 */
(PID.TID 0000.0001)                 3.945764466329656E+01,      /* I =318 */
(PID.TID 0000.0001)                 3.948358309771845E+01,      /* I =319 */
(PID.TID 0000.0001)                 3.950830437467826E+01       /* I =320 */
(PID.TID 0000.0001)     ;
(PID.TID 0000.0001) dxV =  /* dxV(1,:,1,:) ( m - cartesian, degrees - spherical ) */
(PID.TID 0000.0001)                 2.642693665638726E+01       /* J =  1 */
(PID.TID 0000.0001)     ;
(PID.TID 0000.0001) dyU =  /* dyU(:,1,:,1) ( m - cartesian, degrees - spherical ) */
(PID.TID 0000.0001)   320 @  2.000000000000000E+02              /* I =  1:320 */
(PID.TID 0000.0001)     ;
(PID.TID 0000.0001) dyU =  /* dyU(1,:,1,:) ( m - cartesian, degrees - spherical ) */
(PID.TID 0000.0001)                 2.000000000000000E+02       /* J =  1 */
(PID.TID 0000.0001)     ;
(PID.TID 0000.0001) rA =  /* rA(:,1,:,1) ( m - cartesian, degrees - spherical ) */
(PID.TID 0000.0001)                 2.666701115686057E+03,      /* I =  1 */
(PID.TID 0000.0001)                 2.666702881913057E+03,      /* I =  2 */
(PID.TID 0000.0001)                 2.666704738695189E+03,      /* I =  3 */
(PID.TID 0000.0001)                 2.666706690675185E+03,      /* I =  4 */
(PID.TID 0000.0001)                 2.666708742733794E+03,      /* I =  5 */
(PID.TID 0000.0001)                 2.666710900001994E+03,      /* I =  6 */
(PID.TID 0000.0001)                 2.666713167873819E+03,      /* I =  7 */
(PID.TID 0000.0001)                 2.666715552019839E+03,      /* I =  8 */
(PID.TID 0000.0001)                 2.666718058401342E+03,      /* I =  9 */
(PID.TID 0000.0001)                 2.666720693285232E+03,      /* I = 10 */
(PID.TID 0000.0001)                 2.666723463259700E+03,      /* I = 11 */
(PID.TID 0000.0001)                 2.666726375250694E+03,      /* I = 12 */
(PID.TID 0000.0001)                 2.666729436539230E+03,      /* I = 13 */
(PID.TID 0000.0001)                 2.666732654779597E+03,      /* I = 14 */
(PID.TID 0000.0001)                 2.666736038018488E+03,      /* I = 15 */
(PID.TID 0000.0001)                 2.666739594715118E+03,      /* I = 16 */
(PID.TID 0000.0001)                 2.666743333762369E+03,      /* I = 17 */
(PID.TID 0000.0001)                 2.666747264509018E+03,      /* I = 18 */
(PID.TID 0000.0001)                 2.666751396783111E+03,      /* I = 19 */
(PID.TID 0000.0001)                 2.666755740916523E+03,      /* I = 20 */
(PID.TID 0000.0001)                 2.666760307770787E+03,      /* I = 21 */
(PID.TID 0000.0001)                 2.666765108764243E+03,      /* I = 22 */
(PID.TID 0000.0001)                 2.666770155900579E+03,      /* I = 23 */
(PID.TID 0000.0001)                 2.666775461798826E+03,      /* I = 24 */
(PID.TID 0000.0001)                 2.666781039724912E+03,      /* I = 25 */
(PID.TID 0000.0001)                 2.666786903624803E+03,      /* I = 26 */
(PID.TID 0000.0001)                 2.666793068159366E+03,      /* I = 27 */
(PID.TID 0000.0001)                 2.666799548741011E+03,      /* I = 28 */
(PID.TID 0000.0001)                 2.666806361572199E+03,      /* I = 29 */
(PID.TID 0000.0001)                 2.666813523685944E+03,      /* I = 30 */
(PID.TID 0000.0001)                 2.666821052988373E+03,      /* I = 31 */
(PID.TID 0000.0001)                 2.666828968303470E+03,      /* I = 32 */
(PID.TID 0000.0001)                 2.666837289420117E+03,      /* I = 33 */
(PID.TID 0000.0001)                 2.666846037141539E+03,      /* I = 34 */
(PID.TID 0000.0001)                 2.666855233337290E+03,      /* I = 35 */
(PID.TID 0000.0001)                 2.666864900997882E+03,      /* I = 36 */
(PID.TID 0000.0001)                 2.666875064292241E+03,      /* I = 37 */
(PID.TID 0000.0001)                 2.666885748628079E+03,      /* I = 38 */
(PID.TID 0000.0001)                 2.666896980715370E+03,      /* I = 39 */
(PID.TID 0000.0001)                 2.666908788633080E+03,      /* I = 40 */
(PID.TID 0000.0001)                 2.666921201899298E+03,      /* I = 41 */
(PID.TID 0000.0001)                 2.666934251544980E+03,      /* I = 42 */
(PID.TID 0000.0001)                 2.666947970191445E+03,      /* I = 43 */
(PID.TID 0000.0001)                 2.666962392131855E+03,      /* I = 44 */
(PID.TID 0000.0001)                 2.666977553416860E+03,      /* I = 45 */
(PID.TID 0000.0001)                 2.666993491944622E+03,      /* I = 46 */
(PID.TID 0000.0001)                 2.667010247555456E+03,      /* I = 47 */
(PID.TID 0000.0001)                 2.667027862131305E+03,      /* I = 48 */
(PID.TID 0000.0001)                 2.667046379700309E+03,      /* I = 49 */
(PID.TID 0000.0001)                 2.667065846546724E+03,      /* I = 50 */
(PID.TID 0000.0001)                 2.667086311326460E+03,      /* I = 51 */
(PID.TID 0000.0001)                 2.667107825188542E+03,      /* I = 52 */
(PID.TID 0000.0001)                 2.667130441902762E+03,      /* I = 53 */
(PID.TID 0000.0001)                 2.667154217993878E+03,      /* I = 54 */
(PID.TID 0000.0001)                 2.667179212882664E+03,      /* I = 55 */
(PID.TID 0000.0001)                 2.667205489034175E+03,      /* I = 56 */
(PID.TID 0000.0001)                 2.667233112113591E+03,      /* I = 57 */
(PID.TID 0000.0001)                 2.667262151150025E+03,      /* I = 58 */
(PID.TID 0000.0001)                 2.667292678708699E+03,      /* I = 59 */
(PID.TID 0000.0001)                 2.667324771071927E+03,      /* I = 60 */
(PID.TID 0000.0001)                 2.667358508429325E+03,      /* I = 61 */
(PID.TID 0000.0001)                 2.667393975077757E+03,      /* I = 62 */
(PID.TID 0000.0001)                 2.667431259631473E+03,      /* I = 63 */
(PID.TID 0000.0001)                 2.667470455242985E+03,      /* I = 64 */
(PID.TID 0000.0001)                 2.667511659835214E+03,      /* I = 65 */
(PID.TID 0000.0001)                 2.667554976345479E+03,      /* I = 66 */
(PID.TID 0000.0001)                 2.667600512981946E+03,      /* I = 67 */
(PID.TID 0000.0001)                 2.667648383493139E+03,      /* I = 68 */
(PID.TID 0000.0001)                 2.667698707451207E+03,      /* I = 69 */
(PID.TID 0000.0001)                 2.667751610549628E+03,      /* I = 70 */
(PID.TID 0000.0001)                 2.667807224916078E+03,      /* I = 71 */
(PID.TID 0000.0001)                 2.667865689441244E+03,      /* I = 72 */
(PID.TID 0000.0001)                 2.667927150124385E+03,      /* I = 73 */
(PID.TID 0000.0001)                 2.667991760436477E+03,      /* I = 74 */
(PID.TID 0000.0001)                 2.668059681701844E+03,      /* I = 75 */
(PID.TID 0000.0001)                 2.668131083499207E+03,      /* I = 76 */
(PID.TID 0000.0001)                 2.668206144083118E+03,      /* I = 77 */
(PID.TID 0000.0001)                 2.668285050826821E+03,      /* I = 78 */
(PID.TID 0000.0001)                 2.668368000687609E+03,      /* I = 79 */
(PID.TID 0000.0001)                 2.668455200695822E+03,      /* I = 80 */
(PID.TID 0000.0001)                 2.668546868468647E+03,      /* I = 81 */
(PID.TID 0000.0001)                 2.668643232750007E+03,      /* I = 82 */
(PID.TID 0000.0001)                 2.668744533977807E+03,      /* I = 83 */
(PID.TID 0000.0001)                 2.668851024879925E+03,      /* I = 84 */
(PID.TID 0000.0001)                 2.668962971100398E+03,      /* I = 85 */
(PID.TID 0000.0001)                 2.669080651857283E+03,      /* I = 86 */
(PID.TID 0000.0001)                 2.669204360633805E+03,      /* I = 87 */
(PID.TID 0000.0001)                 2.669334405904424E+03,      /* I = 88 */
(PID.TID 0000.0001)                 2.669471111897582E+03,      /* I = 89 */
(PID.TID 0000.0001)                 2.669614819396926E+03,      /* I = 90 */
(PID.TID 0000.0001)                 2.669765886582942E+03,      /* I = 91 */
(PID.TID 0000.0001)                 2.669924689916983E+03,      /* I = 92 */
(PID.TID 0000.0001)                 2.670091625069792E+03,      /* I = 93 */
(PID.TID 0000.0001)                 2.670267107896709E+03,      /* I = 94 */
(PID.TID 0000.0001)                 2.670451575461870E+03,      /* I = 95 */
(PID.TID 0000.0001)                 2.670645487113796E+03,      /* I = 96 */
(PID.TID 0000.0001)                 2.670849325614885E+03,      /* I = 97 */
(PID.TID 0000.0001)                 2.671063598327458E+03,      /* I = 98 */
(PID.TID 0000.0001)                 2.671288838459089E+03,      /* I = 99 */
(PID.TID 0000.0001)                 2.671525606370137E+03,      /* I =100 */
(PID.TID 0000.0001)                 2.671774490946455E+03,      /* I =101 */
(PID.TID 0000.0001)                 2.672036111040457E+03,      /* I =102 */
(PID.TID 0000.0001)                 2.672311116983819E+03,      /* I =103 */
(PID.TID 0000.0001)                 2.672600192175255E+03,      /* I =104 */
(PID.TID 0000.0001)                 2.672904054746963E+03,      /* I =105 */
(PID.TID 0000.0001)                 2.673223459313480E+03,      /* I =106 */
(PID.TID 0000.0001)                 2.673559198806866E+03,      /* I =107 */
(PID.TID 0000.0001)                 2.673912106402288E+03,      /* I =108 */
(PID.TID 0000.0001)                 2.674283057538254E+03,      /* I =109 */
(PID.TID 0000.0001)                 2.674672972035931E+03,      /* I =110 */
(PID.TID 0000.0001)                 2.675082816322154E+03,      /* I =111 */
(PID.TID 0000.0001)                 2.675513605760930E+03,      /* I =112 */
(PID.TID 0000.0001)                 2.675966407098426E+03,      /* I =113 */
(PID.TID 0000.0001)                 2.676442341026629E+03,      /* I =114 */
(PID.TID 0000.0001)                 2.676942584871080E+03,      /* I =115 */
(PID.TID 0000.0001)                 2.677468375408266E+03,      /* I =116 */
(PID.TID 0000.0001)                 2.678021011818476E+03,      /* I =117 */
(PID.TID 0000.0001)                 2.678601858780140E+03,      /* I =118 */
(PID.TID 0000.0001)                 2.679212349711884E+03,      /* I =119 */
(PID.TID 0000.0001)                 2.679853990168719E+03,      /* I =120 */
(PID.TID 0000.0001)                 2.680528361399058E+03,      /* I =121 */
(PID.TID 0000.0001)                 2.681237124069392E+03,      /* I =122 */
(PID.TID 0000.0001)                 2.681982022163736E+03,      /* I =123 */
(PID.TID 0000.0001)                 2.682764887065112E+03,      /* I =124 */
(PID.TID 0000.0001)                 2.683587641826588E+03,      /* I =125 */
(PID.TID 0000.0001)                 2.684452305639538E+03,      /* I =126 */
(PID.TID 0000.0001)                 2.685360998507020E+03,      /* I =127 */
(PID.TID 0000.0001)                 2.686315946130325E+03,      /* I =128 */
(PID.TID 0000.0001)                 2.687319485016912E+03,      /* I =129 */
(PID.TID 0000.0001)                 2.688374067818113E+03,      /* I =130 */
(PID.TID 0000.0001)                 2.689482268905093E+03,      /* I =131 */
(PID.TID 0000.0001)                 2.690646790191687E+03,      /* I =132 */
(PID.TID 0000.0001)                 2.691870467212776E+03,      /* I =133 */
(PID.TID 0000.0001)                 2.693156275466971E+03,      /* I =134 */
(PID.TID 0000.0001)                 2.694507337032312E+03,      /* I =135 */
(PID.TID 0000.0001)                 2.695926927463736E+03,      /* I =136 */
(PID.TID 0000.0001)                 2.697418482980933E+03,      /* I =137 */
(PID.TID 0000.0001)                 2.698985607955115E+03,      /* I =138 */
(PID.TID 0000.0001)                 2.700632082703016E+03,      /* I =139 */
(PID.TID 0000.0001)                 2.702361871596186E+03,      /* I =140 */
(PID.TID 0000.0001)                 2.704179131493308E+03,      /* I =141 */
(PID.TID 0000.0001)                 2.706088220502837E+03,      /* I =142 */
(PID.TID 0000.0001)                 2.708093707082747E+03,      /* I =143 */
(PID.TID 0000.0001)                 2.710200379483520E+03,      /* I =144 */
(PID.TID 0000.0001)                 2.712413255539797E+03,      /* I =145 */
(PID.TID 0000.0001)                 2.714737592815188E+03,      /* I =146 */
(PID.TID 0000.0001)                 2.717178899103712E+03,      /* I =147 */
(PID.TID 0000.0001)                 2.719742943290156E+03,      /* I =148 */
(PID.TID 0000.0001)                 2.722435766570230E+03,      /* I =149 */
(PID.TID 0000.0001)                 2.725263694029831E+03,      /* I =150 */
(PID.TID 0000.0001)                 2.728233346580919E+03,      /* I =151 */
(PID.TID 0000.0001)                 2.731351653249463E+03,      /* I =152 */
(PID.TID 0000.0001)                 2.734625863808595E+03,      /* I =153 */
(PID.TID 0000.0001)                 2.738063561747545E+03,      /* I =154 */
(PID.TID 0000.0001)                 2.741672677563976E+03,      /* I =155 */
(PID.TID 0000.0001)                 2.745461502364123E+03,      /* I =156 */
(PID.TID 0000.0001)                 2.749438701751514E+03,      /* I =157 */
(PID.TID 0000.0001)                 2.753613329981019E+03,      /* I =158 */
(PID.TID 0000.0001)                 2.757994844350548E+03,      /* I =159 */
(PID.TID 0000.0001)                 2.762593119797822E+03,      /* I =160 */
(PID.TID 0000.0001)                 2.767418463664208E+03,      /* I =161 */
(PID.TID 0000.0001)                 2.772481630581747E+03,      /* I =162 */
(PID.TID 0000.0001)                 2.777793837432962E+03,      /* I =163 */
(PID.TID 0000.0001)                 2.783366778326029E+03,      /* I =164 */
(PID.TID 0000.0001)                 2.789212639520137E+03,      /* I =165 */
(PID.TID 0000.0001)                 2.795344114227569E+03,      /* I =166 */
(PID.TID 0000.0001)                 2.801774417209983E+03,      /* I =167 */
(PID.TID 0000.0001)                 2.808517299076618E+03,      /* I =168 */
(PID.TID 0000.0001)                 2.815587060181723E+03,      /* I =169 */
(PID.TID 0000.0001)                 2.822998564007234E+03,      /* I =170 */
(PID.TID 0000.0001)                 2.830767249904789E+03,      /* I =171 */
(PID.TID 0000.0001)                 2.838909145058403E+03,      /* I =172 */
(PID.TID 0000.0001)                 2.847440875515617E+03,      /* I =173 */
(PID.TID 0000.0001)                 2.856379676120726E+03,      /* I =174 */
(PID.TID 0000.0001)                 2.865743399168691E+03,      /* I =175 */
(PID.TID 0000.0001)                 2.875550521582743E+03,      /* I =176 */
(PID.TID 0000.0001)                 2.885820150402481E+03,      /* I =177 */
(PID.TID 0000.0001)                 2.896572026352459E+03,      /* I =178 */
(PID.TID 0000.0001)                 2.907826525244200E+03,      /* I =179 */
(PID.TID 0000.0001)                 2.919604656947023E+03,      /* I =180 */
(PID.TID 0000.0001)                 2.931928061645636E+03,      /* I =181 */
(PID.TID 0000.0001)                 2.944819003084895E+03,      /* I =182 */
(PID.TID 0000.0001)                 2.958300358485018E+03,      /* I =183 */
(PID.TID 0000.0001)                 2.972395604793966E+03,      /* I =184 */
(PID.TID 0000.0001)                 2.987128800928041E+03,      /* I =185 */
(PID.TID 0000.0001)                 3.002524565637315E+03,      /* I =186 */
(PID.TID 0000.0001)                 3.018608050619834E+03,      /* I =187 */
(PID.TID 0000.0001)                 3.035404908497850E+03,      /* I =188 */
(PID.TID 0000.0001)                 3.052941255261428E+03,      /* I =189 */
(PID.TID 0000.0001)                 3.071243626779966E+03,      /* I =190 */
(PID.TID 0000.0001)                 3.090338928981218E+03,      /* I =191 */
(PID.TID 0000.0001)                 3.110254381300920E+03,      /* I =192 */
(PID.TID 0000.0001)                 3.131017453014780E+03,      /* I =193 */
(PID.TID 0000.0001)                 3.152655792079233E+03,      /* I =194 */
(PID.TID 0000.0001)                 3.175197146128584E+03,      /* I =195 */
(PID.TID 0000.0001)                 3.198669275304987E+03,      /* I =196 */
(PID.TID 0000.0001)                 3.223099856634673E+03,      /* I =197 */
(PID.TID 0000.0001)                 3.248516379709935E+03,      /* I =198 */
(PID.TID 0000.0001)                 3.274946033492218E+03,      /* I =199 */
(PID.TID 0000.0001)                 3.302415584117961E+03,      /* I =200 */
(PID.TID 0000.0001)                 3.330951243666221E+03,      /* I =201 */
(PID.TID 0000.0001)                 3.360578529935989E+03,      /* I =202 */
(PID.TID 0000.0001)                 3.391322117381837E+03,      /* I =203 */
(PID.TID 0000.0001)                 3.423205679469268E+03,      /* I =204 */
(PID.TID 0000.0001)                 3.456251722835677E+03,      /* I =205 */
(PID.TID 0000.0001)                 3.490481413778852E+03,      /* I =206 */
(PID.TID 0000.0001)                 3.525914397741788E+03,      /* I =207 */
(PID.TID 0000.0001)                 3.562568612619069E+03,      /* I =208 */
(PID.TID 0000.0001)                 3.600460096874879E+03,      /* I =209 */
(PID.TID 0000.0001)                 3.639602793633901E+03,      /* I =210 */
(PID.TID 0000.0001)                 3.680008352081669E+03,      /* I =211 */
(PID.TID 0000.0001)                 3.721685927687564E+03,      /* I =212 */
(PID.TID 0000.0001)                 3.764641982938386E+03,      /* I =213 */
(PID.TID 0000.0001)                 3.808880090439688E+03,      /* I =214 */
(PID.TID 0000.0001)                 3.854400740401647E+03,      /* I =215 */
(PID.TID 0000.0001)                 3.901201154671907E+03,      /* I =216 */
(PID.TID 0000.0001)                 3.949275109604741E+03,      /* I =217 */
(PID.TID 0000.0001)                 3.998612770159373E+03,      /* I =218 */
(PID.TID 0000.0001)                 4.049200537695179E+03,      /* I =219 */
(PID.TID 0000.0001)                 4.101020913973307E+03,      /* I =220 */
(PID.TID 0000.0001)                 4.154052383878064E+03,      /* I =221 */
(PID.TID 0000.0001)                 4.208269319333313E+03,      /* I =222 */
(PID.TID 0000.0001)                 4.263641906805477E+03,      /* I =223 */
(PID.TID 0000.0001)                 4.320136100652733E+03,      /* I =224 */
(PID.TID 0000.0001)                 4.377713604397904E+03,      /* I =225 */
(PID.TID 0000.0001)                 4.436331881769780E+03,      /* I =226 */
(PID.TID 0000.0001)                 4.495944199074673E+03,      /* I =227 */
(PID.TID 0000.0001)                 4.556499700129090E+03,      /* I =228 */
(PID.TID 0000.0001)                 4.617943514609063E+03,      /* I =229 */
(PID.TID 0000.0001)                 4.680216900256775E+03,      /* I =230 */
(PID.TID 0000.0001)                 4.743257418937483E+03,      /* I =231 */
(PID.TID 0000.0001)                 4.806999146066923E+03,      /* I =232 */
(PID.TID 0000.0001)                 4.871372912440906E+03,      /* I =233 */
(PID.TID 0000.0001)                 4.936306577004486E+03,      /* I =234 */
(PID.TID 0000.0001)                 5.001725328609076E+03,      /* I =235 */
(PID.TID 0000.0001)                 5.067552014333451E+03,      /* I =236 */
(PID.TID 0000.0001)                 5.133707491500002E+03,      /* I =237 */
(PID.TID 0000.0001)                 5.200111000112320E+03,      /* I =238 */
(PID.TID 0000.0001)                 5.266680552084212E+03,      /* I =239 */
(PID.TID 0000.0001)                 5.333333333333333E+03,      /* I =240 */
(PID.TID 0000.0001)                 5.399986114582455E+03,      /* I =241 */
(PID.TID 0000.0001)                 5.466555666554346E+03,      /* I =242 */
(PID.TID 0000.0001)                 5.532959175166664E+03,      /* I =243 */
(PID.TID 0000.0001)                 5.599114652333215E+03,      /* I =244 */
(PID.TID 0000.0001)                 5.664941338057590E+03,      /* I =245 */
(PID.TID 0000.0001)                 5.730360089662182E+03,      /* I =246 */
(PID.TID 0000.0001)                 5.795293754225760E+03,      /* I =247 */
(PID.TID 0000.0001)                 5.859667520599744E+03,      /* I =248 */
(PID.TID 0000.0001)                 5.923409247729184E+03,      /* I =249 */
(PID.TID 0000.0001)                 5.986449766409891E+03,      /* I =250 */
(PID.TID 0000.0001)                 6.048723152057603E+03,      /* I =251 */
(PID.TID 0000.0001)                 6.110166966537575E+03,      /* I =252 */
(PID.TID 0000.0001)                 6.170722467591993E+03,      /* I =253 */
(PID.TID 0000.0001)                 6.230334784896885E+03,      /* I =254 */
(PID.TID 0000.0001)                 6.288953062268763E+03,      /* I =255 */
(PID.TID 0000.0001)                 6.346530566013934E+03,      /* I =256 */
(PID.TID 0000.0001)                 6.403024759861190E+03,      /* I =257 */
(PID.TID 0000.0001)                 6.458397347333354E+03,      /* I =258 */
(PID.TID 0000.0001)                 6.512614282788602E+03,      /* I =259 */
(PID.TID 0000.0001)                 6.565645752693359E+03,      /* I =260 */
(PID.TID 0000.0001)                 6.617466128971488E+03,      /* I =261 */
(PID.TID 0000.0001)                 6.668053896507294E+03,      /* I =262 */
(PID.TID 0000.0001)                 6.717391557061925E+03,      /* I =263 */
(PID.TID 0000.0001)                 6.765465511994760E+03,      /* I =264 */
(PID.TID 0000.0001)                 6.812265926265019E+03,      /* I =265 */
(PID.TID 0000.0001)                 6.857786576226979E+03,      /* I =266 */
(PID.TID 0000.0001)                 6.902024683728279E+03,      /* I =267 */
(PID.TID 0000.0001)                 6.944980738979102E+03,      /* I =268 */
(PID.TID 0000.0001)                 6.986658314584997E+03,      /* I =269 */
(PID.TID 0000.0001)                 7.027063873032766E+03,      /* I =270 */
(PID.TID 0000.0001)                 7.066206569791787E+03,      /* I =271 */
(PID.TID 0000.0001)                 7.104098054047598E+03,      /* I =272 */
(PID.TID 0000.0001)                 7.140752268924879E+03,      /* I =273 */
(PID.TID 0000.0001)                 7.176185252887813E+03,      /* I =274 */
(PID.TID 0000.0001)                 7.210414943830989E+03,      /* I =275 */
(PID.TID 0000.0001)                 7.243460987197397E+03,      /* I =276 */
(PID.TID 0000.0001)                 7.275344549284830E+03,      /* I =277 */
(PID.TID 0000.0001)                 7.306088136730677E+03,      /* I =278 */
(PID.TID 0000.0001)                 7.335715423000445E+03,      /* I =279 */
(PID.TID 0000.0001)                 7.364251082548706E+03,      /* I =280 */
(PID.TID 0000.0001)                 7.391720633174448E+03,      /* I =281 */
(PID.TID 0000.0001)                 7.418150286956731E+03,      /* I =282 */
(PID.TID 0000.0001)                 7.443566810031993E+03,      /* I =283 */
(PID.TID 0000.0001)                 7.467997391361680E+03,      /* I =284 */
(PID.TID 0000.0001)                 7.491469520538082E+03,      /* I =285 */
(PID.TID 0000.0001)                 7.514010874587433E+03,      /* I =286 */
(PID.TID 0000.0001)                 7.535649213651886E+03,      /* I =287 */
(PID.TID 0000.0001)                 7.556412285365746E+03,      /* I =288 */
(PID.TID 0000.0001)                 7.576327737685448E+03,      /* I =289 */
(PID.TID 0000.0001)                 7.595423039886701E+03,      /* I =290 */
(PID.TID 0000.0001)                 7.613725411405238E+03,      /* I =291 */
(PID.TID 0000.0001)                 7.631261758168817E+03,      /* I =292 */
(PID.TID 0000.0001)                 7.648058616046834E+03,      /* I =293 */
(PID.TID 0000.0001)                 7.664142101029352E+03,      /* I =294 */
(PID.TID 0000.0001)                 7.679537865738625E+03,      /* I =295 */
(PID.TID 0000.0001)                 7.694271061872699E+03,      /* I =296 */
(PID.TID 0000.0001)                 7.708366308181648E+03,      /* I =297 */
(PID.TID 0000.0001)                 7.721847663581771E+03,      /* I =298 */
(PID.TID 0000.0001)                 7.734738605021031E+03,      /* I =299 */
(PID.TID 0000.0001)                 7.747062009719643E+03,      /* I =300 */
(PID.TID 0000.0001)                 7.758840141422466E+03,      /* I =301 */
(PID.TID 0000.0001)                 7.770094640314207E+03,      /* I =302 */
(PID.TID 0000.0001)                 7.780846516264185E+03,      /* I =303 */
(PID.TID 0000.0001)                 7.791116145083923E+03,      /* I =304 */
(PID.TID 0000.0001)                 7.800923267497976E+03,      /* I =305 */
(PID.TID 0000.0001)                 7.810286990545940E+03,      /* I =306 */
(PID.TID 0000.0001)                 7.819225791151050E+03,      /* I =307 */
(PID.TID 0000.0001)                 7.827757521608264E+03,      /* I =308 */
(PID.TID 0000.0001)                 7.835899416761878E+03,      /* I =309 */
(PID.TID 0000.0001)                 7.843668102659432E+03,      /* I =310 */
(PID.TID 0000.0001)                 7.851079606484943E+03,      /* I =311 */
(PID.TID 0000.0001)                 7.858149367590049E+03,      /* I =312 */
(PID.TID 0000.0001)                 7.864892249456683E+03,      /* I =313 */
(PID.TID 0000.0001)                 7.871322552439098E+03,      /* I =314 */
(PID.TID 0000.0001)                 7.877454027146530E+03,      /* I =315 */
(PID.TID 0000.0001)                 7.883299888340637E+03,      /* I =316 */
(PID.TID 0000.0001)                 7.888872829233704E+03,      /* I =317 */
(PID.TID 0000.0001)                 7.894185036084920E+03,      /* I =318 */
(PID.TID 0000.0001)                 7.899248203002459E+03,      /* I =319 */
(PID.TID 0000.0001)                 7.904073546868845E+03       /* I =320 */
(PID.TID 0000.0001)     ;
(PID.TID 0000.0001) rA =  /* rA(1,:,1,:) ( m - cartesian, degrees - spherical ) */
(PID.TID 0000.0001)                 2.666701115686057E+03       /* J =  1 */
(PID.TID 0000.0001)     ;
(PID.TID 0000.0001) rAw =  /* rAw(:,1,:,1) ( m - cartesian, degrees - spherical ) */
(PID.TID 0000.0001)                 5.285387331277451E+03,      /* I =  1 */
(PID.TID 0000.0001)                 2.666701998799557E+03,      /* I =  2 */
(PID.TID 0000.0001)                 2.666703810304123E+03,      /* I =  3 */
(PID.TID 0000.0001)                 2.666705714685187E+03,      /* I =  4 */
(PID.TID 0000.0001)                 2.666707716704489E+03,      /* I =  5 */
(PID.TID 0000.0001)                 2.666709821367894E+03,      /* I =  6 */
(PID.TID 0000.0001)                 2.666712033937907E+03,      /* I =  7 */
(PID.TID 0000.0001)                 2.666714359946830E+03,      /* I =  8 */
(PID.TID 0000.0001)                 2.666716805210590E+03,      /* I =  9 */
(PID.TID 0000.0001)                 2.666719375843287E+03,      /* I = 10 */
(PID.TID 0000.0001)                 2.666722078272466E+03,      /* I = 11 */
(PID.TID 0000.0001)                 2.666724919255197E+03,      /* I = 12 */
(PID.TID 0000.0001)                 2.666727905894963E+03,      /* I = 13 */
(PID.TID 0000.0001)                 2.666731045659414E+03,      /* I = 14 */
(PID.TID 0000.0001)                 2.666734346399043E+03,      /* I = 15 */
(PID.TID 0000.0001)                 2.666737816366803E+03,      /* I = 16 */
(PID.TID 0000.0001)                 2.666741464238743E+03,      /* I = 17 */
(PID.TID 0000.0001)                 2.666745299135694E+03,      /* I = 18 */
(PID.TID 0000.0001)                 2.666749330646065E+03,      /* I = 19 */
(PID.TID 0000.0001)                 2.666753568849818E+03,      /* I = 20 */
(PID.TID 0000.0001)                 2.666758024343656E+03,      /* I = 21 */
(PID.TID 0000.0001)                 2.666762708267515E+03,      /* I = 22 */
(PID.TID 0000.0001)                 2.666767632332411E+03,      /* I = 23 */
(PID.TID 0000.0001)                 2.666772808849702E+03,      /* I = 24 */
(PID.TID 0000.0001)                 2.666778250761869E+03,      /* I = 25 */
(PID.TID 0000.0001)                 2.666783971674857E+03,      /* I = 26 */
(PID.TID 0000.0001)                 2.666789985892085E+03,      /* I = 27 */
(PID.TID 0000.0001)                 2.666796308450188E+03,      /* I = 28 */
(PID.TID 0000.0001)                 2.666802955156605E+03,      /* I = 29 */
(PID.TID 0000.0001)                 2.666809942629071E+03,      /* I = 30 */
(PID.TID 0000.0001)                 2.666817288337159E+03,      /* I = 31 */
(PID.TID 0000.0001)                 2.666825010645921E+03,      /* I = 32 */
(PID.TID 0000.0001)                 2.666833128861794E+03,      /* I = 33 */
(PID.TID 0000.0001)                 2.666841663280828E+03,      /* I = 34 */
(PID.TID 0000.0001)                 2.666850635239415E+03,      /* I = 35 */
(PID.TID 0000.0001)                 2.666860067167586E+03,      /* I = 36 */
(PID.TID 0000.0001)                 2.666869982645062E+03,      /* I = 37 */
(PID.TID 0000.0001)                 2.666880406460160E+03,      /* I = 38 */
(PID.TID 0000.0001)                 2.666891364671725E+03,      /* I = 39 */
(PID.TID 0000.0001)                 2.666902884674225E+03,      /* I = 40 */
(PID.TID 0000.0001)                 2.666914995266189E+03,      /* I = 41 */
(PID.TID 0000.0001)                 2.666927726722140E+03,      /* I = 42 */
(PID.TID 0000.0001)                 2.666941110868212E+03,      /* I = 43 */
(PID.TID 0000.0001)                 2.666955181161650E+03,      /* I = 44 */
(PID.TID 0000.0001)                 2.666969972774357E+03,      /* I = 45 */
(PID.TID 0000.0001)                 2.666985522680741E+03,      /* I = 46 */
(PID.TID 0000.0001)                 2.667001869750039E+03,      /* I = 47 */
(PID.TID 0000.0001)                 2.667019054843381E+03,      /* I = 48 */
(PID.TID 0000.0001)                 2.667037120915807E+03,      /* I = 49 */
(PID.TID 0000.0001)                 2.667056113123516E+03,      /* I = 50 */
(PID.TID 0000.0001)                 2.667076078936592E+03,      /* I = 51 */
(PID.TID 0000.0001)                 2.667097068257502E+03,      /* I = 52 */
(PID.TID 0000.0001)                 2.667119133545653E+03,      /* I = 53 */
(PID.TID 0000.0001)                 2.667142329948320E+03,      /* I = 54 */
(PID.TID 0000.0001)                 2.667166715438271E+03,      /* I = 55 */
(PID.TID 0000.0001)                 2.667192350958419E+03,      /* I = 56 */
(PID.TID 0000.0001)                 2.667219300573883E+03,      /* I = 57 */
(PID.TID 0000.0001)                 2.667247631631808E+03,      /* I = 58 */
(PID.TID 0000.0001)                 2.667277414929362E+03,      /* I = 59 */
(PID.TID 0000.0001)                 2.667308724890313E+03,      /* I = 60 */
(PID.TID 0000.0001)                 2.667341639750626E+03,      /* I = 61 */
(PID.TID 0000.0001)                 2.667376241753541E+03,      /* I = 62 */
(PID.TID 0000.0001)                 2.667412617354616E+03,      /* I = 63 */
(PID.TID 0000.0001)                 2.667450857437230E+03,      /* I = 64 */
(PID.TID 0000.0001)                 2.667491057539100E+03,      /* I = 65 */
(PID.TID 0000.0001)                 2.667533318090346E+03,      /* I = 66 */
(PID.TID 0000.0001)                 2.667577744663713E+03,      /* I = 67 */
(PID.TID 0000.0001)                 2.667624448237542E+03,      /* I = 68 */
(PID.TID 0000.0001)                 2.667673545472172E+03,      /* I = 69 */
(PID.TID 0000.0001)                 2.667725159000417E+03,      /* I = 70 */
(PID.TID 0000.0001)                 2.667779417732853E+03,      /* I = 71 */
(PID.TID 0000.0001)                 2.667836457178661E+03,      /* I = 72 */
(PID.TID 0000.0001)                 2.667896419782815E+03,      /* I = 73 */
(PID.TID 0000.0001)                 2.667959455280431E+03,      /* I = 74 */
(PID.TID 0000.0001)                 2.668025721069160E+03,      /* I = 75 */
(PID.TID 0000.0001)                 2.668095382600526E+03,      /* I = 76 */
(PID.TID 0000.0001)                 2.668168613791162E+03,      /* I = 77 */
(PID.TID 0000.0001)                 2.668245597454970E+03,      /* I = 78 */
(PID.TID 0000.0001)                 2.668326525757215E+03,      /* I = 79 */
(PID.TID 0000.0001)                 2.668411600691716E+03,      /* I = 80 */
(PID.TID 0000.0001)                 2.668501034582234E+03,      /* I = 81 */
(PID.TID 0000.0001)                 2.668595050609327E+03,      /* I = 82 */
(PID.TID 0000.0001)                 2.668693883363907E+03,      /* I = 83 */
(PID.TID 0000.0001)                 2.668797779428866E+03,      /* I = 84 */
(PID.TID 0000.0001)                 2.668906997990162E+03,      /* I = 85 */
(PID.TID 0000.0001)                 2.669021811478841E+03,      /* I = 86 */
(PID.TID 0000.0001)                 2.669142506245544E+03,      /* I = 87 */
(PID.TID 0000.0001)                 2.669269383269114E+03,      /* I = 88 */
(PID.TID 0000.0001)                 2.669402758901003E+03,      /* I = 89 */
(PID.TID 0000.0001)                 2.669542965647254E+03,      /* I = 90 */
(PID.TID 0000.0001)                 2.669690352989934E+03,      /* I = 91 */
(PID.TID 0000.0001)                 2.669845288249963E+03,      /* I = 92 */
(PID.TID 0000.0001)                 2.670008157493388E+03,      /* I = 93 */
(PID.TID 0000.0001)                 2.670179366483250E+03,      /* I = 94 */
(PID.TID 0000.0001)                 2.670359341679289E+03,      /* I = 95 */
(PID.TID 0000.0001)                 2.670548531287833E+03,      /* I = 96 */
(PID.TID 0000.0001)                 2.670747406364341E+03,      /* I = 97 */
(PID.TID 0000.0001)                 2.670956461971172E+03,      /* I = 98 */
(PID.TID 0000.0001)                 2.671176218393273E+03,      /* I = 99 */
(PID.TID 0000.0001)                 2.671407222414613E+03,      /* I =100 */
(PID.TID 0000.0001)                 2.671650048658296E+03,      /* I =101 */
(PID.TID 0000.0001)                 2.671905300993456E+03,      /* I =102 */
(PID.TID 0000.0001)                 2.672173614012138E+03,      /* I =103 */
(PID.TID 0000.0001)                 2.672455654579537E+03,      /* I =104 */
(PID.TID 0000.0001)                 2.672752123461109E+03,      /* I =105 */
(PID.TID 0000.0001)                 2.673063757030221E+03,      /* I =106 */
(PID.TID 0000.0001)                 2.673391329060173E+03,      /* I =107 */
(PID.TID 0000.0001)                 2.673735652604577E+03,      /* I =108 */
(PID.TID 0000.0001)                 2.674097581970271E+03,      /* I =109 */
(PID.TID 0000.0001)                 2.674478014787092E+03,      /* I =110 */
(PID.TID 0000.0001)                 2.674877894179043E+03,      /* I =111 */
(PID.TID 0000.0001)                 2.675298211041542E+03,      /* I =112 */
(PID.TID 0000.0001)                 2.675740006429678E+03,      /* I =113 */
(PID.TID 0000.0001)                 2.676204374062527E+03,      /* I =114 */
(PID.TID 0000.0001)                 2.676692462948854E+03,      /* I =115 */
(PID.TID 0000.0001)                 2.677205480139673E+03,      /* I =116 */
(PID.TID 0000.0001)                 2.677744693613371E+03,      /* I =117 */
(PID.TID 0000.0001)                 2.678311435299308E+03,      /* I =118 */
(PID.TID 0000.0001)                 2.678907104246012E+03,      /* I =119 */
(PID.TID 0000.0001)                 2.679533169940301E+03,      /* I =120 */
(PID.TID 0000.0001)                 2.680191175783888E+03,      /* I =121 */
(PID.TID 0000.0001)                 2.680882742734225E+03,      /* I =122 */
(PID.TID 0000.0001)                 2.681609573116564E+03,      /* I =123 */
(PID.TID 0000.0001)                 2.682373454614424E+03,      /* I =124 */
(PID.TID 0000.0001)                 2.683176264445849E+03,      /* I =125 */
(PID.TID 0000.0001)                 2.684019973733063E+03,      /* I =126 */
(PID.TID 0000.0001)                 2.684906652073279E+03,      /* I =127 */
(PID.TID 0000.0001)                 2.685838472318673E+03,      /* I =128 */
(PID.TID 0000.0001)                 2.686817715573619E+03,      /* I =129 */
(PID.TID 0000.0001)                 2.687846776417513E+03,      /* I =130 */
(PID.TID 0000.0001)                 2.688928168361603E+03,      /* I =131 */
(PID.TID 0000.0001)                 2.690064529548390E+03,      /* I =132 */
(PID.TID 0000.0001)                 2.691258628702231E+03,      /* I =133 */
(PID.TID 0000.0001)                 2.692513371339873E+03,      /* I =134 */
(PID.TID 0000.0001)                 2.693831806249641E+03,      /* I =135 */
(PID.TID 0000.0001)                 2.695217132248024E+03,      /* I =136 */
(PID.TID 0000.0001)                 2.696672705222334E+03,      /* I =137 */
(PID.TID 0000.0001)                 2.698202045468024E+03,      /* I =138 */
(PID.TID 0000.0001)                 2.699808845329066E+03,      /* I =139 */
(PID.TID 0000.0001)                 2.701496977149601E+03,      /* I =140 */
(PID.TID 0000.0001)                 2.703270501544747E+03,      /* I =141 */
(PID.TID 0000.0001)                 2.705133675998072E+03,      /* I =142 */
(PID.TID 0000.0001)                 2.707090963792792E+03,      /* I =143 */
(PID.TID 0000.0001)                 2.709147043283133E+03,      /* I =144 */
(PID.TID 0000.0001)                 2.711306817511659E+03,      /* I =145 */
(PID.TID 0000.0001)                 2.713575424177493E+03,      /* I =146 */
(PID.TID 0000.0001)                 2.715958245959450E+03,      /* I =147 */
(PID.TID 0000.0001)                 2.718460921196935E+03,      /* I =148 */
(PID.TID 0000.0001)                 2.721089354930193E+03,      /* I =149 */
(PID.TID 0000.0001)                 2.723849730300030E+03,      /* I =150 */
(PID.TID 0000.0001)                 2.726748520305375E+03,      /* I =151 */
(PID.TID 0000.0001)                 2.729792499915191E+03,      /* I =152 */
(PID.TID 0000.0001)                 2.732988758529029E+03,      /* I =153 */
(PID.TID 0000.0001)                 2.736344712778070E+03,      /* I =154 */
(PID.TID 0000.0001)                 2.739868119655761E+03,      /* I =155 */
(PID.TID 0000.0001)                 2.743567089964050E+03,      /* I =156 */
(PID.TID 0000.0001)                 2.747450102057819E+03,      /* I =157 */
(PID.TID 0000.0001)                 2.751526015866266E+03,      /* I =158 */
(PID.TID 0000.0001)                 2.755804087165784E+03,      /* I =159 */
(PID.TID 0000.0001)                 2.760293982074185E+03,      /* I =160 */
(PID.TID 0000.0001)                 2.765005791731015E+03,      /* I =161 */
(PID.TID 0000.0001)                 2.769950047122978E+03,      /* I =162 */
(PID.TID 0000.0001)                 2.775137734007355E+03,      /* I =163 */
(PID.TID 0000.0001)                 2.780580307879496E+03,      /* I =164 */
(PID.TID 0000.0001)                 2.786289708923083E+03,      /* I =165 */
(PID.TID 0000.0001)                 2.792278376873853E+03,      /* I =166 */
(PID.TID 0000.0001)                 2.798559265718776E+03,      /* I =167 */
(PID.TID 0000.0001)                 2.805145858143300E+03,      /* I =168 */
(PID.TID 0000.0001)                 2.812052179629170E+03,      /* I =169 */
(PID.TID 0000.0001)                 2.819292812094478E+03,      /* I =170 */
(PID.TID 0000.0001)                 2.826882906956012E+03,      /* I =171 */
(PID.TID 0000.0001)                 2.834838197481597E+03,      /* I =172 */
(PID.TID 0000.0001)                 2.843175010287010E+03,      /* I =173 */
(PID.TID 0000.0001)                 2.851910275818172E+03,      /* I =174 */
(PID.TID 0000.0001)                 2.861061537644709E+03,      /* I =175 */
(PID.TID 0000.0001)                 2.870646960375717E+03,      /* I =176 */
(PID.TID 0000.0001)                 2.880685335992612E+03,      /* I =177 */
(PID.TID 0000.0001)                 2.891196088377470E+03,      /* I =178 */
(PID.TID 0000.0001)                 2.902199275798330E+03,      /* I =179 */
(PID.TID 0000.0001)                 2.913715591095612E+03,      /* I =180 */
(PID.TID 0000.0001)                 2.925766359296330E+03,      /* I =181 */
(PID.TID 0000.0001)                 2.938373532365265E+03,      /* I =182 */
(PID.TID 0000.0001)                 2.951559680784956E+03,      /* I =183 */
(PID.TID 0000.0001)                 2.965347981639492E+03,      /* I =184 */
(PID.TID 0000.0001)                 2.979762202861004E+03,      /* I =185 */
(PID.TID 0000.0001)                 2.994826683282678E+03,      /* I =186 */
(PID.TID 0000.0001)                 3.010566308128574E+03,      /* I =187 */
(PID.TID 0000.0001)                 3.027006479558842E+03,      /* I =188 */
(PID.TID 0000.0001)                 3.044173081879639E+03,      /* I =189 */
(PID.TID 0000.0001)                 3.062092441020697E+03,      /* I =190 */
(PID.TID 0000.0001)                 3.080791277880592E+03,      /* I =191 */
(PID.TID 0000.0001)                 3.100296655141069E+03,      /* I =192 */
(PID.TID 0000.0001)                 3.120635917157850E+03,      /* I =193 */
(PID.TID 0000.0001)                 3.141836622547007E+03,      /* I =194 */
(PID.TID 0000.0001)                 3.163926469103908E+03,      /* I =195 */
(PID.TID 0000.0001)                 3.186933210716786E+03,      /* I =196 */
(PID.TID 0000.0001)                 3.210884565969830E+03,      /* I =197 */
(PID.TID 0000.0001)                 3.235808118172305E+03,      /* I =198 */
(PID.TID 0000.0001)                 3.261731206601077E+03,      /* I =199 */
(PID.TID 0000.0001)                 3.288680808805090E+03,      /* I =200 */
(PID.TID 0000.0001)                 3.316683413892090E+03,      /* I =201 */
(PID.TID 0000.0001)                 3.345764886801105E+03,      /* I =202 */
(PID.TID 0000.0001)                 3.375950323658913E+03,      /* I =203 */
(PID.TID 0000.0001)                 3.407263898425552E+03,      /* I =204 */
(PID.TID 0000.0001)                 3.439728701152472E+03,      /* I =205 */
(PID.TID 0000.0001)                 3.473366568307265E+03,      /* I =206 */
(PID.TID 0000.0001)                 3.508197905760320E+03,      /* I =207 */
(PID.TID 0000.0001)                 3.544241505180429E+03,      /* I =208 */
(PID.TID 0000.0001)                 3.581514354746974E+03,      /* I =209 */
(PID.TID 0000.0001)                 3.620031445254390E+03,      /* I =210 */
(PID.TID 0000.0001)                 3.659805572857785E+03,      /* I =211 */
(PID.TID 0000.0001)                 3.700847139884617E+03,      /* I =212 */
(PID.TID 0000.0001)                 3.743163955312975E+03,      /* I =213 */
(PID.TID 0000.0001)                 3.786761036689037E+03,      /* I =214 */
(PID.TID 0000.0001)                 3.831640415420667E+03,      /* I =215 */
(PID.TID 0000.0001)                 3.877800947536777E+03,      /* I =216 */
(PID.TID 0000.0001)                 3.925238132138324E+03,      /* I =217 */
(PID.TID 0000.0001)                 3.973943939882057E+03,      /* I =218 */
(PID.TID 0000.0001)                 4.023906653927275E+03,      /* I =219 */
(PID.TID 0000.0001)                 4.075110725834243E+03,      /* I =220 */
(PID.TID 0000.0001)                 4.127536648925686E+03,      /* I =221 */
(PID.TID 0000.0001)                 4.181160851605688E+03,      /* I =222 */
(PID.TID 0000.0001)                 4.235955613069395E+03,      /* I =223 */
(PID.TID 0000.0001)                 4.291889003729106E+03,      /* I =224 */
(PID.TID 0000.0001)                 4.348924852525319E+03,      /* I =225 */
(PID.TID 0000.0001)                 4.407022743083842E+03,      /* I =226 */
(PID.TID 0000.0001)                 4.466138040422226E+03,      /* I =227 */
(PID.TID 0000.0001)                 4.526221949601882E+03,      /* I =228 */
(PID.TID 0000.0001)                 4.587221607369076E+03,      /* I =229 */
(PID.TID 0000.0001)                 4.649080207432919E+03,      /* I =230 */
(PID.TID 0000.0001)                 4.711737159597129E+03,      /* I =231 */
(PID.TID 0000.0001)                 4.775128282502203E+03,      /* I =232 */
(PID.TID 0000.0001)                 4.839186029253915E+03,      /* I =233 */
(PID.TID 0000.0001)                 4.903839744722695E+03,      /* I =234 */
(PID.TID 0000.0001)                 4.969015952806781E+03,      /* I =235 */
(PID.TID 0000.0001)                 5.034638671471263E+03,      /* I =236 */
(PID.TID 0000.0001)                 5.100629752916727E+03,      /* I =237 */
(PID.TID 0000.0001)                 5.166909245806161E+03,      /* I =238 */
(PID.TID 0000.0001)                 5.233395776098266E+03,      /* I =239 */
(PID.TID 0000.0001)                 5.300006942708772E+03,      /* I =240 */
(PID.TID 0000.0001)                 5.366659723957894E+03,      /* I =241 */
(PID.TID 0000.0001)                 5.433270890568401E+03,      /* I =242 */
(PID.TID 0000.0001)                 5.499757420860506E+03,      /* I =243 */
(PID.TID 0000.0001)                 5.566036913749940E+03,      /* I =244 */
(PID.TID 0000.0001)                 5.632027995195402E+03,      /* I =245 */
(PID.TID 0000.0001)                 5.697650713859885E+03,      /* I =246 */
(PID.TID 0000.0001)                 5.762826921943971E+03,      /* I =247 */
(PID.TID 0000.0001)                 5.827480637412752E+03,      /* I =248 */
(PID.TID 0000.0001)                 5.891538384164464E+03,      /* I =249 */
(PID.TID 0000.0001)                 5.954929507069537E+03,      /* I =250 */
(PID.TID 0000.0001)                 6.017586459233747E+03,      /* I =251 */
(PID.TID 0000.0001)                 6.079445059297589E+03,      /* I =252 */
(PID.TID 0000.0001)                 6.140444717064785E+03,      /* I =253 */
(PID.TID 0000.0001)                 6.200528626244440E+03,      /* I =254 */
(PID.TID 0000.0001)                 6.259643923582824E+03,      /* I =255 */
(PID.TID 0000.0001)                 6.317741814141348E+03,      /* I =256 */
(PID.TID 0000.0001)                 6.374777662937561E+03,      /* I =257 */
(PID.TID 0000.0001)                 6.430711053597272E+03,      /* I =258 */
(PID.TID 0000.0001)                 6.485505815060978E+03,      /* I =259 */
(PID.TID 0000.0001)                 6.539130017740982E+03,      /* I =260 */
(PID.TID 0000.0001)                 6.591555940832424E+03,      /* I =261 */
(PID.TID 0000.0001)                 6.642760012739390E+03,      /* I =262 */
(PID.TID 0000.0001)                 6.692722726784609E+03,      /* I =263 */
(PID.TID 0000.0001)                 6.741428534528342E+03,      /* I =264 */
(PID.TID 0000.0001)                 6.788865719129891E+03,      /* I =265 */
(PID.TID 0000.0001)                 6.835026251245999E+03,      /* I =266 */
(PID.TID 0000.0001)                 6.879905629977629E+03,      /* I =267 */
(PID.TID 0000.0001)                 6.923502711353692E+03,      /* I =268 */
(PID.TID 0000.0001)                 6.965819526782050E+03,      /* I =269 */
(PID.TID 0000.0001)                 7.006861093808882E+03,      /* I =270 */
(PID.TID 0000.0001)                 7.046635221412276E+03,      /* I =271 */
(PID.TID 0000.0001)                 7.085152311919691E+03,      /* I =272 */
(PID.TID 0000.0001)                 7.122425161486238E+03,      /* I =273 */
(PID.TID 0000.0001)                 7.158468760906347E+03,      /* I =274 */
(PID.TID 0000.0001)                 7.193300098359401E+03,      /* I =275 */
(PID.TID 0000.0001)                 7.226937965514193E+03,      /* I =276 */
(PID.TID 0000.0001)                 7.259402768241114E+03,      /* I =277 */
(PID.TID 0000.0001)                 7.290716343007753E+03,      /* I =278 */
(PID.TID 0000.0001)                 7.320901779865562E+03,      /* I =279 */
(PID.TID 0000.0001)                 7.349983252774575E+03,      /* I =280 */
(PID.TID 0000.0001)                 7.377985857861578E+03,      /* I =281 */
(PID.TID 0000.0001)                 7.404935460065591E+03,      /* I =282 */
(PID.TID 0000.0001)                 7.430858548494362E+03,      /* I =283 */
(PID.TID 0000.0001)                 7.455782100696837E+03,      /* I =284 */
(PID.TID 0000.0001)                 7.479733455949880E+03,      /* I =285 */
(PID.TID 0000.0001)                 7.502740197562758E+03,      /* I =286 */
(PID.TID 0000.0001)                 7.524830044119659E+03,      /* I =287 */
(PID.TID 0000.0001)                 7.546030749508816E+03,      /* I =288 */
(PID.TID 0000.0001)                 7.566370011525598E+03,      /* I =289 */
(PID.TID 0000.0001)                 7.585875388786074E+03,      /* I =290 */
(PID.TID 0000.0001)                 7.604574225645971E+03,      /* I =291 */
(PID.TID 0000.0001)                 7.622493584787028E+03,      /* I =292 */
(PID.TID 0000.0001)                 7.639660187107825E+03,      /* I =293 */
(PID.TID 0000.0001)                 7.656100358538091E+03,      /* I =294 */
(PID.TID 0000.0001)                 7.671839983383989E+03,      /* I =295 */
(PID.TID 0000.0001)                 7.686904463805662E+03,      /* I =296 */
(PID.TID 0000.0001)                 7.701318685027174E+03,      /* I =297 */
(PID.TID 0000.0001)                 7.715106985881710E+03,      /* I =298 */
(PID.TID 0000.0001)                 7.728293134301402E+03,      /* I =299 */
(PID.TID 0000.0001)                 7.740900307370336E+03,      /* I =300 */
(PID.TID 0000.0001)                 7.752951075571054E+03,      /* I =301 */
(PID.TID 0000.0001)                 7.764467390868336E+03,      /* I =302 */
(PID.TID 0000.0001)                 7.775470578289196E+03,      /* I =303 */
(PID.TID 0000.0001)                 7.785981330674053E+03,      /* I =304 */
(PID.TID 0000.0001)                 7.796019706290948E+03,      /* I =305 */
(PID.TID 0000.0001)                 7.805605129021958E+03,      /* I =306 */
(PID.TID 0000.0001)                 7.814756390848495E+03,      /* I =307 */
(PID.TID 0000.0001)                 7.823491656379656E+03,      /* I =308 */
(PID.TID 0000.0001)                 7.831828469185070E+03,      /* I =309 */
(PID.TID 0000.0001)                 7.839783759710655E+03,      /* I =310 */
(PID.TID 0000.0001)                 7.847373854572189E+03,      /* I =311 */
(PID.TID 0000.0001)                 7.854614487037496E+03,      /* I =312 */
(PID.TID 0000.0001)                 7.861520808523366E+03,      /* I =313 */
(PID.TID 0000.0001)                 7.868107400947891E+03,      /* I =314 */
(PID.TID 0000.0001)                 7.874388289792813E+03,      /* I =315 */
(PID.TID 0000.0001)                 7.880376957743584E+03,      /* I =316 */
(PID.TID 0000.0001)                 7.886086358787171E+03,      /* I =317 */
(PID.TID 0000.0001)                 7.891528932659313E+03,      /* I =318 */
(PID.TID 0000.0001)                 7.896716619543690E+03,      /* I =319 */
(PID.TID 0000.0001)                 7.901660874935652E+03       /* I =320 */
(PID.TID 0000.0001)     ;
(PID.TID 0000.0001) rAw =  /* rAw(1,:,1,:) ( m - cartesian, degrees - spherical ) */
(PID.TID 0000.0001)                 5.285387331277451E+03       /* J =  1 */
(PID.TID 0000.0001)     ;
(PID.TID 0000.0001) rAs =  /* rAs(:,1,:,1) ( m - cartesian, degrees - spherical ) */
(PID.TID 0000.0001)                 2.666701115686057E+03,      /* I =  1 */
(PID.TID 0000.0001)                 2.666702881913057E+03,      /* I =  2 */
(PID.TID 0000.0001)                 2.666704738695189E+03,      /* I =  3 */
(PID.TID 0000.0001)                 2.666706690675185E+03,      /* I =  4 */
(PID.TID 0000.0001)                 2.666708742733794E+03,      /* I =  5 */
(PID.TID 0000.0001)                 2.666710900001994E+03,      /* I =  6 */
(PID.TID 0000.0001)                 2.666713167873819E+03,      /* I =  7 */
(PID.TID 0000.0001)                 2.666715552019839E+03,      /* I =  8 */
(PID.TID 0000.0001)                 2.666718058401342E+03,      /* I =  9 */
(PID.TID 0000.0001)                 2.666720693285232E+03,      /* I = 10 */
(PID.TID 0000.0001)                 2.666723463259700E+03,      /* I = 11 */
(PID.TID 0000.0001)                 2.666726375250694E+03,      /* I = 12 */
(PID.TID 0000.0001)                 2.666729436539230E+03,      /* I = 13 */
(PID.TID 0000.0001)                 2.666732654779597E+03,      /* I = 14 */
(PID.TID 0000.0001)                 2.666736038018488E+03,      /* I = 15 */
(PID.TID 0000.0001)                 2.666739594715118E+03,      /* I = 16 */
(PID.TID 0000.0001)                 2.666743333762369E+03,      /* I = 17 */
(PID.TID 0000.0001)                 2.666747264509018E+03,      /* I = 18 */
(PID.TID 0000.0001)                 2.666751396783111E+03,      /* I = 19 */
(PID.TID 0000.0001)                 2.666755740916523E+03,      /* I = 20 */
(PID.TID 0000.0001)                 2.666760307770787E+03,      /* I = 21 */
(PID.TID 0000.0001)                 2.666765108764243E+03,      /* I = 22 */
(PID.TID 0000.0001)                 2.666770155900579E+03,      /* I = 23 */
(PID.TID 0000.0001)                 2.666775461798826E+03,      /* I = 24 */
(PID.TID 0000.0001)                 2.666781039724912E+03,      /* I = 25 */
(PID.TID 0000.0001)                 2.666786903624803E+03,      /* I = 26 */
(PID.TID 0000.0001)                 2.666793068159366E+03,      /* I = 27 */
(PID.TID 0000.0001)                 2.666799548741011E+03,      /* I = 28 */
(PID.TID 0000.0001)                 2.666806361572199E+03,      /* I = 29 */
(PID.TID 0000.0001)                 2.666813523685944E+03,      /* I = 30 */
(PID.TID 0000.0001)                 2.666821052988373E+03,      /* I = 31 */
(PID.TID 0000.0001)                 2.666828968303470E+03,      /* I = 32 */
(PID.TID 0000.0001)                 2.666837289420117E+03,      /* I = 33 */
(PID.TID 0000.0001)                 2.666846037141539E+03,      /* I = 34 */
(PID.TID 0000.0001)                 2.666855233337290E+03,      /* I = 35 */
(PID.TID 0000.0001)                 2.666864900997882E+03,      /* I = 36 */
(PID.TID 0000.0001)                 2.666875064292241E+03,      /* I = 37 */
(PID.TID 0000.0001)                 2.666885748628079E+03,      /* I = 38 */
(PID.TID 0000.0001)                 2.666896980715370E+03,      /* I = 39 */
(PID.TID 0000.0001)                 2.666908788633080E+03,      /* I = 40 */
(PID.TID 0000.0001)                 2.666921201899298E+03,      /* I = 41 */
(PID.TID 0000.0001)                 2.666934251544980E+03,      /* I = 42 */
(PID.TID 0000.0001)                 2.666947970191445E+03,      /* I = 43 */
(PID.TID 0000.0001)                 2.666962392131855E+03,      /* I = 44 */
(PID.TID 0000.0001)                 2.666977553416860E+03,      /* I = 45 */
(PID.TID 0000.0001)                 2.666993491944622E+03,      /* I = 46 */
(PID.TID 0000.0001)                 2.667010247555456E+03,      /* I = 47 */
(PID.TID 0000.0001)                 2.667027862131305E+03,      /* I = 48 */
(PID.TID 0000.0001)                 2.667046379700309E+03,      /* I = 49 */
(PID.TID 0000.0001)                 2.667065846546724E+03,      /* I = 50 */
(PID.TID 0000.0001)                 2.667086311326460E+03,      /* I = 51 */
(PID.TID 0000.0001)                 2.667107825188542E+03,      /* I = 52 */
(PID.TID 0000.0001)                 2.667130441902762E+03,      /* I = 53 */
(PID.TID 0000.0001)                 2.667154217993878E+03,      /* I = 54 */
(PID.TID 0000.0001)                 2.667179212882664E+03,      /* I = 55 */
(PID.TID 0000.0001)                 2.667205489034175E+03,      /* I = 56 */
(PID.TID 0000.0001)                 2.667233112113591E+03,      /* I = 57 */
(PID.TID 0000.0001)                 2.667262151150025E+03,      /* I = 58 */
(PID.TID 0000.0001)                 2.667292678708699E+03,      /* I = 59 */
(PID.TID 0000.0001)                 2.667324771071927E+03,      /* I = 60 */
(PID.TID 0000.0001)                 2.667358508429325E+03,      /* I = 61 */
(PID.TID 0000.0001)                 2.667393975077757E+03,      /* I = 62 */
(PID.TID 0000.0001)                 2.667431259631473E+03,      /* I = 63 */
(PID.TID 0000.0001)                 2.667470455242985E+03,      /* I = 64 */
(PID.TID 0000.0001)                 2.667511659835214E+03,      /* I = 65 */
(PID.TID 0000.0001)                 2.667554976345479E+03,      /* I = 66 */
(PID.TID 0000.0001)                 2.667600512981946E+03,      /* I = 67 */
(PID.TID 0000.0001)                 2.667648383493139E+03,      /* I = 68 */
(PID.TID 0000.0001)                 2.667698707451207E+03,      /* I = 69 */
(PID.TID 0000.0001)                 2.667751610549628E+03,      /* I = 70 */
(PID.TID 0000.0001)                 2.667807224916078E+03,      /* I = 71 */
(PID.TID 0000.0001)                 2.667865689441244E+03,      /* I = 72 */
(PID.TID 0000.0001)                 2.667927150124385E+03,      /* I = 73 */
(PID.TID 0000.0001)                 2.667991760436477E+03,      /* I = 74 */
(PID.TID 0000.0001)                 2.668059681701844E+03,      /* I = 75 */
(PID.TID 0000.0001)                 2.668131083499207E+03,      /* I = 76 */
(PID.TID 0000.0001)                 2.668206144083118E+03,      /* I = 77 */
(PID.TID 0000.0001)                 2.668285050826821E+03,      /* I = 78 */
(PID.TID 0000.0001)                 2.668368000687609E+03,      /* I = 79 */
(PID.TID 0000.0001)                 2.668455200695822E+03,      /* I = 80 */
(PID.TID 0000.0001)                 2.668546868468647E+03,      /* I = 81 */
(PID.TID 0000.0001)                 2.668643232750007E+03,      /* I = 82 */
(PID.TID 0000.0001)                 2.668744533977807E+03,      /* I = 83 */
(PID.TID 0000.0001)                 2.668851024879925E+03,      /* I = 84 */
(PID.TID 0000.0001)                 2.668962971100398E+03,      /* I = 85 */
(PID.TID 0000.0001)                 2.669080651857283E+03,      /* I = 86 */
(PID.TID 0000.0001)                 2.669204360633805E+03,      /* I = 87 */
(PID.TID 0000.0001)                 2.669334405904424E+03,      /* I = 88 */
(PID.TID 0000.0001)                 2.669471111897582E+03,      /* I = 89 */
(PID.TID 0000.0001)                 2.669614819396926E+03,      /* I = 90 */
(PID.TID 0000.0001)                 2.669765886582942E+03,      /* I = 91 */
(PID.TID 0000.0001)                 2.669924689916983E+03,      /* I = 92 */
(PID.TID 0000.0001)                 2.670091625069792E+03,      /* I = 93 */
(PID.TID 0000.0001)                 2.670267107896709E+03,      /* I = 94 */
(PID.TID 0000.0001)                 2.670451575461870E+03,      /* I = 95 */
(PID.TID 0000.0001)                 2.670645487113796E+03,      /* I = 96 */
(PID.TID 0000.0001)                 2.670849325614885E+03,      /* I = 97 */
(PID.TID 0000.0001)                 2.671063598327458E+03,      /* I = 98 */
(PID.TID 0000.0001)                 2.671288838459089E+03,      /* I = 99 */
(PID.TID 0000.0001)                 2.671525606370137E+03,      /* I =100 */
(PID.TID 0000.0001)                 2.671774490946455E+03,      /* I =101 */
(PID.TID 0000.0001)                 2.672036111040457E+03,      /* I =102 */
(PID.TID 0000.0001)                 2.672311116983819E+03,      /* I =103 */
(PID.TID 0000.0001)                 2.672600192175255E+03,      /* I =104 */
(PID.TID 0000.0001)                 2.672904054746963E+03,      /* I =105 */
(PID.TID 0000.0001)                 2.673223459313480E+03,      /* I =106 */
(PID.TID 0000.0001)                 2.673559198806866E+03,      /* I =107 */
(PID.TID 0000.0001)                 2.673912106402288E+03,      /* I =108 */
(PID.TID 0000.0001)                 2.674283057538254E+03,      /* I =109 */
(PID.TID 0000.0001)                 2.674672972035931E+03,      /* I =110 */
(PID.TID 0000.0001)                 2.675082816322154E+03,      /* I =111 */
(PID.TID 0000.0001)                 2.675513605760930E+03,      /* I =112 */
(PID.TID 0000.0001)                 2.675966407098426E+03,      /* I =113 */
(PID.TID 0000.0001)                 2.676442341026629E+03,      /* I =114 */
(PID.TID 0000.0001)                 2.676942584871080E+03,      /* I =115 */
(PID.TID 0000.0001)                 2.677468375408266E+03,      /* I =116 */
(PID.TID 0000.0001)                 2.678021011818476E+03,      /* I =117 */
(PID.TID 0000.0001)                 2.678601858780140E+03,      /* I =118 */
(PID.TID 0000.0001)                 2.679212349711884E+03,      /* I =119 */
(PID.TID 0000.0001)                 2.679853990168719E+03,      /* I =120 */
(PID.TID 0000.0001)                 2.680528361399058E+03,      /* I =121 */
(PID.TID 0000.0001)                 2.681237124069392E+03,      /* I =122 */
(PID.TID 0000.0001)                 2.681982022163736E+03,      /* I =123 */
(PID.TID 0000.0001)                 2.682764887065112E+03,      /* I =124 */
(PID.TID 0000.0001)                 2.683587641826588E+03,      /* I =125 */
(PID.TID 0000.0001)                 2.684452305639538E+03,      /* I =126 */
(PID.TID 0000.0001)                 2.685360998507020E+03,      /* I =127 */
(PID.TID 0000.0001)                 2.686315946130325E+03,      /* I =128 */
(PID.TID 0000.0001)                 2.687319485016912E+03,      /* I =129 */
(PID.TID 0000.0001)                 2.688374067818113E+03,      /* I =130 */
(PID.TID 0000.0001)                 2.689482268905093E+03,      /* I =131 */
(PID.TID 0000.0001)                 2.690646790191687E+03,      /* I =132 */
(PID.TID 0000.0001)                 2.691870467212776E+03,      /* I =133 */
(PID.TID 0000.0001)                 2.693156275466971E+03,      /* I =134 */
(PID.TID 0000.0001)                 2.694507337032312E+03,      /* I =135 */
(PID.TID 0000.0001)                 2.695926927463736E+03,      /* I =136 */
(PID.TID 0000.0001)                 2.697418482980933E+03,      /* I =137 */
(PID.TID 0000.0001)                 2.698985607955115E+03,      /* I =138 */
(PID.TID 0000.0001)                 2.700632082703016E+03,      /* I =139 */
(PID.TID 0000.0001)                 2.702361871596186E+03,      /* I =140 */
(PID.TID 0000.0001)                 2.704179131493308E+03,      /* I =141 */
(PID.TID 0000.0001)                 2.706088220502837E+03,      /* I =142 */
(PID.TID 0000.0001)                 2.708093707082747E+03,      /* I =143 */
(PID.TID 0000.0001)                 2.710200379483520E+03,      /* I =144 */
(PID.TID 0000.0001)                 2.712413255539797E+03,      /* I =145 */
(PID.TID 0000.0001)                 2.714737592815188E+03,      /* I =146 */
(PID.TID 0000.0001)                 2.717178899103712E+03,      /* I =147 */
(PID.TID 0000.0001)                 2.719742943290156E+03,      /* I =148 */
(PID.TID 0000.0001)                 2.722435766570230E+03,      /* I =149 */
(PID.TID 0000.0001)                 2.725263694029831E+03,      /* I =150 */
(PID.TID 0000.0001)                 2.728233346580919E+03,      /* I =151 */
(PID.TID 0000.0001)                 2.731351653249463E+03,      /* I =152 */
(PID.TID 0000.0001)                 2.734625863808595E+03,      /* I =153 */
(PID.TID 0000.0001)                 2.738063561747545E+03,      /* I =154 */
(PID.TID 0000.0001)                 2.741672677563976E+03,      /* I =155 */
(PID.TID 0000.0001)                 2.745461502364123E+03,      /* I =156 */
(PID.TID 0000.0001)                 2.749438701751514E+03,      /* I =157 */
(PID.TID 0000.0001)                 2.753613329981019E+03,      /* I =158 */
(PID.TID 0000.0001)                 2.757994844350548E+03,      /* I =159 */
(PID.TID 0000.0001)                 2.762593119797822E+03,      /* I =160 */
(PID.TID 0000.0001)                 2.767418463664208E+03,      /* I =161 */
(PID.TID 0000.0001)                 2.772481630581747E+03,      /* I =162 */
(PID.TID 0000.0001)                 2.777793837432962E+03,      /* I =163 */
(PID.TID 0000.0001)                 2.783366778326029E+03,      /* I =164 */
(PID.TID 0000.0001)                 2.789212639520137E+03,      /* I =165 */
(PID.TID 0000.0001)                 2.795344114227569E+03,      /* I =166 */
(PID.TID 0000.0001)                 2.801774417209983E+03,      /* I =167 */
(PID.TID 0000.0001)                 2.808517299076618E+03,      /* I =168 */
(PID.TID 0000.0001)                 2.815587060181723E+03,      /* I =169 */
(PID.TID 0000.0001)                 2.822998564007234E+03,      /* I =170 */
(PID.TID 0000.0001)                 2.830767249904789E+03,      /* I =171 */
(PID.TID 0000.0001)                 2.838909145058403E+03,      /* I =172 */
(PID.TID 0000.0001)                 2.847440875515617E+03,      /* I =173 */
(PID.TID 0000.0001)                 2.856379676120726E+03,      /* I =174 */
(PID.TID 0000.0001)                 2.865743399168691E+03,      /* I =175 */
(PID.TID 0000.0001)                 2.875550521582743E+03,      /* I =176 */
(PID.TID 0000.0001)                 2.885820150402481E+03,      /* I =177 */
(PID.TID 0000.0001)                 2.896572026352459E+03,      /* I =178 */
(PID.TID 0000.0001)                 2.907826525244200E+03,      /* I =179 */
(PID.TID 0000.0001)                 2.919604656947023E+03,      /* I =180 */
(PID.TID 0000.0001)                 2.931928061645636E+03,      /* I =181 */
(PID.TID 0000.0001)                 2.944819003084895E+03,      /* I =182 */
(PID.TID 0000.0001)                 2.958300358485018E+03,      /* I =183 */
(PID.TID 0000.0001)                 2.972395604793966E+03,      /* I =184 */
(PID.TID 0000.0001)                 2.987128800928041E+03,      /* I =185 */
(PID.TID 0000.0001)                 3.002524565637315E+03,      /* I =186 */
(PID.TID 0000.0001)                 3.018608050619834E+03,      /* I =187 */
(PID.TID 0000.0001)                 3.035404908497850E+03,      /* I =188 */
(PID.TID 0000.0001)                 3.052941255261428E+03,      /* I =189 */
(PID.TID 0000.0001)                 3.071243626779966E+03,      /* I =190 */
(PID.TID 0000.0001)                 3.090338928981218E+03,      /* I =191 */
(PID.TID 0000.0001)                 3.110254381300920E+03,      /* I =192 */
(PID.TID 0000.0001)                 3.131017453014780E+03,      /* I =193 */
(PID.TID 0000.0001)                 3.152655792079233E+03,      /* I =194 */
(PID.TID 0000.0001)                 3.175197146128584E+03,      /* I =195 */
(PID.TID 0000.0001)                 3.198669275304987E+03,      /* I =196 */
(PID.TID 0000.0001)                 3.223099856634673E+03,      /* I =197 */
(PID.TID 0000.0001)                 3.248516379709935E+03,      /* I =198 */
(PID.TID 0000.0001)                 3.274946033492218E+03,      /* I =199 */
(PID.TID 0000.0001)                 3.302415584117961E+03,      /* I =200 */
(PID.TID 0000.0001)                 3.330951243666221E+03,      /* I =201 */
(PID.TID 0000.0001)                 3.360578529935989E+03,      /* I =202 */
(PID.TID 0000.0001)                 3.391322117381837E+03,      /* I =203 */
(PID.TID 0000.0001)                 3.423205679469268E+03,      /* I =204 */
(PID.TID 0000.0001)                 3.456251722835677E+03,      /* I =205 */
(PID.TID 0000.0001)                 3.490481413778852E+03,      /* I =206 */
(PID.TID 0000.0001)                 3.525914397741788E+03,      /* I =207 */
(PID.TID 0000.0001)                 3.562568612619069E+03,      /* I =208 */
(PID.TID 0000.0001)                 3.600460096874879E+03,      /* I =209 */
(PID.TID 0000.0001)                 3.639602793633901E+03,      /* I =210 */
(PID.TID 0000.0001)                 3.680008352081669E+03,      /* I =211 */
(PID.TID 0000.0001)                 3.721685927687564E+03,      /* I =212 */
(PID.TID 0000.0001)                 3.764641982938386E+03,      /* I =213 */
(PID.TID 0000.0001)                 3.808880090439688E+03,      /* I =214 */
(PID.TID 0000.0001)                 3.854400740401647E+03,      /* I =215 */
(PID.TID 0000.0001)                 3.901201154671907E+03,      /* I =216 */
(PID.TID 0000.0001)                 3.949275109604741E+03,      /* I =217 */
(PID.TID 0000.0001)                 3.998612770159373E+03,      /* I =218 */
(PID.TID 0000.0001)                 4.049200537695179E+03,      /* I =219 */
(PID.TID 0000.0001)                 4.101020913973307E+03,      /* I =220 */
(PID.TID 0000.0001)                 4.154052383878064E+03,      /* I =221 */
(PID.TID 0000.0001)                 4.208269319333313E+03,      /* I =222 */
(PID.TID 0000.0001)                 4.263641906805477E+03,      /* I =223 */
(PID.TID 0000.0001)                 4.320136100652733E+03,      /* I =224 */
(PID.TID 0000.0001)                 4.377713604397904E+03,      /* I =225 */
(PID.TID 0000.0001)                 4.436331881769780E+03,      /* I =226 */
(PID.TID 0000.0001)                 4.495944199074673E+03,      /* I =227 */
(PID.TID 0000.0001)                 4.556499700129090E+03,      /* I =228 */
(PID.TID 0000.0001)                 4.617943514609063E+03,      /* I =229 */
(PID.TID 0000.0001)                 4.680216900256775E+03,      /* I =230 */
(PID.TID 0000.0001)                 4.743257418937483E+03,      /* I =231 */
(PID.TID 0000.0001)                 4.806999146066923E+03,      /* I =232 */
(PID.TID 0000.0001)                 4.871372912440906E+03,      /* I =233 */
(PID.TID 0000.0001)                 4.936306577004486E+03,      /* I =234 */
(PID.TID 0000.0001)                 5.001725328609076E+03,      /* I =235 */
(PID.TID 0000.0001)                 5.067552014333451E+03,      /* I =236 */
(PID.TID 0000.0001)                 5.133707491500002E+03,      /* I =237 */
(PID.TID 0000.0001)                 5.200111000112320E+03,      /* I =238 */
(PID.TID 0000.0001)                 5.266680552084212E+03,      /* I =239 */
(PID.TID 0000.0001)                 5.333333333333333E+03,      /* I =240 */
(PID.TID 0000.0001)                 5.399986114582455E+03,      /* I =241 */
(PID.TID 0000.0001)                 5.466555666554346E+03,      /* I =242 */
(PID.TID 0000.0001)                 5.532959175166664E+03,      /* I =243 */
(PID.TID 0000.0001)                 5.599114652333215E+03,      /* I =244 */
(PID.TID 0000.0001)                 5.664941338057590E+03,      /* I =245 */
(PID.TID 0000.0001)                 5.730360089662182E+03,      /* I =246 */
(PID.TID 0000.0001)                 5.795293754225760E+03,      /* I =247 */
(PID.TID 0000.0001)                 5.859667520599744E+03,      /* I =248 */
(PID.TID 0000.0001)                 5.923409247729184E+03,      /* I =249 */
(PID.TID 0000.0001)                 5.986449766409891E+03,      /* I =250 */
(PID.TID 0000.0001)                 6.048723152057603E+03,      /* I =251 */
(PID.TID 0000.0001)                 6.110166966537575E+03,      /* I =252 */
(PID.TID 0000.0001)                 6.170722467591993E+03,      /* I =253 */
(PID.TID 0000.0001)                 6.230334784896885E+03,      /* I =254 */
(PID.TID 0000.0001)                 6.288953062268763E+03,      /* I =255 */
(PID.TID 0000.0001)                 6.346530566013934E+03,      /* I =256 */
(PID.TID 0000.0001)                 6.403024759861190E+03,      /* I =257 */
(PID.TID 0000.0001)                 6.458397347333354E+03,      /* I =258 */
(PID.TID 0000.0001)                 6.512614282788602E+03,      /* I =259 */
(PID.TID 0000.0001)                 6.565645752693359E+03,      /* I =260 */
(PID.TID 0000.0001)                 6.617466128971488E+03,      /* I =261 */
(PID.TID 0000.0001)                 6.668053896507294E+03,      /* I =262 */
(PID.TID 0000.0001)                 6.717391557061925E+03,      /* I =263 */
(PID.TID 0000.0001)                 6.765465511994760E+03,      /* I =264 */
(PID.TID 0000.0001)                 6.812265926265019E+03,      /* I =265 */
(PID.TID 0000.0001)                 6.857786576226979E+03,      /* I =266 */
(PID.TID 0000.0001)                 6.902024683728279E+03,      /* I =267 */
(PID.TID 0000.0001)                 6.944980738979102E+03,      /* I =268 */
(PID.TID 0000.0001)                 6.986658314584997E+03,      /* I =269 */
(PID.TID 0000.0001)                 7.027063873032766E+03,      /* I =270 */
(PID.TID 0000.0001)                 7.066206569791787E+03,      /* I =271 */
(PID.TID 0000.0001)                 7.104098054047598E+03,      /* I =272 */
(PID.TID 0000.0001)                 7.140752268924879E+03,      /* I =273 */
(PID.TID 0000.0001)                 7.176185252887813E+03,      /* I =274 */
(PID.TID 0000.0001)                 7.210414943830989E+03,      /* I =275 */
(PID.TID 0000.0001)                 7.243460987197397E+03,      /* I =276 */
(PID.TID 0000.0001)                 7.275344549284830E+03,      /* I =277 */
(PID.TID 0000.0001)                 7.306088136730677E+03,      /* I =278 */
(PID.TID 0000.0001)                 7.335715423000445E+03,      /* I =279 */
(PID.TID 0000.0001)                 7.364251082548706E+03,      /* I =280 */
(PID.TID 0000.0001)                 7.391720633174448E+03,      /* I =281 */
(PID.TID 0000.0001)                 7.418150286956731E+03,      /* I =282 */
(PID.TID 0000.0001)                 7.443566810031993E+03,      /* I =283 */
(PID.TID 0000.0001)                 7.467997391361680E+03,      /* I =284 */
(PID.TID 0000.0001)                 7.491469520538082E+03,      /* I =285 */
(PID.TID 0000.0001)                 7.514010874587433E+03,      /* I =286 */
(PID.TID 0000.0001)                 7.535649213651886E+03,      /* I =287 */
(PID.TID 0000.0001)                 7.556412285365746E+03,      /* I =288 */
(PID.TID 0000.0001)                 7.576327737685448E+03,      /* I =289 */
(PID.TID 0000.0001)                 7.595423039886701E+03,      /* I =290 */
(PID.TID 0000.0001)                 7.613725411405238E+03,      /* I =291 */
(PID.TID 0000.0001)                 7.631261758168817E+03,      /* I =292 */
(PID.TID 0000.0001)                 7.648058616046834E+03,      /* I =293 */
(PID.TID 0000.0001)                 7.664142101029352E+03,      /* I =294 */
(PID.TID 0000.0001)                 7.679537865738625E+03,      /* I =295 */
(PID.TID 0000.0001)                 7.694271061872699E+03,      /* I =296 */
(PID.TID 0000.0001)                 7.708366308181648E+03,      /* I =297 */
(PID.TID 0000.0001)                 7.721847663581771E+03,      /* I =298 */
(PID.TID 0000.0001)                 7.734738605021031E+03,      /* I =299 */
(PID.TID 0000.0001)                 7.747062009719643E+03,      /* I =300 */
(PID.TID 0000.0001)                 7.758840141422466E+03,      /* I =301 */
(PID.TID 0000.0001)                 7.770094640314207E+03,      /* I =302 */
(PID.TID 0000.0001)                 7.780846516264185E+03,      /* I =303 */
(PID.TID 0000.0001)                 7.791116145083923E+03,      /* I =304 */
(PID.TID 0000.0001)                 7.800923267497976E+03,      /* I =305 */
(PID.TID 0000.0001)                 7.810286990545940E+03,      /* I =306 */
(PID.TID 0000.0001)                 7.819225791151050E+03,      /* I =307 */
(PID.TID 0000.0001)                 7.827757521608264E+03,      /* I =308 */
(PID.TID 0000.0001)                 7.835899416761878E+03,      /* I =309 */
(PID.TID 0000.0001)                 7.843668102659432E+03,      /* I =310 */
(PID.TID 0000.0001)                 7.851079606484943E+03,      /* I =311 */
(PID.TID 0000.0001)                 7.858149367590049E+03,      /* I =312 */
(PID.TID 0000.0001)                 7.864892249456683E+03,      /* I =313 */
(PID.TID 0000.0001)                 7.871322552439098E+03,      /* I =314 */
(PID.TID 0000.0001)                 7.877454027146530E+03,      /* I =315 */
(PID.TID 0000.0001)                 7.883299888340637E+03,      /* I =316 */
(PID.TID 0000.0001)                 7.888872829233704E+03,      /* I =317 */
(PID.TID 0000.0001)                 7.894185036084920E+03,      /* I =318 */
(PID.TID 0000.0001)                 7.899248203002459E+03,      /* I =319 */
(PID.TID 0000.0001)                 7.904073546868845E+03       /* I =320 */
(PID.TID 0000.0001)     ;
(PID.TID 0000.0001) rAs =  /* rAs(1,:,1,:) ( m - cartesian, degrees - spherical ) */
(PID.TID 0000.0001)                 2.666701115686057E+03       /* J =  1 */
(PID.TID 0000.0001)     ;
(PID.TID 0000.0001) // =======================================================
(PID.TID 0000.0001) // End of Model config. summary
(PID.TID 0000.0001) // =======================================================
(PID.TID 0000.0001) 
(PID.TID 0000.0001)  MDSREADFIELD: opening global file: T.init
(PID.TID 0000.0001) // =======================================================
(PID.TID 0000.0001) // Field Initial Temperature at iteration          1
(PID.TID 0000.0001) // CMIN =          1.193046668521006E-04
(PID.TID 0000.0001) // CMAX =          9.995316742662479E-03
(PID.TID 0000.0001) // CINT =          3.657782250300140E-04
(PID.TID 0000.0001) // SYMBOLS (CMIN->CMAX): -abcdefghijklmnopqrstuvwxyz+
(PID.TID 0000.0001) //                  0.0: .
(PID.TID 0000.0001) // RANGE I (Lo:Hi:Step):(   1: 320:   1)
(PID.TID 0000.0001) // RANGE J (Lo:Hi:Step):(   1:   1:  -1)
(PID.TID 0000.0001) // RANGE K (Lo:Hi:Step):(   1:   1:   1)
(PID.TID 0000.0001) // =======================================================
(PID.TID 0000.0001) K =   1
(PID.TID 0000.0001)                I=10      I=20      I=30      I=40      I=50      I=60      I=70      I=80      I=90      I=100     I=110     I=120     I=130     I=140     I=150     I=160     I=170     I=180     I=190     I=200     I=210     I=220     I=230     I=240     I=250     I=260     I=270     I=280     I=290     I=300     I=310     I=320
(PID.TID 0000.0001) |--J--|123456789|123456789|123456789|123456789|123456789|123456789|123456789|123456789|123456789|123456789|123456789|123456789|123456789|123456789|123456789|123456789|123456789|123456789|123456789|123456789|123456789|123456789|123456789|123456789|123456789|123456789|123456789|123456789|123456789|123456789|123456789|123456789|
(PID.TID 0000.0001)      1 .kzbohwiraimloqcxtuvregqnabgkmypimpdvzp-vpsbkjdvwlzdwulqzqfiemklpbhpdqfpnlnyikhkgjmshcll-rsggsu+mxlvvdjnsollbljhwtzo-pvzfsnysfldziatxggycyswelbwohjwjbeaocncujvapzhxbafyag+emhrzurcb-hv+-vqofvgtrfppreqdnqrrx-huhyrbb-fnlspnbejguhq+mzvycvydcusqtrxgkeabwilyfwrxm+jnemkrrzecoz-w-nesgycnxyilmdcntkigwqfzqfrrc-gcbweatngj-xwgodpi
(PID.TID 0000.0001) // =======================================================
(PID.TID 0000.0001) // END OF FIELD                                          =
(PID.TID 0000.0001) // =======================================================
(PID.TID 0000.0001) 
(PID.TID 0000.0001) // =======================================================
(PID.TID 0000.0001) // Field Initial Salinity at iteration          1
(PID.TID 0000.0001) // CMIN =          3.500000000000000E+01
(PID.TID 0000.0001) // CMAX =          3.500000000000000E+01
(PID.TID 0000.0001) // CINT =          0.000000000000000E+00
(PID.TID 0000.0001) // SYMBOLS (CMIN->CMAX): -abcdefghijklmnopqrstuvwxyz+
(PID.TID 0000.0001) //                  0.0: .
(PID.TID 0000.0001) // RANGE I (Lo:Hi:Step):(   1: 320:   1)
(PID.TID 0000.0001) // RANGE J (Lo:Hi:Step):(   1:   1:  -1)
(PID.TID 0000.0001) // RANGE K (Lo:Hi:Step):(   1:   1:   1)
(PID.TID 0000.0001) // =======================================================
(PID.TID 0000.0001) // =======================================================
(PID.TID 0000.0001) // END OF FIELD                                          =
(PID.TID 0000.0001) // =======================================================
(PID.TID 0000.0001) 
(PID.TID 0000.0001) Start initial hydrostatic pressure computation
(PID.TID 0000.0001) Pressure is predetermined for buoyancyRelation OCEANIC
(PID.TID 0000.0001) 
(PID.TID 0000.0001)  MDSREADFIELD: opening global file: Qnet.forcing
(PID.TID 0000.0001) // =======================================================
(PID.TID 0000.0001) // Model current state
(PID.TID 0000.0001) // =======================================================
(PID.TID 0000.0001) 
(PID.TID 0000.0001) // =======================================================
(PID.TID 0000.0001) // Begin MONITOR dynamic field statistics
(PID.TID 0000.0001) // =======================================================
(PID.TID 0000.0001) %MON time_tsnumber                =                     0
(PID.TID 0000.0001) %MON time_secondsf                =   0.0000000000000E+00
(PID.TID 0000.0001) %MON dynstat_eta_max              =   0.0000000000000E+00
(PID.TID 0000.0001) %MON dynstat_eta_min              =   0.0000000000000E+00
(PID.TID 0000.0001) %MON dynstat_eta_mean             =   0.0000000000000E+00
(PID.TID 0000.0001) %MON dynstat_eta_sd               =   0.0000000000000E+00
(PID.TID 0000.0001) %MON dynstat_eta_del2             =   0.0000000000000E+00
(PID.TID 0000.0001) %MON dynstat_uvel_max             =   0.0000000000000E+00
(PID.TID 0000.0001) %MON dynstat_uvel_min             =   0.0000000000000E+00
(PID.TID 0000.0001) %MON dynstat_uvel_mean            =   0.0000000000000E+00
(PID.TID 0000.0001) %MON dynstat_uvel_sd              =   0.0000000000000E+00
(PID.TID 0000.0001) %MON dynstat_uvel_del2            =   0.0000000000000E+00
(PID.TID 0000.0001) %MON dynstat_vvel_max             =   0.0000000000000E+00
(PID.TID 0000.0001) %MON dynstat_vvel_min             =   0.0000000000000E+00
(PID.TID 0000.0001) %MON dynstat_vvel_mean            =   0.0000000000000E+00
(PID.TID 0000.0001) %MON dynstat_vvel_sd              =   0.0000000000000E+00
(PID.TID 0000.0001) %MON dynstat_vvel_del2            =   0.0000000000000E+00
(PID.TID 0000.0001) %MON dynstat_wvel_max             =   0.0000000000000E+00
(PID.TID 0000.0001) %MON dynstat_wvel_min             =   0.0000000000000E+00
(PID.TID 0000.0001) %MON dynstat_wvel_mean            =   0.0000000000000E+00
(PID.TID 0000.0001) %MON dynstat_wvel_sd              =   0.0000000000000E+00
(PID.TID 0000.0001) %MON dynstat_wvel_del2            =   0.0000000000000E+00
(PID.TID 0000.0001) %MON dynstat_theta_max            =   9.9980345224379E-03
(PID.TID 0000.0001) %MON dynstat_theta_min            =   3.9889598923900E-07
(PID.TID 0000.0001) %MON dynstat_theta_mean           =   5.0669990539996E-03
(PID.TID 0000.0001) %MON dynstat_theta_sd             =   2.8822895061531E-03
(PID.TID 0000.0001) %MON dynstat_theta_del2           =   1.4465397623378E-03
(PID.TID 0000.0001) %MON dynstat_salt_max             =   3.5000000000000E+01
(PID.TID 0000.0001) %MON dynstat_salt_min             =   3.5000000000000E+01
(PID.TID 0000.0001) %MON dynstat_salt_mean            =   3.5000000000000E+01
(PID.TID 0000.0001) %MON dynstat_salt_sd              =   6.3948846218409E-14
(PID.TID 0000.0001) %MON dynstat_salt_del2            =   0.0000000000000E+00
(PID.TID 0000.0001) %MON advcfl_uvel_max              =   0.0000000000000E+00
(PID.TID 0000.0001) %MON advcfl_vvel_max              =   0.0000000000000E+00
(PID.TID 0000.0001) %MON advcfl_wvel_max              =   0.0000000000000E+00
(PID.TID 0000.0001) %MON advcfl_W_hf_max              =   0.0000000000000E+00
(PID.TID 0000.0001) %MON pe_b_mean                    =   0.0000000000000E+00
(PID.TID 0000.0001) %MON ke_max                       =   0.0000000000000E+00
(PID.TID 0000.0001) %MON ke_mean                      =   0.0000000000000E+00
(PID.TID 0000.0001) %MON ke_vol                       =   2.0260852940582E+08
(PID.TID 0000.0001) %MON vort_r_min                   =   0.0000000000000E+00
(PID.TID 0000.0001) %MON vort_r_max                   =   0.0000000000000E+00
(PID.TID 0000.0001) %MON vort_a_mean                  =   0.0000000000000E+00
(PID.TID 0000.0001) %MON vort_a_sd                    =   0.0000000000000E+00
(PID.TID 0000.0001) %MON vort_p_mean                  =   0.0000000000000E+00
(PID.TID 0000.0001) %MON vort_p_sd                    =   0.0000000000000E+00
(PID.TID 0000.0001) %MON surfExpan_theta_mean         =   0.0000000000000E+00
(PID.TID 0000.0001) %MON surfExpan_salt_mean          =   0.0000000000000E+00
(PID.TID 0000.0001) // =======================================================
(PID.TID 0000.0001) // End MONITOR dynamic field statistics
(PID.TID 0000.0001) // =======================================================
 cg2d: Sum(rhs),rhsMax =   5.55111512312578E-16  4.34534814524274E-04
(PID.TID 0000.0001)                    cg2d_init_res =    4.31213602031277E+00
(PID.TID 0000.0001)                       cg2d_iters =   199
(PID.TID 0000.0001)                         cg2d_res =    8.69882100692576E-14
 cg3d: Sum(rhs),rhsMax =  -1.05110364856387E-13  9.42282085708375E-06
(PID.TID 0000.0001)                    cg3d_init_res =    2.10684632797408E+01
(PID.TID 0000.0001)                       cg3d_iters =    20
(PID.TID 0000.0001)                         cg3d_res =    3.04049897397049E-03
(PID.TID 0000.0001) // =======================================================
(PID.TID 0000.0001) // Begin MONITOR dynamic field statistics
(PID.TID 0000.0001) // =======================================================
(PID.TID 0000.0001) %MON time_tsnumber                =                     1
(PID.TID 0000.0001) %MON time_secondsf                =   2.0000000000000E+01
(PID.TID 0000.0001) %MON dynstat_eta_max              =   2.3725500233582E-05
(PID.TID 0000.0001) %MON dynstat_eta_min              =  -2.0699974017748E-05
(PID.TID 0000.0001) %MON dynstat_eta_mean             =  -6.2760810111520E-19
(PID.TID 0000.0001) %MON dynstat_eta_sd               =   7.5063528952082E-06
(PID.TID 0000.0001) %MON dynstat_eta_del2             =   3.0602731199354E-06
(PID.TID 0000.0001) %MON dynstat_uvel_max             =   1.0004216839354E-04
(PID.TID 0000.0001) %MON dynstat_uvel_min             =  -1.0905120582135E-04
(PID.TID 0000.0001) %MON dynstat_uvel_mean            =   1.0756742432170E-07
(PID.TID 0000.0001) %MON dynstat_uvel_sd              =   2.1316815734603E-05
(PID.TID 0000.0001) %MON dynstat_uvel_del2            =   1.2887271361069E-05
(PID.TID 0000.0001) %MON dynstat_vvel_max             =   0.0000000000000E+00
(PID.TID 0000.0001) %MON dynstat_vvel_min             =   0.0000000000000E+00
(PID.TID 0000.0001) %MON dynstat_vvel_mean            =   0.0000000000000E+00
(PID.TID 0000.0001) %MON dynstat_vvel_sd              =   0.0000000000000E+00
(PID.TID 0000.0001) %MON dynstat_vvel_del2            =   0.0000000000000E+00
(PID.TID 0000.0001) %MON dynstat_wvel_max             =   8.9133299602886E-05
(PID.TID 0000.0001) %MON dynstat_wvel_min             =  -9.5323128568251E-05
(PID.TID 0000.0001) %MON dynstat_wvel_mean            =   1.1897253964559E-22
(PID.TID 0000.0001) %MON dynstat_wvel_sd              =   2.0538017754724E-05
(PID.TID 0000.0001) %MON dynstat_wvel_del2            =   1.2676039902000E-05
(PID.TID 0000.0001) %MON dynstat_theta_max            =   9.9980345224379E-03
(PID.TID 0000.0001) %MON dynstat_theta_min            =  -2.6732022418926E-06
(PID.TID 0000.0001) %MON dynstat_theta_mean           =   5.0663266672600E-03
(PID.TID 0000.0001) %MON dynstat_theta_sd             =   2.8823232668965E-03
(PID.TID 0000.0001) %MON dynstat_theta_del2           =   1.4465396630697E-03
(PID.TID 0000.0001) %MON dynstat_salt_max             =   3.5000000000000E+01
(PID.TID 0000.0001) %MON dynstat_salt_min             =   3.5000000000000E+01
(PID.TID 0000.0001) %MON dynstat_salt_mean            =   3.5000000000000E+01
(PID.TID 0000.0001) %MON dynstat_salt_sd              =   6.3948846218409E-14
(PID.TID 0000.0001) %MON dynstat_salt_del2            =   0.0000000000000E+00
(PID.TID 0000.0001) %MON advcfl_uvel_max              =   1.6354763613003E-04
(PID.TID 0000.0001) %MON advcfl_vvel_max              =   0.0000000000000E+00
(PID.TID 0000.0001) %MON advcfl_wvel_max              =   5.7193877140951E-04
(PID.TID 0000.0001) %MON advcfl_W_hf_max              =   5.7193877140951E-04
(PID.TID 0000.0001) %MON pe_b_mean                    =   1.7485949867809E-12
(PID.TID 0000.0001) %MON ke_max                       =   3.6197227695298E-09
(PID.TID 0000.0001) %MON ke_mean                      =   2.2601686068264E-10
(PID.TID 0000.0001) %MON ke_vol                       =   2.0260852940582E+08
(PID.TID 0000.0001) %MON vort_r_min                   =   0.0000000000000E+00
(PID.TID 0000.0001) %MON vort_r_max                   =   0.0000000000000E+00
(PID.TID 0000.0001) %MON vort_a_mean                  =   0.0000000000000E+00
(PID.TID 0000.0001) %MON vort_a_sd                    =   0.0000000000000E+00
(PID.TID 0000.0001) %MON vort_p_mean                  =   0.0000000000000E+00
(PID.TID 0000.0001) %MON vort_p_sd                    =   0.0000000000000E+00
(PID.TID 0000.0001) %MON surfExpan_theta_mean         =   2.3813942855099E-10
(PID.TID 0000.0001) %MON surfExpan_salt_mean          =   1.5719432878273E-20
(PID.TID 0000.0001) // =======================================================
(PID.TID 0000.0001) // End MONITOR dynamic field statistics
(PID.TID 0000.0001) // =======================================================
 cg2d: Sum(rhs),rhsMax =   2.23811609129099E-06  4.34558963992127E-04
(PID.TID 0000.0001)                    cg2d_init_res =    1.59062606811760E-03
(PID.TID 0000.0001)                       cg2d_iters =   187
(PID.TID 0000.0001)                         cg2d_res =    7.99883009731900E-14
 cg3d: Sum(rhs),rhsMax =  -6.22280005302400E-14  9.42289838395813E-06
(PID.TID 0000.0001)                    cg3d_init_res =    8.07112679287647E-02
(PID.TID 0000.0001)                       cg3d_iters =    20
(PID.TID 0000.0001)                         cg3d_res =    3.63426716549872E-04
(PID.TID 0000.0001) // =======================================================
(PID.TID 0000.0001) // Begin MONITOR dynamic field statistics
(PID.TID 0000.0001) // =======================================================
(PID.TID 0000.0001) %MON time_tsnumber                =                     2
(PID.TID 0000.0001) %MON time_secondsf                =   4.0000000000000E+01
(PID.TID 0000.0001) %MON dynstat_eta_max              =   2.4209716551716E-05
(PID.TID 0000.0001) %MON dynstat_eta_min              =  -2.0551240763757E-05
(PID.TID 0000.0001) %MON dynstat_eta_mean             =  -7.9216510138864E-10
(PID.TID 0000.0001) %MON dynstat_eta_sd               =   7.6052338720885E-06
(PID.TID 0000.0001) %MON dynstat_eta_del2             =   3.0587148158862E-06
(PID.TID 0000.0001) %MON dynstat_uvel_max             =   1.9910114554169E-04
(PID.TID 0000.0001) %MON dynstat_uvel_min             =  -2.1175312469624E-04
(PID.TID 0000.0001) %MON dynstat_uvel_mean            =   1.5001197168012E-07
(PID.TID 0000.0001) %MON dynstat_uvel_sd              =   4.2573843188029E-05
(PID.TID 0000.0001) %MON dynstat_uvel_del2            =   2.5705880265285E-05
(PID.TID 0000.0001) %MON dynstat_vvel_max             =   0.0000000000000E+00
(PID.TID 0000.0001) %MON dynstat_vvel_min             =   0.0000000000000E+00
(PID.TID 0000.0001) %MON dynstat_vvel_mean            =   0.0000000000000E+00
(PID.TID 0000.0001) %MON dynstat_vvel_sd              =   0.0000000000000E+00
(PID.TID 0000.0001) %MON dynstat_vvel_del2            =   0.0000000000000E+00
(PID.TID 0000.0001) %MON dynstat_wvel_max             =   1.7788945694177E-04
(PID.TID 0000.0001) %MON dynstat_wvel_min             =  -1.9027179644436E-04
(PID.TID 0000.0001) %MON dynstat_wvel_mean            =   9.6059309787924E-22
(PID.TID 0000.0001) %MON dynstat_wvel_sd              =   4.0995934982069E-05
(PID.TID 0000.0001) %MON dynstat_wvel_del2            =   2.5288273282717E-05
(PID.TID 0000.0001) %MON dynstat_theta_max            =   9.9980210743326E-03
(PID.TID 0000.0001) %MON dynstat_theta_min            =  -2.9185230160215E-04
(PID.TID 0000.0001) %MON dynstat_theta_mean           =   5.0656542503866E-03
(PID.TID 0000.0001) %MON dynstat_theta_sd             =   2.8821849788121E-03
(PID.TID 0000.0001) %MON dynstat_theta_del2           =   1.4463903527276E-03
(PID.TID 0000.0001) %MON dynstat_salt_max             =   3.5000000000000E+01
(PID.TID 0000.0001) %MON dynstat_salt_min             =   3.5000000000000E+01
(PID.TID 0000.0001) %MON dynstat_salt_mean            =   3.5000000000000E+01
(PID.TID 0000.0001) %MON dynstat_salt_sd              =   6.3948846218409E-14
(PID.TID 0000.0001) %MON dynstat_salt_del2            =   0.0000000000000E+00
(PID.TID 0000.0001) %MON advcfl_uvel_max              =   3.1757304035640E-04
(PID.TID 0000.0001) %MON advcfl_vvel_max              =   0.0000000000000E+00
(PID.TID 0000.0001) %MON advcfl_wvel_max              =   1.1416307786662E-03
(PID.TID 0000.0001) %MON advcfl_W_hf_max              =   1.1416307786662E-03
(PID.TID 0000.0001) %MON pe_b_mean                    =   1.7949668208069E-12
(PID.TID 0000.0001) %MON ke_max                       =   1.3668977405106E-08
(PID.TID 0000.0001) %MON ke_mean                      =   9.0152177720955E-10
(PID.TID 0000.0001) %MON ke_vol                       =   2.0260852940582E+08
(PID.TID 0000.0001) %MON vort_r_min                   =   0.0000000000000E+00
(PID.TID 0000.0001) %MON vort_r_max                   =   0.0000000000000E+00
(PID.TID 0000.0001) %MON vort_a_mean                  =   0.0000000000000E+00
(PID.TID 0000.0001) %MON vort_a_sd                    =   0.0000000000000E+00
(PID.TID 0000.0001) %MON vort_p_mean                  =   0.0000000000000E+00
(PID.TID 0000.0001) %MON vort_p_sd                    =   0.0000000000000E+00
(PID.TID 0000.0001) %MON surfExpan_theta_mean         =   5.2027081292431E-15
(PID.TID 0000.0001) %MON surfExpan_salt_mean          =   3.4556769798518E-20
(PID.TID 0000.0001) // =======================================================
(PID.TID 0000.0001) // End MONITOR dynamic field statistics
(PID.TID 0000.0001) // =======================================================
 cg2d: Sum(rhs),rhsMax =   2.11047993770586E-05  4.34522737146393E-04
(PID.TID 0000.0001)                    cg2d_init_res =    8.70530146243090E-04
(PID.TID 0000.0001)                       cg2d_iters =   187
(PID.TID 0000.0001)                         cg2d_res =    6.12783618545705E-14
 cg3d: Sum(rhs),rhsMax =   1.52475254644457E-13  9.42091882488847E-06
(PID.TID 0000.0001)                    cg3d_init_res =    3.58546828561745E-02
(PID.TID 0000.0001)                       cg3d_iters =    20
(PID.TID 0000.0001)                         cg3d_res =    1.98208369402987E-04
(PID.TID 0000.0001) // =======================================================
(PID.TID 0000.0001) // Begin MONITOR dynamic field statistics
(PID.TID 0000.0001) // =======================================================
(PID.TID 0000.0001) %MON time_tsnumber                =                     3
(PID.TID 0000.0001) %MON time_secondsf                =   6.0000000000000E+01
(PID.TID 0000.0001) %MON dynstat_eta_max              =   2.4088529106257E-05
(PID.TID 0000.0001) %MON dynstat_eta_min              =  -2.0357827930462E-05
(PID.TID 0000.0001) %MON dynstat_eta_mean             =  -7.4692693008130E-09
(PID.TID 0000.0001) %MON dynstat_eta_sd               =   7.6021937088291E-06
(PID.TID 0000.0001) %MON dynstat_eta_del2             =   3.0578474884964E-06
(PID.TID 0000.0001) %MON dynstat_uvel_max             =   2.9794264103637E-04
(PID.TID 0000.0001) %MON dynstat_uvel_min             =  -3.1337901598909E-04
(PID.TID 0000.0001) %MON dynstat_uvel_mean            =   1.7195234060494E-07
(PID.TID 0000.0001) %MON dynstat_uvel_sd              =   6.3771311158070E-05
(PID.TID 0000.0001) %MON dynstat_uvel_del2            =   3.8474879987561E-05
(PID.TID 0000.0001) %MON dynstat_vvel_max             =   0.0000000000000E+00
(PID.TID 0000.0001) %MON dynstat_vvel_min             =   0.0000000000000E+00
(PID.TID 0000.0001) %MON dynstat_vvel_mean            =   0.0000000000000E+00
(PID.TID 0000.0001) %MON dynstat_vvel_sd              =   0.0000000000000E+00
(PID.TID 0000.0001) %MON dynstat_vvel_del2            =   0.0000000000000E+00
(PID.TID 0000.0001) %MON dynstat_wvel_max             =   2.6645710599590E-04
(PID.TID 0000.0001) %MON dynstat_wvel_min             =  -2.8498877115280E-04
(PID.TID 0000.0001) %MON dynstat_wvel_mean            =  -1.2519372858174E-10
(PID.TID 0000.0001) %MON dynstat_wvel_sd              =   6.1423038878353E-05
(PID.TID 0000.0001) %MON dynstat_wvel_del2            =   3.7870807100414E-05
(PID.TID 0000.0001) %MON dynstat_theta_max            =   9.9979934933112E-03
(PID.TID 0000.0001) %MON dynstat_theta_min            =  -5.8005560687558E-04
(PID.TID 0000.0001) %MON dynstat_theta_mean           =   5.0649818547742E-03
(PID.TID 0000.0001) %MON dynstat_theta_sd             =   2.8818757012077E-03
(PID.TID 0000.0001) %MON dynstat_theta_del2           =   1.4460926548944E-03
(PID.TID 0000.0001) %MON dynstat_salt_max             =   3.5000000000000E+01
(PID.TID 0000.0001) %MON dynstat_salt_min             =   3.5000000000000E+01
(PID.TID 0000.0001) %MON dynstat_salt_mean            =   3.5000000000000E+01
(PID.TID 0000.0001) %MON dynstat_salt_sd              =   6.3948846218409E-14
(PID.TID 0000.0001) %MON dynstat_salt_del2            =   0.0000000000000E+00
(PID.TID 0000.0001) %MON advcfl_uvel_max              =   4.7003767835780E-04
(PID.TID 0000.0001) %MON advcfl_vvel_max              =   0.0000000000000E+00
(PID.TID 0000.0001) %MON advcfl_wvel_max              =   1.7099326269168E-03
(PID.TID 0000.0001) %MON advcfl_W_hf_max              =   1.7099326269168E-03
(PID.TID 0000.0001) %MON pe_b_mean                    =   1.7935337572457E-12
(PID.TID 0000.0001) %MON ke_max                       =   3.0300855301799E-08
(PID.TID 0000.0001) %MON ke_mean                      =   2.0227349001729E-09
(PID.TID 0000.0001) %MON ke_vol                       =   2.0260852940582E+08
(PID.TID 0000.0001) %MON vort_r_min                   =   0.0000000000000E+00
(PID.TID 0000.0001) %MON vort_r_max                   =   0.0000000000000E+00
(PID.TID 0000.0001) %MON vort_a_mean                  =   0.0000000000000E+00
(PID.TID 0000.0001) %MON vort_a_sd                    =   0.0000000000000E+00
(PID.TID 0000.0001) %MON vort_p_mean                  =   0.0000000000000E+00
(PID.TID 0000.0001) %MON vort_p_sd                    =   0.0000000000000E+00
(PID.TID 0000.0001) %MON surfExpan_theta_mean         =  -4.3062481347389E-12
(PID.TID 0000.0001) %MON surfExpan_salt_mean          =  -1.1573616092289E-08
(PID.TID 0000.0001) // =======================================================
(PID.TID 0000.0001) // End MONITOR dynamic field statistics
(PID.TID 0000.0001) // =======================================================
 cg2d: Sum(rhs),rhsMax =   8.95573814733708E-05  4.34489997934960E-04
(PID.TID 0000.0001)                    cg2d_init_res =    6.48443471910990E-04
(PID.TID 0000.0001)                       cg2d_iters =   186
(PID.TID 0000.0001)                         cg2d_res =    5.60790988574164E-14
 cg3d: Sum(rhs),rhsMax =   1.86933801771261E-14  9.41794381152822E-06
(PID.TID 0000.0001)                    cg3d_init_res =    1.13790066431579E-02
(PID.TID 0000.0001)                       cg3d_iters =    20
(PID.TID 0000.0001)                         cg3d_res =    1.54770714839855E-04
(PID.TID 0000.0001) // =======================================================
(PID.TID 0000.0001) // Begin MONITOR dynamic field statistics
(PID.TID 0000.0001) // =======================================================
(PID.TID 0000.0001) %MON time_tsnumber                =                     4
(PID.TID 0000.0001) %MON time_secondsf                =   8.0000000000000E+01
(PID.TID 0000.0001) %MON dynstat_eta_max              =   2.3969196027397E-05
(PID.TID 0000.0001) %MON dynstat_eta_min              =  -2.0068155603087E-05
(PID.TID 0000.0001) %MON dynstat_eta_mean             =  -3.1693160764345E-08
(PID.TID 0000.0001) %MON dynstat_eta_sd               =   7.6142921202944E-06
(PID.TID 0000.0001) %MON dynstat_eta_del2             =   3.0574417660469E-06
(PID.TID 0000.0001) %MON dynstat_uvel_max             =   3.9648963314331E-04
(PID.TID 0000.0001) %MON dynstat_uvel_min             =  -4.1509149104104E-04
(PID.TID 0000.0001) %MON dynstat_uvel_mean            =   1.8139100453769E-07
(PID.TID 0000.0001) %MON dynstat_uvel_sd              =   8.4916774902734E-05
(PID.TID 0000.0001) %MON dynstat_uvel_del2            =   5.1195796433476E-05
(PID.TID 0000.0001) %MON dynstat_vvel_max             =   0.0000000000000E+00
(PID.TID 0000.0001) %MON dynstat_vvel_min             =   0.0000000000000E+00
(PID.TID 0000.0001) %MON dynstat_vvel_mean            =   0.0000000000000E+00
(PID.TID 0000.0001) %MON dynstat_vvel_sd              =   0.0000000000000E+00
(PID.TID 0000.0001) %MON dynstat_vvel_del2            =   0.0000000000000E+00
(PID.TID 0000.0001) %MON dynstat_wvel_max             =   3.5480136863812E-04
(PID.TID 0000.0001) %MON dynstat_wvel_min             =  -3.7947242107058E-04
(PID.TID 0000.0001) %MON dynstat_wvel_mean            =  -4.8090495318742E-10
(PID.TID 0000.0001) %MON dynstat_wvel_sd              =   8.1809986944731E-05
(PID.TID 0000.0001) %MON dynstat_wvel_del2            =   5.0418173412779E-05
(PID.TID 0000.0001) %MON dynstat_theta_max            =   9.9979520401126E-03
(PID.TID 0000.0001) %MON dynstat_theta_min            =  -8.6729211133643E-04
(PID.TID 0000.0001) %MON dynstat_theta_mean           =   5.0643094418105E-03
(PID.TID 0000.0001) %MON dynstat_theta_sd             =   2.8813962159638E-03
(PID.TID 0000.0001) %MON dynstat_theta_del2           =   1.4456469520525E-03
(PID.TID 0000.0001) %MON dynstat_salt_max             =   3.5000000000000E+01
(PID.TID 0000.0001) %MON dynstat_salt_min             =   3.5000000000000E+01
(PID.TID 0000.0001) %MON dynstat_salt_mean            =   3.5000000000000E+01
(PID.TID 0000.0001) %MON dynstat_salt_sd              =   6.3948846218409E-14
(PID.TID 0000.0001) %MON dynstat_salt_del2            =   0.0000000000000E+00
(PID.TID 0000.0001) %MON advcfl_uvel_max              =   6.2259637946466E-04
(PID.TID 0000.0001) %MON advcfl_vvel_max              =   0.0000000000000E+00
(PID.TID 0000.0001) %MON advcfl_wvel_max              =   2.2768345264235E-03
(PID.TID 0000.0001) %MON advcfl_W_hf_max              =   2.2768345264235E-03
(PID.TID 0000.0001) %MON pe_b_mean                    =   1.7992763261844E-12
(PID.TID 0000.0001) %MON ke_max                       =   5.3136912680017E-08
(PID.TID 0000.0001) %MON ke_mean                      =   3.5865268160882E-09
(PID.TID 0000.0001) %MON ke_vol                       =   2.0260852940582E+08
(PID.TID 0000.0001) %MON vort_r_min                   =   0.0000000000000E+00
(PID.TID 0000.0001) %MON vort_r_max                   =   0.0000000000000E+00
(PID.TID 0000.0001) %MON vort_a_mean                  =   0.0000000000000E+00
(PID.TID 0000.0001) %MON vort_a_sd                    =   0.0000000000000E+00
(PID.TID 0000.0001) %MON vort_p_mean                  =   0.0000000000000E+00
(PID.TID 0000.0001) %MON vort_p_sd                    =   0.0000000000000E+00
(PID.TID 0000.0001) %MON surfExpan_theta_mean         =  -4.4026667859490E-12
(PID.TID 0000.0001) %MON surfExpan_salt_mean          =  -4.2919303425826E-08
(PID.TID 0000.0001) // =======================================================
(PID.TID 0000.0001) // End MONITOR dynamic field statistics
(PID.TID 0000.0001) // =======================================================
 cg2d: Sum(rhs),rhsMax =   2.45909156799229E-04  4.34445988305730E-04
(PID.TID 0000.0001)                    cg2d_init_res =    8.71480544578788E-04
(PID.TID 0000.0001)                       cg2d_iters =   186
(PID.TID 0000.0001)                         cg2d_res =    6.78498079642079E-14
 cg3d: Sum(rhs),rhsMax =  -7.07767178198537E-16  9.41390716826919E-06
(PID.TID 0000.0001)                    cg3d_init_res =    1.20035152156805E-02
(PID.TID 0000.0001)                       cg3d_iters =    20
(PID.TID 0000.0001)                         cg3d_res =    8.47725077957461E-05
(PID.TID 0000.0001) // =======================================================
(PID.TID 0000.0001) // Begin MONITOR dynamic field statistics
(PID.TID 0000.0001) // =======================================================
(PID.TID 0000.0001) %MON time_tsnumber                =                     5
(PID.TID 0000.0001) %MON time_secondsf                =   1.0000000000000E+02
(PID.TID 0000.0001) %MON dynstat_eta_max              =   2.3943479833975E-05
(PID.TID 0000.0001) %MON dynstat_eta_min              =  -1.9862035739038E-05
(PID.TID 0000.0001) %MON dynstat_eta_mean             =  -8.7015150415269E-08
(PID.TID 0000.0001) %MON dynstat_eta_sd               =   7.6363594357653E-06
(PID.TID 0000.0001) %MON dynstat_eta_del2             =   3.0570379373667E-06
(PID.TID 0000.0001) %MON dynstat_uvel_max             =   4.9471234017225E-04
(PID.TID 0000.0001) %MON dynstat_uvel_min             =  -5.1566172650938E-04
(PID.TID 0000.0001) %MON dynstat_uvel_mean            =   1.8167427813972E-07
(PID.TID 0000.0001) %MON dynstat_uvel_sd              =   1.0601032429796E-04
(PID.TID 0000.0001) %MON dynstat_uvel_del2            =   6.3868479550243E-05
(PID.TID 0000.0001) %MON dynstat_vvel_max             =   0.0000000000000E+00
(PID.TID 0000.0001) %MON dynstat_vvel_min             =   0.0000000000000E+00
(PID.TID 0000.0001) %MON dynstat_vvel_mean            =   0.0000000000000E+00
(PID.TID 0000.0001) %MON dynstat_vvel_sd              =   0.0000000000000E+00
(PID.TID 0000.0001) %MON dynstat_vvel_del2            =   0.0000000000000E+00
(PID.TID 0000.0001) %MON dynstat_wvel_max             =   4.4290833712329E-04
(PID.TID 0000.0001) %MON dynstat_wvel_min             =  -4.7371642324649E-04
(PID.TID 0000.0001) %MON dynstat_wvel_mean            =  -1.0989675025574E-09
(PID.TID 0000.0001) %MON dynstat_wvel_sd              =   1.0215602517946E-04
(PID.TID 0000.0001) %MON dynstat_wvel_del2            =   6.2930139589218E-05
(PID.TID 0000.0001) %MON dynstat_theta_max            =   9.9978965452638E-03
(PID.TID 0000.0001) %MON dynstat_theta_min            =  -1.1535673070226E-03
(PID.TID 0000.0001) %MON dynstat_theta_mean           =   5.0636370019846E-03
(PID.TID 0000.0001) %MON dynstat_theta_sd             =   2.8807476081691E-03
(PID.TID 0000.0001) %MON dynstat_theta_del2           =   1.4450538864654E-03
(PID.TID 0000.0001) %MON dynstat_salt_max             =   3.5000000000000E+01
(PID.TID 0000.0001) %MON dynstat_salt_min             =   3.5000000000000E+01
(PID.TID 0000.0001) %MON dynstat_salt_mean            =   3.5000000000000E+01
(PID.TID 0000.0001) %MON dynstat_salt_sd              =   6.3948846218409E-14
(PID.TID 0000.0001) %MON dynstat_salt_del2            =   0.0000000000000E+00
(PID.TID 0000.0001) %MON advcfl_uvel_max              =   7.7344183362577E-04
(PID.TID 0000.0001) %MON advcfl_vvel_max              =   0.0000000000000E+00
(PID.TID 0000.0001) %MON advcfl_wvel_max              =   2.8422985394789E-03
(PID.TID 0000.0001) %MON advcfl_W_hf_max              =   2.8422985394789E-03
(PID.TID 0000.0001) %MON pe_b_mean                    =   1.8099241846042E-12
(PID.TID 0000.0001) %MON ke_max                       =   8.1948162605040E-08
(PID.TID 0000.0001) %MON ke_mean                      =   5.5896256001203E-09
(PID.TID 0000.0001) %MON ke_vol                       =   2.0260852940582E+08
(PID.TID 0000.0001) %MON vort_r_min                   =   0.0000000000000E+00
(PID.TID 0000.0001) %MON vort_r_max                   =   0.0000000000000E+00
(PID.TID 0000.0001) %MON vort_a_mean                  =   0.0000000000000E+00
(PID.TID 0000.0001) %MON vort_a_sd                    =   0.0000000000000E+00
(PID.TID 0000.0001) %MON vort_p_mean                  =   0.0000000000000E+00
(PID.TID 0000.0001) %MON vort_p_sd                    =   0.0000000000000E+00
(PID.TID 0000.0001) %MON surfExpan_theta_mean         =  -9.3138661114360E-12
(PID.TID 0000.0001) %MON surfExpan_salt_mean          =  -9.7949012123637E-08
(PID.TID 0000.0001) // =======================================================
(PID.TID 0000.0001) // End MONITOR dynamic field statistics
(PID.TID 0000.0001) // =======================================================
 cg2d: Sum(rhs),rhsMax =   5.30246784379435E-04  4.34390299960992E-04
(PID.TID 0000.0001)                    cg2d_init_res =    1.10585353550589E-03
(PID.TID 0000.0001)                       cg2d_iters =   186
(PID.TID 0000.0001)                         cg2d_res =    8.32062254320216E-14
 cg3d: Sum(rhs),rhsMax =   1.20833898442640E-13  9.40879105454549E-06
(PID.TID 0000.0001)                    cg3d_init_res =    1.37396229478141E-02
(PID.TID 0000.0001)                       cg3d_iters =    20
(PID.TID 0000.0001)                         cg3d_res =    6.46783995040717E-05
(PID.TID 0000.0001) // =======================================================
(PID.TID 0000.0001) // Begin MONITOR dynamic field statistics
(PID.TID 0000.0001) // =======================================================
(PID.TID 0000.0001) %MON time_tsnumber                =                     6
(PID.TID 0000.0001) %MON time_secondsf                =   1.2000000000000E+02
(PID.TID 0000.0001) %MON dynstat_eta_max              =   2.3971483742571E-05
(PID.TID 0000.0001) %MON dynstat_eta_min              =  -1.9836381028005E-05
(PID.TID 0000.0001) %MON dynstat_eta_mean             =  -1.8760419508777E-07
(PID.TID 0000.0001) %MON dynstat_eta_sd               =   7.6550842153399E-06
(PID.TID 0000.0001) %MON dynstat_eta_del2             =   3.0567827810168E-06
(PID.TID 0000.0001) %MON dynstat_uvel_max             =   5.9259832566369E-04
(PID.TID 0000.0001) %MON dynstat_uvel_min             =  -6.1511563924442E-04
(PID.TID 0000.0001) %MON dynstat_uvel_mean            =   1.7991860104133E-07
(PID.TID 0000.0001) %MON dynstat_uvel_sd              =   1.2705158745146E-04
(PID.TID 0000.0001) %MON dynstat_uvel_del2            =   7.6492746554784E-05
(PID.TID 0000.0001) %MON dynstat_vvel_max             =   0.0000000000000E+00
(PID.TID 0000.0001) %MON dynstat_vvel_min             =   0.0000000000000E+00
(PID.TID 0000.0001) %MON dynstat_vvel_mean            =   0.0000000000000E+00
(PID.TID 0000.0001) %MON dynstat_vvel_sd              =   0.0000000000000E+00
(PID.TID 0000.0001) %MON dynstat_vvel_del2            =   0.0000000000000E+00
(PID.TID 0000.0001) %MON dynstat_wvel_max             =   5.3077022429948E-04
(PID.TID 0000.0001) %MON dynstat_wvel_min             =  -5.6772235797067E-04
(PID.TID 0000.0001) %MON dynstat_wvel_mean            =  -1.9719594364987E-09
(PID.TID 0000.0001) %MON dynstat_wvel_sd              =   1.2246086281176E-04
(PID.TID 0000.0001) %MON dynstat_wvel_del2            =   7.5406466032548E-05
(PID.TID 0000.0001) %MON dynstat_theta_max            =   9.9978269053481E-03
(PID.TID 0000.0001) %MON dynstat_theta_min            =  -1.4388863131045E-03
(PID.TID 0000.0001) %MON dynstat_theta_mean           =   5.0629645270411E-03
(PID.TID 0000.0001) %MON dynstat_theta_sd             =   2.8799313790656E-03
(PID.TID 0000.0001) %MON dynstat_theta_del2           =   1.4443151603685E-03
(PID.TID 0000.0001) %MON dynstat_salt_max             =   3.5000000000000E+01
(PID.TID 0000.0001) %MON dynstat_salt_min             =   3.5000000000000E+01
(PID.TID 0000.0001) %MON dynstat_salt_mean            =   3.5000000000000E+01
(PID.TID 0000.0001) %MON dynstat_salt_sd              =   6.3948846218409E-14
(PID.TID 0000.0001) %MON dynstat_salt_del2            =   0.0000000000000E+00
(PID.TID 0000.0001) %MON advcfl_uvel_max              =   9.2261291356560E-04
(PID.TID 0000.0001) %MON advcfl_vvel_max              =   0.0000000000000E+00
(PID.TID 0000.0001) %MON advcfl_wvel_max              =   3.4063341478240E-03
(PID.TID 0000.0001) %MON advcfl_W_hf_max              =   3.4063341478240E-03
(PID.TID 0000.0001) %MON pe_b_mean                    =   1.8196672444445E-12
(PID.TID 0000.0001) %MON ke_max                       =   1.1651003818479E-07
(PID.TID 0000.0001) %MON ke_mean                      =   8.0287175560712E-09
(PID.TID 0000.0001) %MON ke_vol                       =   2.0260852940582E+08
(PID.TID 0000.0001) %MON vort_r_min                   =   0.0000000000000E+00
(PID.TID 0000.0001) %MON vort_r_max                   =   0.0000000000000E+00
(PID.TID 0000.0001) %MON vort_a_mean                  =   0.0000000000000E+00
(PID.TID 0000.0001) %MON vort_a_sd                    =   0.0000000000000E+00
(PID.TID 0000.0001) %MON vort_p_mean                  =   0.0000000000000E+00
(PID.TID 0000.0001) %MON vort_p_sd                    =   0.0000000000000E+00
(PID.TID 0000.0001) %MON surfExpan_theta_mean         =  -1.8661917112069E-11
(PID.TID 0000.0001) %MON surfExpan_salt_mean          =  -1.7791860070755E-07
(PID.TID 0000.0001) // =======================================================
(PID.TID 0000.0001) // End MONITOR dynamic field statistics
(PID.TID 0000.0001) // =======================================================
 cg2d: Sum(rhs),rhsMax =   9.83820138588026E-04  4.34322984410425E-04
(PID.TID 0000.0001)                    cg2d_init_res =    1.34086219225953E-03
(PID.TID 0000.0001)                       cg2d_iters =   186
(PID.TID 0000.0001)                         cg2d_res =    9.99872175067082E-14
 cg3d: Sum(rhs),rhsMax =  -2.54379850517239E-14  9.40260035703226E-06
(PID.TID 0000.0001)                    cg3d_init_res =    1.56816001186732E-02
(PID.TID 0000.0001)                       cg3d_iters =    20
(PID.TID 0000.0001)                         cg3d_res =    3.03180150031213E-05
(PID.TID 0000.0001) // =======================================================
(PID.TID 0000.0001) // Begin MONITOR dynamic field statistics
(PID.TID 0000.0001) // =======================================================
(PID.TID 0000.0001) %MON time_tsnumber                =                     7
(PID.TID 0000.0001) %MON time_secondsf                =   1.4000000000000E+02
(PID.TID 0000.0001) %MON dynstat_eta_max              =   2.3973211261166E-05
(PID.TID 0000.0001) %MON dynstat_eta_min              =  -1.9985349241358E-05
(PID.TID 0000.0001) %MON dynstat_eta_mean             =  -3.4802697316812E-07
(PID.TID 0000.0001) %MON dynstat_eta_sd               =   7.6628496773926E-06
(PID.TID 0000.0001) %MON dynstat_eta_del2             =   3.0567603691062E-06
(PID.TID 0000.0001) %MON dynstat_uvel_max             =   6.9014841007630E-04
(PID.TID 0000.0001) %MON dynstat_uvel_min             =  -7.1345000164065E-04
(PID.TID 0000.0001) %MON dynstat_uvel_mean            =   1.8530338240949E-07
(PID.TID 0000.0001) %MON dynstat_uvel_sd              =   1.4804023837559E-04
(PID.TID 0000.0001) %MON dynstat_uvel_del2            =   8.9068398522488E-05
(PID.TID 0000.0001) %MON dynstat_vvel_max             =   0.0000000000000E+00
(PID.TID 0000.0001) %MON dynstat_vvel_min             =   0.0000000000000E+00
(PID.TID 0000.0001) %MON dynstat_vvel_mean            =   0.0000000000000E+00
(PID.TID 0000.0001) %MON dynstat_vvel_sd              =   0.0000000000000E+00
(PID.TID 0000.0001) %MON dynstat_vvel_del2            =   0.0000000000000E+00
(PID.TID 0000.0001) %MON dynstat_wvel_max             =   6.1837873909907E-04
(PID.TID 0000.0001) %MON dynstat_wvel_min             =  -6.6148963898699E-04
(PID.TID 0000.0001) %MON dynstat_wvel_mean            =  -3.0856412288173E-09
(PID.TID 0000.0001) %MON dynstat_wvel_sd              =   1.4272419457490E-04
(PID.TID 0000.0001) %MON dynstat_wvel_del2            =   8.7846934740714E-05
(PID.TID 0000.0001) %MON dynstat_theta_max            =   9.9977431433471E-03
(PID.TID 0000.0001) %MON dynstat_theta_min            =  -1.7232543715116E-03
(PID.TID 0000.0001) %MON dynstat_theta_mean           =   5.0622920087834E-03
(PID.TID 0000.0001) %MON dynstat_theta_sd             =   2.8789489701991E-03
(PID.TID 0000.0001) %MON dynstat_theta_del2           =   1.4434312875846E-03
(PID.TID 0000.0001) %MON dynstat_salt_max             =   3.5000000000000E+01
(PID.TID 0000.0001) %MON dynstat_salt_min             =   3.5000000000000E+01
(PID.TID 0000.0001) %MON dynstat_salt_mean            =   3.5000000000000E+01
(PID.TID 0000.0001) %MON dynstat_salt_sd              =   6.3948846218409E-14
(PID.TID 0000.0001) %MON dynstat_salt_del2            =   0.0000000000000E+00
(PID.TID 0000.0001) %MON advcfl_uvel_max              =   1.0701047781936E-03
(PID.TID 0000.0001) %MON advcfl_vvel_max              =   0.0000000000000E+00
(PID.TID 0000.0001) %MON advcfl_wvel_max              =   3.9689378339220E-03
(PID.TID 0000.0001) %MON advcfl_W_hf_max              =   3.9689378339220E-03
(PID.TID 0000.0001) %MON pe_b_mean                    =   1.8260253419025E-12
(PID.TID 0000.0001) %MON ke_max                       =   1.5659944387337E-07
(PID.TID 0000.0001) %MON ke_mean                      =   1.0900473151785E-08
(PID.TID 0000.0001) %MON ke_vol                       =   2.0260852940582E+08
(PID.TID 0000.0001) %MON vort_r_min                   =   0.0000000000000E+00
(PID.TID 0000.0001) %MON vort_r_max                   =   0.0000000000000E+00
(PID.TID 0000.0001) %MON vort_a_mean                  =   0.0000000000000E+00
(PID.TID 0000.0001) %MON vort_a_sd                    =   0.0000000000000E+00
(PID.TID 0000.0001) %MON vort_p_mean                  =   0.0000000000000E+00
(PID.TID 0000.0001) %MON vort_p_sd                    =   0.0000000000000E+00
(PID.TID 0000.0001) %MON surfExpan_theta_mean         =  -3.2556149158631E-11
(PID.TID 0000.0001) %MON surfExpan_salt_mean          =  -2.8342487665511E-07
(PID.TID 0000.0001) // =======================================================
(PID.TID 0000.0001) // End MONITOR dynamic field statistics
(PID.TID 0000.0001) // =======================================================
 cg2d: Sum(rhs),rhsMax =   1.64778564328058E-03  4.34243733759249E-04
(PID.TID 0000.0001)                    cg2d_init_res =    1.57585281483506E-03
(PID.TID 0000.0001)                       cg2d_iters =   187
(PID.TID 0000.0001)                         cg2d_res =    7.33478735699991E-14
 cg3d: Sum(rhs),rhsMax =   3.88022947106492E-14  9.39534379728119E-06
(PID.TID 0000.0001)                    cg3d_init_res =    1.76907821534190E-02
(PID.TID 0000.0001)                       cg3d_iters =    20
(PID.TID 0000.0001)                         cg3d_res =    2.89433936648566E-05
(PID.TID 0000.0001) // =======================================================
(PID.TID 0000.0001) // Begin MONITOR dynamic field statistics
(PID.TID 0000.0001) // =======================================================
(PID.TID 0000.0001) %MON time_tsnumber                =                     8
(PID.TID 0000.0001) %MON time_secondsf                =   1.6000000000000E+02
(PID.TID 0000.0001) %MON dynstat_eta_max              =   2.3877234272634E-05
(PID.TID 0000.0001) %MON dynstat_eta_min              =  -2.0290543352134E-05
(PID.TID 0000.0001) %MON dynstat_eta_mean             =  -5.8279881245218E-07
(PID.TID 0000.0001) %MON dynstat_eta_sd               =   7.6566575366824E-06
(PID.TID 0000.0001) %MON dynstat_eta_del2             =   3.0569619711586E-06
(PID.TID 0000.0001) %MON dynstat_uvel_max             =   7.8737266970012E-04
(PID.TID 0000.0001) %MON dynstat_uvel_min             =  -8.1064999512601E-04
(PID.TID 0000.0001) %MON dynstat_uvel_mean            =   2.0617036144227E-07
(PID.TID 0000.0001) %MON dynstat_uvel_sd              =   1.6897596370220E-04
(PID.TID 0000.0001) %MON dynstat_uvel_del2            =   1.0159527851284E-04
(PID.TID 0000.0001) %MON dynstat_vvel_max             =   0.0000000000000E+00
(PID.TID 0000.0001) %MON dynstat_vvel_min             =   0.0000000000000E+00
(PID.TID 0000.0001) %MON dynstat_vvel_mean            =   0.0000000000000E+00
(PID.TID 0000.0001) %MON dynstat_vvel_sd              =   0.0000000000000E+00
(PID.TID 0000.0001) %MON dynstat_vvel_del2            =   0.0000000000000E+00
(PID.TID 0000.0001) %MON dynstat_wvel_max             =   7.0572772739758E-04
(PID.TID 0000.0001) %MON dynstat_wvel_min             =  -7.5501594909634E-04
(PID.TID 0000.0001) %MON dynstat_wvel_mean            =  -4.4233098069769E-09
(PID.TID 0000.0001) %MON dynstat_wvel_sd              =   1.6294567562493E-04
(PID.TID 0000.0001) %MON dynstat_wvel_del2            =   1.0025128318829E-04
(PID.TID 0000.0001) %MON dynstat_theta_max            =   9.9976453620240E-03
(PID.TID 0000.0001) %MON dynstat_theta_min            =  -2.0066770739051E-03
(PID.TID 0000.0001) %MON dynstat_theta_mean           =   5.0616194391288E-03
(PID.TID 0000.0001) %MON dynstat_theta_sd             =   2.8778024154406E-03
(PID.TID 0000.0001) %MON dynstat_theta_del2           =   1.4424028910716E-03
(PID.TID 0000.0001) %MON dynstat_salt_max             =   3.5000000000000E+01
(PID.TID 0000.0001) %MON dynstat_salt_min             =   3.5000000000000E+01
(PID.TID 0000.0001) %MON dynstat_salt_mean            =   3.5000000000000E+01
(PID.TID 0000.0001) %MON dynstat_salt_sd              =   6.3948846218409E-14
(PID.TID 0000.0001) %MON dynstat_salt_del2            =   0.0000000000000E+00
(PID.TID 0000.0001) %MON advcfl_uvel_max              =   1.2158952011103E-03
(PID.TID 0000.0001) %MON advcfl_vvel_max              =   0.0000000000000E+00
(PID.TID 0000.0001) %MON advcfl_wvel_max              =   4.5300956945781E-03
(PID.TID 0000.0001) %MON advcfl_W_hf_max              =   4.5300956945781E-03
(PID.TID 0000.0001) %MON pe_b_mean                    =   1.8298632946919E-12
(PID.TID 0000.0001) %MON ke_max                       =   2.0199462938378E-07
(PID.TID 0000.0001) %MON ke_mean                      =   1.4201546108408E-08
(PID.TID 0000.0001) %MON ke_vol                       =   2.0260852940582E+08
(PID.TID 0000.0001) %MON vort_r_min                   =   0.0000000000000E+00
(PID.TID 0000.0001) %MON vort_r_max                   =   0.0000000000000E+00
(PID.TID 0000.0001) %MON vort_a_mean                  =   0.0000000000000E+00
(PID.TID 0000.0001) %MON vort_a_sd                    =   0.0000000000000E+00
(PID.TID 0000.0001) %MON vort_p_mean                  =   0.0000000000000E+00
(PID.TID 0000.0001) %MON vort_p_sd                    =   0.0000000000000E+00
(PID.TID 0000.0001) %MON surfExpan_theta_mean         =  -5.1120241979164E-11
(PID.TID 0000.0001) %MON surfExpan_salt_mean          =  -4.1459904994778E-07
(PID.TID 0000.0001) // =======================================================
(PID.TID 0000.0001) // End MONITOR dynamic field statistics
(PID.TID 0000.0001) // =======================================================
 cg2d: Sum(rhs),rhsMax =   2.56333840421968E-03  4.34152320681240E-04
(PID.TID 0000.0001)                    cg2d_init_res =    1.81068836025771E-03
(PID.TID 0000.0001)                       cg2d_iters =   187
(PID.TID 0000.0001)                         cg2d_res =    8.29377900600835E-14
 cg3d: Sum(rhs),rhsMax =  -5.34156052722778E-14  9.38703057026678E-06
(PID.TID 0000.0001)                    cg3d_init_res =    1.97307875018844E-02
(PID.TID 0000.0001)                       cg3d_iters =    20
(PID.TID 0000.0001)                         cg3d_res =    3.77930981161177E-05
(PID.TID 0000.0001) // =======================================================
(PID.TID 0000.0001) // Begin MONITOR dynamic field statistics
(PID.TID 0000.0001) // =======================================================
(PID.TID 0000.0001) %MON time_tsnumber                =                     9
(PID.TID 0000.0001) %MON time_secondsf                =   1.8000000000000E+02
(PID.TID 0000.0001) %MON dynstat_eta_max              =   2.3639052861367E-05
(PID.TID 0000.0001) %MON dynstat_eta_min              =  -2.0747938911294E-05
(PID.TID 0000.0001) %MON dynstat_eta_mean             =  -9.0642620864546E-07
(PID.TID 0000.0001) %MON dynstat_eta_sd               =   7.6376224170165E-06
(PID.TID 0000.0001) %MON dynstat_eta_del2             =   3.0573456996023E-06
(PID.TID 0000.0001) %MON dynstat_uvel_max             =   8.8428573182300E-04
(PID.TID 0000.0001) %MON dynstat_uvel_min             =  -9.0670163440000E-04
(PID.TID 0000.0001) %MON dynstat_uvel_mean            =   2.4869939136390E-07
(PID.TID 0000.0001) %MON dynstat_uvel_sd              =   1.8985845353162E-04
(PID.TID 0000.0001) %MON dynstat_uvel_del2            =   1.1407316241870E-04
(PID.TID 0000.0001) %MON dynstat_vvel_max             =   0.0000000000000E+00
(PID.TID 0000.0001) %MON dynstat_vvel_min             =   0.0000000000000E+00
(PID.TID 0000.0001) %MON dynstat_vvel_mean            =   0.0000000000000E+00
(PID.TID 0000.0001) %MON dynstat_vvel_sd              =   0.0000000000000E+00
(PID.TID 0000.0001) %MON dynstat_vvel_del2            =   0.0000000000000E+00
(PID.TID 0000.0001) %MON dynstat_wvel_max             =   7.9281141813023E-04
(PID.TID 0000.0001) %MON dynstat_wvel_min             =  -8.4829831078134E-04
(PID.TID 0000.0001) %MON dynstat_wvel_mean            =  -5.9683435586876E-09
(PID.TID 0000.0001) %MON dynstat_wvel_sd              =   1.8312497392174E-04
(PID.TID 0000.0001) %MON dynstat_wvel_del2            =   1.1261923854327E-04
(PID.TID 0000.0001) %MON dynstat_theta_max            =   9.9975337015887E-03
(PID.TID 0000.0001) %MON dynstat_theta_min            =  -2.2891604179773E-03
(PID.TID 0000.0001) %MON dynstat_theta_mean           =   5.0609468101120E-03
(PID.TID 0000.0001) %MON dynstat_theta_sd             =   2.8764939084976E-03
(PID.TID 0000.0001) %MON dynstat_theta_del2           =   1.4412334519722E-03
(PID.TID 0000.0001) %MON dynstat_salt_max             =   3.5000000000000E+01
(PID.TID 0000.0001) %MON dynstat_salt_min             =   3.5000000000000E+01
(PID.TID 0000.0001) %MON dynstat_salt_mean            =   3.5000000000000E+01
(PID.TID 0000.0001) %MON dynstat_salt_sd              =   6.3948846218409E-14
(PID.TID 0000.0001) %MON dynstat_salt_del2            =   0.0000000000000E+00
(PID.TID 0000.0001) %MON advcfl_uvel_max              =   1.3599632057413E-03
(PID.TID 0000.0001) %MON advcfl_vvel_max              =   0.0000000000000E+00
(PID.TID 0000.0001) %MON advcfl_wvel_max              =   5.0897898646880E-03
(PID.TID 0000.0001) %MON advcfl_W_hf_max              =   5.0897898646880E-03
(PID.TID 0000.0001) %MON pe_b_mean                    =   1.8357852869321E-12
(PID.TID 0000.0001) %MON ke_max                       =   2.5247670130674E-07
(PID.TID 0000.0001) %MON ke_mean                      =   1.7928573706910E-08
(PID.TID 0000.0001) %MON ke_vol                       =   2.0260852940582E+08
(PID.TID 0000.0001) %MON vort_r_min                   =   0.0000000000000E+00
(PID.TID 0000.0001) %MON vort_r_max                   =   0.0000000000000E+00
(PID.TID 0000.0001) %MON vort_a_mean                  =   0.0000000000000E+00
(PID.TID 0000.0001) %MON vort_a_sd                    =   0.0000000000000E+00
(PID.TID 0000.0001) %MON vort_p_mean                  =   0.0000000000000E+00
(PID.TID 0000.0001) %MON vort_p_sd                    =   0.0000000000000E+00
(PID.TID 0000.0001) %MON surfExpan_theta_mean         =  -7.3959024734085E-11
(PID.TID 0000.0001) %MON surfExpan_salt_mean          =  -5.7128198322981E-07
(PID.TID 0000.0001) // =======================================================
(PID.TID 0000.0001) // End MONITOR dynamic field statistics
(PID.TID 0000.0001) // =======================================================
 cg2d: Sum(rhs),rhsMax =   3.77130400672188E-03  4.34048585469637E-04
(PID.TID 0000.0001)                    cg2d_init_res =    2.04431293069879E-03
(PID.TID 0000.0001)                       cg2d_iters =   187
(PID.TID 0000.0001)                         cg2d_res =    9.17214584170116E-14
 cg3d: Sum(rhs),rhsMax =  -1.03944630680530E-13  9.37766987566849E-06
(PID.TID 0000.0001)                    cg3d_init_res =    2.17832978158572E-02
(PID.TID 0000.0001)                       cg3d_iters =    20
(PID.TID 0000.0001)                         cg3d_res =    4.89638828694398E-05
(PID.TID 0000.0001) // =======================================================
(PID.TID 0000.0001) // Begin MONITOR dynamic field statistics
(PID.TID 0000.0001) // =======================================================
(PID.TID 0000.0001) %MON time_tsnumber                =                    10
(PID.TID 0000.0001) %MON time_secondsf                =   2.0000000000000E+02
(PID.TID 0000.0001) %MON dynstat_eta_max              =   2.3239930428175E-05
(PID.TID 0000.0001) %MON dynstat_eta_min              =  -2.1359004404636E-05
(PID.TID 0000.0001) %MON dynstat_eta_mean             =  -1.3332582234351E-06
(PID.TID 0000.0001) %MON dynstat_eta_sd               =   7.6108359407427E-06
(PID.TID 0000.0001) %MON dynstat_eta_del2             =   3.0578757594916E-06
(PID.TID 0000.0001) %MON dynstat_uvel_max             =   9.8090118313331E-04
(PID.TID 0000.0001) %MON dynstat_uvel_min             =  -1.0015960635697E-03
(PID.TID 0000.0001) %MON dynstat_uvel_mean            =   3.1681279819757E-07
(PID.TID 0000.0001) %MON dynstat_uvel_sd              =   2.1068739388765E-04
(PID.TID 0000.0001) %MON dynstat_uvel_del2            =   1.2650193673512E-04
(PID.TID 0000.0001) %MON dynstat_vvel_max             =   0.0000000000000E+00
(PID.TID 0000.0001) %MON dynstat_vvel_min             =   0.0000000000000E+00
(PID.TID 0000.0001) %MON dynstat_vvel_mean            =   0.0000000000000E+00
(PID.TID 0000.0001) %MON dynstat_vvel_sd              =   0.0000000000000E+00
(PID.TID 0000.0001) %MON dynstat_vvel_del2            =   0.0000000000000E+00
(PID.TID 0000.0001) %MON dynstat_wvel_max             =   8.7962435893267E-04
(PID.TID 0000.0001) %MON dynstat_wvel_min             =  -9.4133363829943E-04
(PID.TID 0000.0001) %MON dynstat_wvel_mean            =  -7.7057337122227E-09
(PID.TID 0000.0001) %MON dynstat_wvel_sd              =   2.0326177156430E-04
(PID.TID 0000.0001) %MON dynstat_wvel_del2            =   1.2495053722038E-04
(PID.TID 0000.0001) %MON dynstat_theta_max            =   9.9974083189477E-03
(PID.TID 0000.0001) %MON dynstat_theta_min            =  -2.5707107639616E-03
(PID.TID 0000.0001) %MON dynstat_theta_mean           =   5.0602741138196E-03
(PID.TID 0000.0001) %MON dynstat_theta_sd             =   2.8750255206579E-03
(PID.TID 0000.0001) %MON dynstat_theta_del2           =   1.4399229922977E-03
(PID.TID 0000.0001) %MON dynstat_salt_max             =   3.5000000000000E+01
(PID.TID 0000.0001) %MON dynstat_salt_min             =   3.5000000000000E+01
(PID.TID 0000.0001) %MON dynstat_salt_mean            =   3.5000000000000E+01
(PID.TID 0000.0001) %MON dynstat_salt_sd              =   6.3948846218409E-14
(PID.TID 0000.0001) %MON dynstat_salt_del2            =   0.0000000000000E+00
(PID.TID 0000.0001) %MON advcfl_uvel_max              =   1.5022955091193E-03
(PID.TID 0000.0001) %MON advcfl_vvel_max              =   0.0000000000000E+00
(PID.TID 0000.0001) %MON advcfl_wvel_max              =   5.6480018297966E-03
(PID.TID 0000.0001) %MON advcfl_W_hf_max              =   5.6480018297966E-03
(PID.TID 0000.0001) %MON pe_b_mean                    =   1.8527766619271E-12
(PID.TID 0000.0001) %MON ke_max                       =   3.0783084847796E-07
(PID.TID 0000.0001) %MON ke_mean                      =   2.2078176552321E-08
(PID.TID 0000.0001) %MON ke_vol                       =   2.0260852940582E+08
(PID.TID 0000.0001) %MON vort_r_min                   =   0.0000000000000E+00
(PID.TID 0000.0001) %MON vort_r_max                   =   0.0000000000000E+00
(PID.TID 0000.0001) %MON vort_a_mean                  =   0.0000000000000E+00
(PID.TID 0000.0001) %MON vort_a_sd                    =   0.0000000000000E+00
(PID.TID 0000.0001) %MON vort_p_mean                  =   0.0000000000000E+00
(PID.TID 0000.0001) %MON vort_p_sd                    =   0.0000000000000E+00
(PID.TID 0000.0001) %MON surfExpan_theta_mean         =  -1.0033817383780E-10
(PID.TID 0000.0001) %MON surfExpan_salt_mean          =  -7.5312705468556E-07
(PID.TID 0000.0001) // =======================================================
(PID.TID 0000.0001) // End MONITOR dynamic field statistics
(PID.TID 0000.0001) // =======================================================
 cg2d: Sum(rhs),rhsMax =   5.31187588113174E-03  4.33932476116544E-04
(PID.TID 0000.0001)                    cg2d_init_res =    2.28002839970550E-03
(PID.TID 0000.0001)                       cg2d_iters =   188
(PID.TID 0000.0001)                         cg2d_res =    4.79616230002098E-14
 cg3d: Sum(rhs),rhsMax =   8.61810622865278E-15  9.36727209009666E-06
(PID.TID 0000.0001)                    cg3d_init_res =    2.38565273711296E-02
(PID.TID 0000.0001)                       cg3d_iters =    20
(PID.TID 0000.0001)                         cg3d_res =    6.24329629371742E-05
(PID.TID 0000.0001) // =======================================================
(PID.TID 0000.0001) // Begin MONITOR dynamic field statistics
(PID.TID 0000.0001) // =======================================================
(PID.TID 0000.0001) %MON time_tsnumber                =                    11
(PID.TID 0000.0001) %MON time_secondsf                =   2.2000000000000E+02
(PID.TID 0000.0001) %MON dynstat_eta_max              =   2.2678402065125E-05
(PID.TID 0000.0001) %MON dynstat_eta_min              =  -2.2122316352372E-05
(PID.TID 0000.0001) %MON dynstat_eta_mean             =  -1.8773898108704E-06
(PID.TID 0000.0001) %MON dynstat_eta_sd               =   7.5837093597508E-06
(PID.TID 0000.0001) %MON dynstat_eta_del2             =   3.0585332449645E-06
(PID.TID 0000.0001) %MON dynstat_uvel_max             =   1.0772285149809E-03
(PID.TID 0000.0001) %MON dynstat_uvel_min             =  -1.0953304136049E-03
(PID.TID 0000.0001) %MON dynstat_uvel_mean            =   4.1258391833657E-07
(PID.TID 0000.0001) %MON dynstat_uvel_sd              =   2.3146246510299E-04
(PID.TID 0000.0001) %MON dynstat_uvel_del2            =   1.3888134903931E-04
(PID.TID 0000.0001) %MON dynstat_vvel_max             =   0.0000000000000E+00
(PID.TID 0000.0001) %MON dynstat_vvel_min             =   0.0000000000000E+00
(PID.TID 0000.0001) %MON dynstat_vvel_mean            =   0.0000000000000E+00
(PID.TID 0000.0001) %MON dynstat_vvel_sd              =   0.0000000000000E+00
(PID.TID 0000.0001) %MON dynstat_vvel_del2            =   0.0000000000000E+00
(PID.TID 0000.0001) %MON dynstat_wvel_max             =   9.6616088523921E-04
(PID.TID 0000.0001) %MON dynstat_wvel_min             =  -1.0341190705348E-03
(PID.TID 0000.0001) %MON dynstat_wvel_mean            =  -9.6229305915971E-09
(PID.TID 0000.0001) %MON dynstat_wvel_sd              =   2.2335574824617E-04
(PID.TID 0000.0001) %MON dynstat_wvel_del2            =   1.3724493557738E-04
(PID.TID 0000.0001) %MON dynstat_theta_max            =   9.9972693816264E-03
(PID.TID 0000.0001) %MON dynstat_theta_min            =  -2.8513347684939E-03
(PID.TID 0000.0001) %MON dynstat_theta_mean           =   5.0596013423440E-03
(PID.TID 0000.0001) %MON dynstat_theta_sd             =   2.8733987830553E-03
(PID.TID 0000.0001) %MON dynstat_theta_del2           =   1.4384714608633E-03
(PID.TID 0000.0001) %MON dynstat_salt_max             =   3.5000000000000E+01
(PID.TID 0000.0001) %MON dynstat_salt_min             =   3.5000000000000E+01
(PID.TID 0000.0001) %MON dynstat_salt_mean            =   3.5000000000000E+01
(PID.TID 0000.0001) %MON dynstat_salt_sd              =   6.3948846218409E-14
(PID.TID 0000.0001) %MON dynstat_salt_del2            =   0.0000000000000E+00
(PID.TID 0000.0001) %MON advcfl_uvel_max              =   1.6428878079810E-03
(PID.TID 0000.0001) %MON advcfl_vvel_max              =   0.0000000000000E+00
(PID.TID 0000.0001) %MON advcfl_wvel_max              =   6.2047144232089E-03
(PID.TID 0000.0001) %MON advcfl_W_hf_max              =   6.2047144232089E-03
(PID.TID 0000.0001) %MON pe_b_mean                    =   1.8942014354713E-12
(PID.TID 0000.0001) %MON ke_max                       =   3.6784723310869E-07
(PID.TID 0000.0001) %MON ke_mean                      =   2.6646958513067E-08
(PID.TID 0000.0001) %MON ke_vol                       =   2.0260852940582E+08
(PID.TID 0000.0001) %MON vort_r_min                   =   0.0000000000000E+00
(PID.TID 0000.0001) %MON vort_r_max                   =   0.0000000000000E+00
(PID.TID 0000.0001) %MON vort_a_mean                  =   0.0000000000000E+00
(PID.TID 0000.0001) %MON vort_a_sd                    =   0.0000000000000E+00
(PID.TID 0000.0001) %MON vort_p_mean                  =   0.0000000000000E+00
(PID.TID 0000.0001) %MON vort_p_sd                    =   0.0000000000000E+00
(PID.TID 0000.0001) %MON surfExpan_theta_mean         =  -1.2938450901428E-10
(PID.TID 0000.0001) %MON surfExpan_salt_mean          =  -9.5966351879436E-07
(PID.TID 0000.0001) // =======================================================
(PID.TID 0000.0001) // End MONITOR dynamic field statistics
(PID.TID 0000.0001) // =======================================================
 cg2d: Sum(rhs),rhsMax =   7.22240134245963E-03  4.33804740196142E-04
(PID.TID 0000.0001)                    cg2d_init_res =    2.51240440901663E-03
(PID.TID 0000.0001)                       cg2d_iters =   188
(PID.TID 0000.0001)                         cg2d_res =    5.12881290977680E-14
 cg3d: Sum(rhs),rhsMax =  -9.57567358739198E-14  9.35584846100712E-06
(PID.TID 0000.0001)                    cg3d_init_res =    2.59275329087961E-02
(PID.TID 0000.0001)                       cg3d_iters =    20
(PID.TID 0000.0001)                         cg3d_res =    7.75645948245750E-05
(PID.TID 0000.0001) // =======================================================
(PID.TID 0000.0001) // Begin MONITOR dynamic field statistics
(PID.TID 0000.0001) // =======================================================
(PID.TID 0000.0001) %MON time_tsnumber                =                    12
(PID.TID 0000.0001) %MON time_secondsf                =   2.4000000000000E+02
(PID.TID 0000.0001) %MON dynstat_eta_max              =   2.1961528312759E-05
(PID.TID 0000.0001) %MON dynstat_eta_min              =  -2.3031886194317E-05
(PID.TID 0000.0001) %MON dynstat_eta_mean             =  -2.5518802731807E-06
(PID.TID 0000.0001) %MON dynstat_eta_sd               =   7.5632009612985E-06
(PID.TID 0000.0001) %MON dynstat_eta_del2             =   3.0593086494316E-06
(PID.TID 0000.0001) %MON dynstat_uvel_max             =   1.1732721716267E-03
(PID.TID 0000.0001) %MON dynstat_uvel_min             =  -1.1879091521099E-03
(PID.TID 0000.0001) %MON dynstat_uvel_mean            =   5.3639637364472E-07
(PID.TID 0000.0001) %MON dynstat_uvel_sd              =   2.5218334701144E-04
(PID.TID 0000.0001) %MON dynstat_uvel_del2            =   1.5121135272142E-04
(PID.TID 0000.0001) %MON dynstat_vvel_max             =   0.0000000000000E+00
(PID.TID 0000.0001) %MON dynstat_vvel_min             =   0.0000000000000E+00
(PID.TID 0000.0001) %MON dynstat_vvel_mean            =   0.0000000000000E+00
(PID.TID 0000.0001) %MON dynstat_vvel_sd              =   0.0000000000000E+00
(PID.TID 0000.0001) %MON dynstat_vvel_del2            =   0.0000000000000E+00
(PID.TID 0000.0001) %MON dynstat_wvel_max             =   1.0524150425262E-03
(PID.TID 0000.0001) %MON dynstat_wvel_min             =  -1.1266519942738E-03
(PID.TID 0000.0001) %MON dynstat_wvel_mean            =  -1.1709824852569E-08
(PID.TID 0000.0001) %MON dynstat_wvel_sd              =   2.4340659197957E-04
(PID.TID 0000.0001) %MON dynstat_wvel_del2            =   1.4950218703084E-04
(PID.TID 0000.0001) %MON dynstat_theta_max            =   9.9971170675351E-03
(PID.TID 0000.0001) %MON dynstat_theta_min            =  -3.1310393066320E-03
(PID.TID 0000.0001) %MON dynstat_theta_mean           =   5.0589284877611E-03
(PID.TID 0000.0001) %MON dynstat_theta_sd             =   2.8716156540437E-03
(PID.TID 0000.0001) %MON dynstat_theta_del2           =   1.4368813886424E-03
(PID.TID 0000.0001) %MON dynstat_salt_max             =   3.5000000000000E+01
(PID.TID 0000.0001) %MON dynstat_salt_min             =   3.5000000000000E+01
(PID.TID 0000.0001) %MON dynstat_salt_mean            =   3.5000000000000E+01
(PID.TID 0000.0001) %MON dynstat_salt_sd              =   6.3948846218409E-14
(PID.TID 0000.0001) %MON dynstat_salt_del2            =   0.0000000000000E+00
(PID.TID 0000.0001) %MON advcfl_uvel_max              =   1.7817468032932E-03
(PID.TID 0000.0001) %MON advcfl_vvel_max              =   0.0000000000000E+00
(PID.TID 0000.0001) %MON advcfl_wvel_max              =   6.7599119656429E-03
(PID.TID 0000.0001) %MON advcfl_W_hf_max              =   6.7599119656429E-03
(PID.TID 0000.0001) %MON pe_b_mean                    =   1.9772739168976E-12
(PID.TID 0000.0001) %MON ke_max                       =   4.3232217613145E-07
(PID.TID 0000.0001) %MON ke_mean                      =   3.1631507593254E-08
(PID.TID 0000.0001) %MON ke_vol                       =   2.0260852940582E+08
(PID.TID 0000.0001) %MON vort_r_min                   =   0.0000000000000E+00
(PID.TID 0000.0001) %MON vort_r_max                   =   0.0000000000000E+00
(PID.TID 0000.0001) %MON vort_a_mean                  =   0.0000000000000E+00
(PID.TID 0000.0001) %MON vort_a_sd                    =   0.0000000000000E+00
(PID.TID 0000.0001) %MON vort_p_mean                  =   0.0000000000000E+00
(PID.TID 0000.0001) %MON vort_p_sd                    =   0.0000000000000E+00
(PID.TID 0000.0001) %MON surfExpan_theta_mean         =  -1.6014172443503E-10
(PID.TID 0000.0001) %MON surfExpan_salt_mean          =  -1.1890604247630E-06
(PID.TID 0000.0001) // =======================================================
(PID.TID 0000.0001) // End MONITOR dynamic field statistics
(PID.TID 0000.0001) // =======================================================
 cg2d: Sum(rhs),rhsMax =   9.53748748933159E-03  4.33664406658236E-04
(PID.TID 0000.0001)                    cg2d_init_res =    2.75965948666063E-03
(PID.TID 0000.0001)                       cg2d_iters =   188
(PID.TID 0000.0001)                         cg2d_res =    5.41587396753108E-14
 cg3d: Sum(rhs),rhsMax =  -4.41868763800812E-14  9.34341050124928E-06
(PID.TID 0000.0001)                    cg3d_init_res =    2.80450931042815E-02
(PID.TID 0000.0001)                       cg3d_iters =    20
(PID.TID 0000.0001)                         cg3d_res =    9.56300814018117E-05
(PID.TID 0000.0001) // =======================================================
(PID.TID 0000.0001) // Begin MONITOR dynamic field statistics
(PID.TID 0000.0001) // =======================================================
(PID.TID 0000.0001) %MON time_tsnumber                =                    13
(PID.TID 0000.0001) %MON time_secondsf                =   2.6000000000000E+02
(PID.TID 0000.0001) %MON dynstat_eta_max              =   2.1097723853414E-05
(PID.TID 0000.0001) %MON dynstat_eta_min              =  -2.4079117971727E-05
(PID.TID 0000.0001) %MON dynstat_eta_mean             =  -3.3687760679075E-06
(PID.TID 0000.0001) %MON dynstat_eta_sd               =   7.5531849644962E-06
(PID.TID 0000.0001) %MON dynstat_eta_del2             =   3.0601910097526E-06
(PID.TID 0000.0001) %MON dynstat_uvel_max             =   1.2690319388339E-03
(PID.TID 0000.0001) %MON dynstat_uvel_min             =  -1.2793442498187E-03
(PID.TID 0000.0001) %MON dynstat_uvel_mean            =   6.8713197915567E-07
(PID.TID 0000.0001) %MON dynstat_uvel_sd              =   2.7284970840278E-04
(PID.TID 0000.0001) %MON dynstat_uvel_del2            =   1.6349175748896E-04
(PID.TID 0000.0001) %MON dynstat_vvel_max             =   0.0000000000000E+00
(PID.TID 0000.0001) %MON dynstat_vvel_min             =   0.0000000000000E+00
(PID.TID 0000.0001) %MON dynstat_vvel_mean            =   0.0000000000000E+00
(PID.TID 0000.0001) %MON dynstat_vvel_sd              =   0.0000000000000E+00
(PID.TID 0000.0001) %MON dynstat_vvel_del2            =   0.0000000000000E+00
(PID.TID 0000.0001) %MON dynstat_wvel_max             =   1.1383805819982E-03
(PID.TID 0000.0001) %MON dynstat_wvel_min             =  -1.2189259483344E-03
(PID.TID 0000.0001) %MON dynstat_wvel_mean            =  -1.3959074613304E-08
(PID.TID 0000.0001) %MON dynstat_wvel_sd              =   2.6341396263243E-04
(PID.TID 0000.0001) %MON dynstat_wvel_del2            =   1.6172203771562E-04
(PID.TID 0000.0001) %MON dynstat_theta_max            =   9.9969515654909E-03
(PID.TID 0000.0001) %MON dynstat_theta_min            =  -3.4098313781622E-03
(PID.TID 0000.0001) %MON dynstat_theta_mean           =   5.0582555421404E-03
(PID.TID 0000.0001) %MON dynstat_theta_sd             =   2.8696811784393E-03
(PID.TID 0000.0001) %MON dynstat_theta_del2           =   1.4351560732268E-03
(PID.TID 0000.0001) %MON dynstat_salt_max             =   3.5000000000000E+01
(PID.TID 0000.0001) %MON dynstat_salt_min             =   3.5000000000000E+01
(PID.TID 0000.0001) %MON dynstat_salt_mean            =   3.5000000000000E+01
(PID.TID 0000.0001) %MON dynstat_salt_sd              =   6.3948846218409E-14
(PID.TID 0000.0001) %MON dynstat_salt_del2            =   0.0000000000000E+00
(PID.TID 0000.0001) %MON advcfl_uvel_max              =   1.9188904499787E-03
(PID.TID 0000.0001) %MON advcfl_vvel_max              =   0.0000000000000E+00
(PID.TID 0000.0001) %MON advcfl_wvel_max              =   7.3135556900061E-03
(PID.TID 0000.0001) %MON advcfl_W_hf_max              =   7.3135556900061E-03
(PID.TID 0000.0001) %MON pe_b_mean                    =   2.1226708031350E-12
(PID.TID 0000.0001) %MON ke_max                       =   5.0105911645250E-07
(PID.TID 0000.0001) %MON ke_mean                      =   3.7028392617647E-08
(PID.TID 0000.0001) %MON ke_vol                       =   2.0260852940582E+08
(PID.TID 0000.0001) %MON vort_r_min                   =   0.0000000000000E+00
(PID.TID 0000.0001) %MON vort_r_max                   =   0.0000000000000E+00
(PID.TID 0000.0001) %MON vort_a_mean                  =   0.0000000000000E+00
(PID.TID 0000.0001) %MON vort_a_sd                    =   0.0000000000000E+00
(PID.TID 0000.0001) %MON vort_p_mean                  =   0.0000000000000E+00
(PID.TID 0000.0001) %MON vort_p_sd                    =   0.0000000000000E+00
(PID.TID 0000.0001) %MON surfExpan_theta_mean         =  -1.9191364362944E-10
(PID.TID 0000.0001) %MON surfExpan_salt_mean          =  -1.4395442644009E-06
(PID.TID 0000.0001) // =======================================================
(PID.TID 0000.0001) // End MONITOR dynamic field statistics
(PID.TID 0000.0001) // =======================================================
 cg2d: Sum(rhs),rhsMax =   1.22893976133752E-02  4.33511663786600E-04
(PID.TID 0000.0001)                    cg2d_init_res =    2.98301655660093E-03
(PID.TID 0000.0001)                       cg2d_iters =   188
(PID.TID 0000.0001)                         cg2d_res =    5.70753904472483E-14
 cg3d: Sum(rhs),rhsMax =  -2.26763052779688E-14  9.32996967606397E-06
(PID.TID 0000.0001)                    cg3d_init_res =    3.01012385003736E-02
(PID.TID 0000.0001)                       cg3d_iters =    20
(PID.TID 0000.0001)                         cg3d_res =    1.21579831580045E-04
(PID.TID 0000.0001) // =======================================================
(PID.TID 0000.0001) // Begin MONITOR dynamic field statistics
(PID.TID 0000.0001) // =======================================================
(PID.TID 0000.0001) %MON time_tsnumber                =                    14
(PID.TID 0000.0001) %MON time_secondsf                =   2.8000000000000E+02
(PID.TID 0000.0001) %MON dynstat_eta_max              =   2.0091713578222E-05
(PID.TID 0000.0001) %MON dynstat_eta_min              =  -2.5255826539765E-05
(PID.TID 0000.0001) %MON dynstat_eta_mean             =  -4.3392609276172E-06
(PID.TID 0000.0001) %MON dynstat_eta_sd               =   7.5537080447649E-06
(PID.TID 0000.0001) %MON dynstat_eta_del2             =   3.0611861435056E-06
(PID.TID 0000.0001) %MON dynstat_uvel_max             =   1.3645037405635E-03
(PID.TID 0000.0001) %MON dynstat_uvel_min             =  -1.3696548650347E-03
(PID.TID 0000.0001) %MON dynstat_uvel_mean            =   8.6228517559151E-07
(PID.TID 0000.0001) %MON dynstat_uvel_sd              =   2.9346124238013E-04
(PID.TID 0000.0001) %MON dynstat_uvel_del2            =   1.7572227802593E-04
(PID.TID 0000.0001) %MON dynstat_vvel_max             =   0.0000000000000E+00
(PID.TID 0000.0001) %MON dynstat_vvel_min             =   0.0000000000000E+00
(PID.TID 0000.0001) %MON dynstat_vvel_mean            =   0.0000000000000E+00
(PID.TID 0000.0001) %MON dynstat_vvel_sd              =   0.0000000000000E+00
(PID.TID 0000.0001) %MON dynstat_vvel_del2            =   0.0000000000000E+00
(PID.TID 0000.0001) %MON dynstat_wvel_max             =   1.2240510830425E-03
(PID.TID 0000.0001) %MON dynstat_wvel_min             =  -1.3109396870964E-03
(PID.TID 0000.0001) %MON dynstat_wvel_mean            =  -1.6365962441171E-08
(PID.TID 0000.0001) %MON dynstat_wvel_sd              =   2.8337755296535E-04
(PID.TID 0000.0001) %MON dynstat_wvel_del2            =   1.7390427787001E-04
(PID.TID 0000.0001) %MON dynstat_theta_max            =   9.9967730748024E-03
(PID.TID 0000.0001) %MON dynstat_theta_min            =  -3.6877180025014E-03
(PID.TID 0000.0001) %MON dynstat_theta_mean           =   5.0575824975652E-03
(PID.TID 0000.0001) %MON dynstat_theta_sd             =   2.8675978626610E-03
(PID.TID 0000.0001) %MON dynstat_theta_del2           =   1.4332934616570E-03
(PID.TID 0000.0001) %MON dynstat_salt_max             =   3.5000000000000E+01
(PID.TID 0000.0001) %MON dynstat_salt_min             =   3.5000000000000E+01
(PID.TID 0000.0001) %MON dynstat_salt_mean            =   3.5000000000000E+01
(PID.TID 0000.0001) %MON dynstat_salt_sd              =   6.3948846218409E-14
(PID.TID 0000.0001) %MON dynstat_salt_del2            =   0.0000000000000E+00
(PID.TID 0000.0001) %MON advcfl_uvel_max              =   2.0543474836068E-03
(PID.TID 0000.0001) %MON advcfl_vvel_max              =   0.0000000000000E+00
(PID.TID 0000.0001) %MON advcfl_wvel_max              =   7.8656381225785E-03
(PID.TID 0000.0001) %MON advcfl_W_hf_max              =   7.8656381225785E-03
(PID.TID 0000.0001) %MON pe_b_mean                    =   2.3550634358348E-12
(PID.TID 0000.0001) %MON ke_max                       =   5.7386935851887E-07
(PID.TID 0000.0001) %MON ke_mean                      =   4.2834171470113E-08
(PID.TID 0000.0001) %MON ke_vol                       =   2.0260852940582E+08
(PID.TID 0000.0001) %MON vort_r_min                   =   0.0000000000000E+00
(PID.TID 0000.0001) %MON vort_r_max                   =   0.0000000000000E+00
(PID.TID 0000.0001) %MON vort_a_mean                  =   0.0000000000000E+00
(PID.TID 0000.0001) %MON vort_a_sd                    =   0.0000000000000E+00
(PID.TID 0000.0001) %MON vort_p_mean                  =   0.0000000000000E+00
(PID.TID 0000.0001) %MON vort_p_sd                    =   0.0000000000000E+00
(PID.TID 0000.0001) %MON surfExpan_theta_mean         =  -2.2435413784625E-10
(PID.TID 0000.0001) %MON surfExpan_salt_mean          =  -1.7095873191181E-06
(PID.TID 0000.0001) // =======================================================
(PID.TID 0000.0001) // End MONITOR dynamic field statistics
(PID.TID 0000.0001) // =======================================================
 cg2d: Sum(rhs),rhsMax =   1.55086407594990E-02  4.33346440323128E-04
(PID.TID 0000.0001)                    cg2d_init_res =    3.21438916527720E-03
(PID.TID 0000.0001)                       cg2d_iters =   188
(PID.TID 0000.0001)                         cg2d_res =    6.06079792396233E-14
 cg3d: Sum(rhs),rhsMax =  -1.09773301559812E-14  9.31553760807843E-06
(PID.TID 0000.0001)                    cg3d_init_res =    3.21776171232359E-02
(PID.TID 0000.0001)                       cg3d_iters =    20
(PID.TID 0000.0001)                         cg3d_res =    1.64988127932690E-04
(PID.TID 0000.0001) // =======================================================
(PID.TID 0000.0001) // Begin MONITOR dynamic field statistics
(PID.TID 0000.0001) // =======================================================
(PID.TID 0000.0001) %MON time_tsnumber                =                    15
(PID.TID 0000.0001) %MON time_secondsf                =   3.0000000000000E+02
(PID.TID 0000.0001) %MON dynstat_eta_max              =   1.8942000317037E-05
(PID.TID 0000.0001) %MON dynstat_eta_min              =  -2.6556978313215E-05
(PID.TID 0000.0001) %MON dynstat_eta_mean             =  -5.4738558060447E-06
(PID.TID 0000.0001) %MON dynstat_eta_sd               =   7.5620773879450E-06
(PID.TID 0000.0001) %MON dynstat_eta_del2             =   3.0622979152568E-06
(PID.TID 0000.0001) %MON dynstat_uvel_max             =   1.4596810089836E-03
(PID.TID 0000.0001) %MON dynstat_uvel_min             =  -1.4588648725751E-03
(PID.TID 0000.0001) %MON dynstat_uvel_mean            =   1.0581253708892E-06
(PID.TID 0000.0001) %MON dynstat_uvel_sd              =   3.1401762745845E-04
(PID.TID 0000.0001) %MON dynstat_uvel_del2            =   1.8790267755814E-04
(PID.TID 0000.0001) %MON dynstat_vvel_max             =   0.0000000000000E+00
(PID.TID 0000.0001) %MON dynstat_vvel_min             =   0.0000000000000E+00
(PID.TID 0000.0001) %MON dynstat_vvel_mean            =   0.0000000000000E+00
(PID.TID 0000.0001) %MON dynstat_vvel_sd              =   0.0000000000000E+00
(PID.TID 0000.0001) %MON dynstat_vvel_del2            =   0.0000000000000E+00
(PID.TID 0000.0001) %MON dynstat_wvel_max             =   1.3094199745156E-03
(PID.TID 0000.0001) %MON dynstat_wvel_min             =  -1.4026905539852E-03
(PID.TID 0000.0001) %MON dynstat_wvel_mean            =  -1.8928035800929E-08
(PID.TID 0000.0001) %MON dynstat_wvel_sd              =   3.0329704272763E-04
(PID.TID 0000.0001) %MON dynstat_wvel_del2            =   1.8604862801115E-04
(PID.TID 0000.0001) %MON dynstat_theta_max            =   9.9965818034077E-03
(PID.TID 0000.0001) %MON dynstat_theta_min            =  -3.9647061338979E-03
(PID.TID 0000.0001) %MON dynstat_theta_mean           =   5.0569093461596E-03
(PID.TID 0000.0001) %MON dynstat_theta_sd             =   2.8653682511797E-03
(PID.TID 0000.0001) %MON dynstat_theta_del2           =   1.4312976933047E-03
(PID.TID 0000.0001) %MON dynstat_salt_max             =   3.5000000000000E+01
(PID.TID 0000.0001) %MON dynstat_salt_min             =   3.5000000000000E+01
(PID.TID 0000.0001) %MON dynstat_salt_mean            =   3.5000000000000E+01
(PID.TID 0000.0001) %MON dynstat_salt_sd              =   6.3948846218409E-14
(PID.TID 0000.0001) %MON dynstat_salt_del2            =   0.0000000000000E+00
(PID.TID 0000.0001) %MON advcfl_uvel_max              =   2.1881537140534E-03
(PID.TID 0000.0001) %MON advcfl_vvel_max              =   0.0000000000000E+00
(PID.TID 0000.0001) %MON advcfl_wvel_max              =   8.4161433239114E-03
(PID.TID 0000.0001) %MON advcfl_W_hf_max              =   8.4161433239114E-03
(PID.TID 0000.0001) %MON pe_b_mean                    =   2.7045141304422E-12
(PID.TID 0000.0001) %MON ke_max                       =   6.5057189270665E-07
(PID.TID 0000.0001) %MON ke_mean                      =   4.9045380116194E-08
(PID.TID 0000.0001) %MON ke_vol                       =   2.0260852940582E+08
(PID.TID 0000.0001) %MON vort_r_min                   =   0.0000000000000E+00
(PID.TID 0000.0001) %MON vort_r_max                   =   0.0000000000000E+00
(PID.TID 0000.0001) %MON vort_a_mean                  =   0.0000000000000E+00
(PID.TID 0000.0001) %MON vort_a_sd                    =   0.0000000000000E+00
(PID.TID 0000.0001) %MON vort_p_mean                  =   0.0000000000000E+00
(PID.TID 0000.0001) %MON vort_p_sd                    =   0.0000000000000E+00
(PID.TID 0000.0001) %MON surfExpan_theta_mean         =  -2.5745197960449E-10
(PID.TID 0000.0001) %MON surfExpan_salt_mean          =  -1.9979182727755E-06
(PID.TID 0000.0001) // =======================================================
(PID.TID 0000.0001) // End MONITOR dynamic field statistics
(PID.TID 0000.0001) // =======================================================
 cg2d: Sum(rhs),rhsMax =   1.92249856117199E-02  4.33168635405659E-04
(PID.TID 0000.0001)                    cg2d_init_res =    3.46542448213118E-03
(PID.TID 0000.0001)                       cg2d_iters =   188
(PID.TID 0000.0001)                         cg2d_res =    6.18047195800158E-14
 cg3d: Sum(rhs),rhsMax =   2.33563168805517E-14  9.30012604845161E-06
(PID.TID 0000.0001)                    cg3d_init_res =    3.43006026739040E-02
(PID.TID 0000.0001)                       cg3d_iters =    20
(PID.TID 0000.0001)                         cg3d_res =    2.80737551209207E-04
(PID.TID 0000.0001) // =======================================================
(PID.TID 0000.0001) // Begin MONITOR dynamic field statistics
(PID.TID 0000.0001) // =======================================================
(PID.TID 0000.0001) %MON time_tsnumber                =                    16
(PID.TID 0000.0001) %MON time_secondsf                =   3.2000000000000E+02
(PID.TID 0000.0001) %MON dynstat_eta_max              =   1.7640570048625E-05
(PID.TID 0000.0001) %MON dynstat_eta_min              =  -2.7982723327961E-05
(PID.TID 0000.0001) %MON dynstat_eta_mean             =  -6.7827749837879E-06
(PID.TID 0000.0001) %MON dynstat_eta_sd               =   7.5748567824692E-06
(PID.TID 0000.0001) %MON dynstat_eta_del2             =   3.0635192310954E-06
(PID.TID 0000.0001) %MON dynstat_uvel_max             =   1.5545548440686E-03
(PID.TID 0000.0001) %MON dynstat_uvel_min             =  -1.5469995972234E-03
(PID.TID 0000.0001) %MON dynstat_uvel_mean            =   1.2699397516296E-06
(PID.TID 0000.0001) %MON dynstat_uvel_sd              =   3.3451855623186E-04
(PID.TID 0000.0001) %MON dynstat_uvel_del2            =   2.0003278151143E-04
(PID.TID 0000.0001) %MON dynstat_vvel_max             =   0.0000000000000E+00
(PID.TID 0000.0001) %MON dynstat_vvel_min             =   0.0000000000000E+00
(PID.TID 0000.0001) %MON dynstat_vvel_mean            =   0.0000000000000E+00
(PID.TID 0000.0001) %MON dynstat_vvel_sd              =   0.0000000000000E+00
(PID.TID 0000.0001) %MON dynstat_vvel_del2            =   0.0000000000000E+00
(PID.TID 0000.0001) %MON dynstat_wvel_max             =   1.3944815329735E-03
(PID.TID 0000.0001) %MON dynstat_wvel_min             =  -1.4941694610124E-03
(PID.TID 0000.0001) %MON dynstat_wvel_mean            =  -2.1644642669426E-08
(PID.TID 0000.0001) %MON dynstat_wvel_sd              =   3.2317206985034E-04
(PID.TID 0000.0001) %MON dynstat_wvel_del2            =   1.9815482820853E-04
(PID.TID 0000.0001) %MON dynstat_theta_max            =   9.9963779647593E-03
(PID.TID 0000.0001) %MON dynstat_theta_min            =  -4.2408025924419E-03
(PID.TID 0000.0001) %MON dynstat_theta_mean           =   5.0562360801144E-03
(PID.TID 0000.0001) %MON dynstat_theta_sd             =   2.8629957517761E-03
(PID.TID 0000.0001) %MON dynstat_theta_del2           =   1.4291680877106E-03
(PID.TID 0000.0001) %MON dynstat_salt_max             =   3.5000000000000E+01
(PID.TID 0000.0001) %MON dynstat_salt_min             =   3.5000000000000E+01
(PID.TID 0000.0001) %MON dynstat_salt_mean            =   3.5000000000000E+01
(PID.TID 0000.0001) %MON dynstat_salt_sd              =   6.3948846218409E-14
(PID.TID 0000.0001) %MON dynstat_salt_del2            =   0.0000000000000E+00
(PID.TID 0000.0001) %MON advcfl_uvel_max              =   2.3203471260010E-03
(PID.TID 0000.0001) %MON advcfl_vvel_max              =   0.0000000000000E+00
(PID.TID 0000.0001) %MON advcfl_wvel_max              =   8.9650167660746E-03
(PID.TID 0000.0001) %MON advcfl_W_hf_max              =   8.9650167660746E-03
(PID.TID 0000.0001) %MON pe_b_mean                    =   3.2083864242754E-12
(PID.TID 0000.0001) %MON ke_max                       =   7.3099245486000E-07
(PID.TID 0000.0001) %MON ke_mean                      =   5.5658539248182E-08
(PID.TID 0000.0001) %MON ke_vol                       =   2.0260852940582E+08
(PID.TID 0000.0001) %MON vort_r_min                   =   0.0000000000000E+00
(PID.TID 0000.0001) %MON vort_r_max                   =   0.0000000000000E+00
(PID.TID 0000.0001) %MON vort_a_mean                  =   0.0000000000000E+00
(PID.TID 0000.0001) %MON vort_a_sd                    =   0.0000000000000E+00
(PID.TID 0000.0001) %MON vort_p_mean                  =   0.0000000000000E+00
(PID.TID 0000.0001) %MON vort_p_sd                    =   0.0000000000000E+00
(PID.TID 0000.0001) %MON surfExpan_theta_mean         =  -2.9148426071182E-10
(PID.TID 0000.0001) %MON surfExpan_salt_mean          =  -2.3035128104402E-06
(PID.TID 0000.0001) // =======================================================
(PID.TID 0000.0001) // End MONITOR dynamic field statistics
(PID.TID 0000.0001) // =======================================================
 cg2d: Sum(rhs),rhsMax =   2.34735322839101E-02  4.32978088750930E-04
(PID.TID 0000.0001)                    cg2d_init_res =    3.64520195922706E-03
(PID.TID 0000.0001)                       cg2d_iters =   188
(PID.TID 0000.0001)                         cg2d_res =    6.77061133985931E-14
 cg3d: Sum(rhs),rhsMax =   3.33899574656016E-14  9.28435959564924E-06
(PID.TID 0000.0001)                    cg3d_init_res =    3.63549862000879E-02
(PID.TID 0000.0001)                       cg3d_iters =    20
(PID.TID 0000.0001)                         cg3d_res =    5.62739958641040E-05
(PID.TID 0000.0001) // =======================================================
(PID.TID 0000.0001) // Begin MONITOR dynamic field statistics
(PID.TID 0000.0001) // =======================================================
(PID.TID 0000.0001) %MON time_tsnumber                =                    17
(PID.TID 0000.0001) %MON time_secondsf                =   3.4000000000000E+02
(PID.TID 0000.0001) %MON dynstat_eta_max              =   1.6172633607096E-05
(PID.TID 0000.0001) %MON dynstat_eta_min              =  -2.9540680322469E-05
(PID.TID 0000.0001) %MON dynstat_eta_mean             =  -8.2780634193297E-06
(PID.TID 0000.0001) %MON dynstat_eta_sd               =   7.5896200697452E-06
(PID.TID 0000.0001) %MON dynstat_eta_del2             =   3.0648539232481E-06
(PID.TID 0000.0001) %MON dynstat_uvel_max             =   1.6491000796660E-03
(PID.TID 0000.0001) %MON dynstat_uvel_min             =  -1.6340843612136E-03
(PID.TID 0000.0001) %MON dynstat_uvel_mean            =   1.4928945332943E-06
(PID.TID 0000.0001) %MON dynstat_uvel_sd              =   3.5496371213551E-04
(PID.TID 0000.0001) %MON dynstat_uvel_del2            =   2.1211247276675E-04
(PID.TID 0000.0001) %MON dynstat_vvel_max             =   0.0000000000000E+00
(PID.TID 0000.0001) %MON dynstat_vvel_min             =   0.0000000000000E+00
(PID.TID 0000.0001) %MON dynstat_vvel_mean            =   0.0000000000000E+00
(PID.TID 0000.0001) %MON dynstat_vvel_sd              =   0.0000000000000E+00
(PID.TID 0000.0001) %MON dynstat_vvel_del2            =   0.0000000000000E+00
(PID.TID 0000.0001) %MON dynstat_wvel_max             =   1.4792296766666E-03
(PID.TID 0000.0001) %MON dynstat_wvel_min             =  -1.5853753024039E-03
(PID.TID 0000.0001) %MON dynstat_wvel_mean            =  -2.4591555870545E-08
(PID.TID 0000.0001) %MON dynstat_wvel_sd              =   3.4300250936704E-04
(PID.TID 0000.0001) %MON dynstat_wvel_del2            =   2.1022276599552E-04
(PID.TID 0000.0001) %MON dynstat_theta_max            =   9.9961617738962E-03
(PID.TID 0000.0001) %MON dynstat_theta_min            =  -4.5354047174064E-03
(PID.TID 0000.0001) %MON dynstat_theta_mean           =   5.0555626917065E-03
(PID.TID 0000.0001) %MON dynstat_theta_sd             =   2.8604805430194E-03
(PID.TID 0000.0001) %MON dynstat_theta_del2           =   1.4269064186038E-03
(PID.TID 0000.0001) %MON dynstat_salt_max             =   3.5000000000000E+01
(PID.TID 0000.0001) %MON dynstat_salt_min             =   3.5000000000000E+01
(PID.TID 0000.0001) %MON dynstat_salt_mean            =   3.5000000000000E+01
(PID.TID 0000.0001) %MON dynstat_salt_sd              =   6.3948846218409E-14
(PID.TID 0000.0001) %MON dynstat_salt_del2            =   0.0000000000000E+00
(PID.TID 0000.0001) %MON advcfl_uvel_max              =   2.4509657003083E-03
(PID.TID 0000.0001) %MON advcfl_vvel_max              =   0.0000000000000E+00
(PID.TID 0000.0001) %MON advcfl_wvel_max              =   9.5122518144235E-03
(PID.TID 0000.0001) %MON advcfl_W_hf_max              =   9.5122518144235E-03
(PID.TID 0000.0001) %MON pe_b_mean                    =   3.9142186156655E-12
(PID.TID 0000.0001) %MON ke_max                       =   8.1702680971111E-07
(PID.TID 0000.0001) %MON ke_mean                      =   6.2670147173857E-08
(PID.TID 0000.0001) %MON ke_vol                       =   2.0260852940582E+08
(PID.TID 0000.0001) %MON vort_r_min                   =   0.0000000000000E+00
(PID.TID 0000.0001) %MON vort_r_max                   =   0.0000000000000E+00
(PID.TID 0000.0001) %MON vort_a_mean                  =   0.0000000000000E+00
(PID.TID 0000.0001) %MON vort_a_sd                    =   0.0000000000000E+00
(PID.TID 0000.0001) %MON vort_p_mean                  =   0.0000000000000E+00
(PID.TID 0000.0001) %MON vort_p_sd                    =   0.0000000000000E+00
(PID.TID 0000.0001) %MON surfExpan_theta_mean         =  -3.2613164155256E-10
(PID.TID 0000.0001) %MON surfExpan_salt_mean          =  -2.6255674464854E-06
(PID.TID 0000.0001) // =======================================================
(PID.TID 0000.0001) // End MONITOR dynamic field statistics
(PID.TID 0000.0001) // =======================================================
 cg2d: Sum(rhs),rhsMax =   2.82703671967275E-02  4.32774956855989E-04
(PID.TID 0000.0001)                    cg2d_init_res =    3.88482812818639E-03
(PID.TID 0000.0001)                       cg2d_iters =   188
(PID.TID 0000.0001)                         cg2d_res =    7.04534234165831E-14
 cg3d: Sum(rhs),rhsMax =  -1.33920652345410E-13  9.26751009383284E-06
(PID.TID 0000.0001)                    cg3d_init_res =    3.84530997362174E-02
(PID.TID 0000.0001)                       cg3d_iters =    20
(PID.TID 0000.0001)                         cg3d_res =    1.01163712985257E-04
(PID.TID 0000.0001) // =======================================================
(PID.TID 0000.0001) // Begin MONITOR dynamic field statistics
(PID.TID 0000.0001) // =======================================================
(PID.TID 0000.0001) %MON time_tsnumber                =                    18
(PID.TID 0000.0001) %MON time_secondsf                =   3.6000000000000E+02
(PID.TID 0000.0001) %MON dynstat_eta_max              =   1.4527163273159E-05
(PID.TID 0000.0001) %MON dynstat_eta_min              =  -3.1241916543182E-05
(PID.TID 0000.0001) %MON dynstat_eta_mean             =  -9.9650149488583E-06
(PID.TID 0000.0001) %MON dynstat_eta_sd               =   7.6059771144574E-06
(PID.TID 0000.0001) %MON dynstat_eta_del2             =   3.0663192271625E-06
(PID.TID 0000.0001) %MON dynstat_uvel_max             =   1.7433146540371E-03
(PID.TID 0000.0001) %MON dynstat_uvel_min             =  -1.7201392399918E-03
(PID.TID 0000.0001) %MON dynstat_uvel_mean            =   1.7223429129907E-06
(PID.TID 0000.0001) %MON dynstat_uvel_sd              =   3.7535277047608E-04
(PID.TID 0000.0001) %MON dynstat_uvel_del2            =   2.2414191102450E-04
(PID.TID 0000.0001) %MON dynstat_vvel_max             =   0.0000000000000E+00
(PID.TID 0000.0001) %MON dynstat_vvel_min             =   0.0000000000000E+00
(PID.TID 0000.0001) %MON dynstat_vvel_mean            =   0.0000000000000E+00
(PID.TID 0000.0001) %MON dynstat_vvel_sd              =   0.0000000000000E+00
(PID.TID 0000.0001) %MON dynstat_vvel_del2            =   0.0000000000000E+00
(PID.TID 0000.0001) %MON dynstat_wvel_max             =   1.5636579333709E-03
(PID.TID 0000.0001) %MON dynstat_wvel_min             =  -1.6763055321107E-03
(PID.TID 0000.0001) %MON dynstat_wvel_mean            =  -2.7773652551806E-08
(PID.TID 0000.0001) %MON dynstat_wvel_sd              =   3.6278790526430E-04
(PID.TID 0000.0001) %MON dynstat_wvel_del2            =   2.2225232604754E-04
(PID.TID 0000.0001) %MON dynstat_theta_max            =   9.9959334461964E-03
(PID.TID 0000.0001) %MON dynstat_theta_min            =  -4.8311305172390E-03
(PID.TID 0000.0001) %MON dynstat_theta_mean           =   5.0548891732093E-03
(PID.TID 0000.0001) %MON dynstat_theta_sd             =   2.8578307332328E-03
(PID.TID 0000.0001) %MON dynstat_theta_del2           =   1.4245153980326E-03
(PID.TID 0000.0001) %MON dynstat_salt_max             =   3.5000000000000E+01
(PID.TID 0000.0001) %MON dynstat_salt_min             =   3.5000000000000E+01
(PID.TID 0000.0001) %MON dynstat_salt_mean            =   3.5000000000000E+01
(PID.TID 0000.0001) %MON dynstat_salt_sd              =   6.3948846218409E-14
(PID.TID 0000.0001) %MON dynstat_salt_del2            =   0.0000000000000E+00
(PID.TID 0000.0001) %MON advcfl_uvel_max              =   2.5800395481682E-03
(PID.TID 0000.0001) %MON advcfl_vvel_max              =   0.0000000000000E+00
(PID.TID 0000.0001) %MON advcfl_wvel_max              =   1.0057833192664E-02
(PID.TID 0000.0001) %MON advcfl_W_hf_max              =   1.0057833192664E-02
(PID.TID 0000.0001) %MON pe_b_mean                    =   4.8769951158040E-12
(PID.TID 0000.0001) %MON ke_max                       =   9.1046350156189E-07
(PID.TID 0000.0001) %MON ke_mean                      =   7.0076679193636E-08
(PID.TID 0000.0001) %MON ke_vol                       =   2.0260852940582E+08
(PID.TID 0000.0001) %MON vort_r_min                   =   0.0000000000000E+00
(PID.TID 0000.0001) %MON vort_r_max                   =   0.0000000000000E+00
(PID.TID 0000.0001) %MON vort_a_mean                  =   0.0000000000000E+00
(PID.TID 0000.0001) %MON vort_a_sd                    =   0.0000000000000E+00
(PID.TID 0000.0001) %MON vort_p_mean                  =   0.0000000000000E+00
(PID.TID 0000.0001) %MON vort_p_sd                    =   0.0000000000000E+00
(PID.TID 0000.0001) %MON surfExpan_theta_mean         =  -3.6273421123278E-10
(PID.TID 0000.0001) %MON surfExpan_salt_mean          =  -2.9634626056024E-06
(PID.TID 0000.0001) // =======================================================
(PID.TID 0000.0001) // End MONITOR dynamic field statistics
(PID.TID 0000.0001) // =======================================================
 cg2d: Sum(rhs),rhsMax =   3.36423970311564E-02  4.32558819768100E-04
(PID.TID 0000.0001)                    cg2d_init_res =    4.11938521040045E-03
(PID.TID 0000.0001)                       cg2d_iters =   188
(PID.TID 0000.0001)                         cg2d_res =    7.53944064176743E-14
 cg3d: Sum(rhs),rhsMax =  -4.74897898783411E-14  9.24975699791153E-06
(PID.TID 0000.0001)                    cg3d_init_res =    4.05236021538933E-02
(PID.TID 0000.0001)                       cg3d_iters =    20
(PID.TID 0000.0001)                         cg3d_res =    1.96454608245902E-04
(PID.TID 0000.0001) // =======================================================
(PID.TID 0000.0001) // Begin MONITOR dynamic field statistics
(PID.TID 0000.0001) // =======================================================
(PID.TID 0000.0001) %MON time_tsnumber                =                    19
(PID.TID 0000.0001) %MON time_secondsf                =   3.8000000000000E+02
(PID.TID 0000.0001) %MON dynstat_eta_max              =   1.2687927201941E-05
(PID.TID 0000.0001) %MON dynstat_eta_min              =  -3.3104451031592E-05
(PID.TID 0000.0001) %MON dynstat_eta_mean             =  -1.1852678016818E-05
(PID.TID 0000.0001) %MON dynstat_eta_sd               =   7.6250983565624E-06
(PID.TID 0000.0001) %MON dynstat_eta_del2             =   3.0679402568904E-06
(PID.TID 0000.0001) %MON dynstat_uvel_max             =   1.8371925497700E-03
(PID.TID 0000.0001) %MON dynstat_uvel_min             =  -1.8051814815773E-03
(PID.TID 0000.0001) %MON dynstat_uvel_mean            =   1.9543429063747E-06
(PID.TID 0000.0001) %MON dynstat_uvel_sd              =   3.9568542572468E-04
(PID.TID 0000.0001) %MON dynstat_uvel_del2            =   2.3612029399611E-04
(PID.TID 0000.0001) %MON dynstat_vvel_max             =   0.0000000000000E+00
(PID.TID 0000.0001) %MON dynstat_vvel_min             =   0.0000000000000E+00
(PID.TID 0000.0001) %MON dynstat_vvel_mean            =   0.0000000000000E+00
(PID.TID 0000.0001) %MON dynstat_vvel_sd              =   0.0000000000000E+00
(PID.TID 0000.0001) %MON dynstat_vvel_del2            =   0.0000000000000E+00
(PID.TID 0000.0001) %MON dynstat_wvel_max             =   1.6477597786804E-03
(PID.TID 0000.0001) %MON dynstat_wvel_min             =  -1.7669566281707E-03
(PID.TID 0000.0001) %MON dynstat_wvel_mean            =  -3.1193691545647E-08
(PID.TID 0000.0001) %MON dynstat_wvel_sd              =   3.8252791387659E-04
(PID.TID 0000.0001) %MON dynstat_wvel_del2            =   2.3424302301834E-04
(PID.TID 0000.0001) %MON dynstat_theta_max            =   9.9956931955184E-03
(PID.TID 0000.0001) %MON dynstat_theta_min            =  -5.1265829600663E-03
(PID.TID 0000.0001) %MON dynstat_theta_mean           =   5.0542155170881E-03
(PID.TID 0000.0001) %MON dynstat_theta_sd             =   2.8550519584649E-03
(PID.TID 0000.0001) %MON dynstat_theta_del2           =   1.4219981271100E-03
(PID.TID 0000.0001) %MON dynstat_salt_max             =   3.5000000000000E+01
(PID.TID 0000.0001) %MON dynstat_salt_min             =   3.5000000000000E+01
(PID.TID 0000.0001) %MON dynstat_salt_mean            =   3.5000000000000E+01
(PID.TID 0000.0001) %MON dynstat_salt_sd              =   6.3948846218409E-14
(PID.TID 0000.0001) %MON dynstat_salt_del2            =   0.0000000000000E+00
(PID.TID 0000.0001) %MON advcfl_uvel_max              =   2.7081503368596E-03
(PID.TID 0000.0001) %MON advcfl_vvel_max              =   0.0000000000000E+00
(PID.TID 0000.0001) %MON advcfl_wvel_max              =   1.0601739769024E-02
(PID.TID 0000.0001) %MON advcfl_W_hf_max              =   1.0601739769024E-02
(PID.TID 0000.0001) %MON pe_b_mean                    =   6.1641324756110E-12
(PID.TID 0000.0001) %MON ke_max                       =   1.0082038742708E-06
(PID.TID 0000.0001) %MON ke_mean                      =   7.7874598499461E-08
(PID.TID 0000.0001) %MON ke_vol                       =   2.0260852940582E+08
(PID.TID 0000.0001) %MON vort_r_min                   =   0.0000000000000E+00
(PID.TID 0000.0001) %MON vort_r_max                   =   0.0000000000000E+00
(PID.TID 0000.0001) %MON vort_a_mean                  =   0.0000000000000E+00
(PID.TID 0000.0001) %MON vort_a_sd                    =   0.0000000000000E+00
(PID.TID 0000.0001) %MON vort_p_mean                  =   0.0000000000000E+00
(PID.TID 0000.0001) %MON vort_p_sd                    =   0.0000000000000E+00
(PID.TID 0000.0001) %MON surfExpan_theta_mean         =  -4.0120625580583E-10
(PID.TID 0000.0001) %MON surfExpan_salt_mean          =  -3.3167231318734E-06
(PID.TID 0000.0001) // =======================================================
(PID.TID 0000.0001) // End MONITOR dynamic field statistics
(PID.TID 0000.0001) // =======================================================
 cg2d: Sum(rhs),rhsMax =   3.96183697776476E-02  4.32329656533452E-04
(PID.TID 0000.0001)                    cg2d_init_res =    4.34798073538993E-03
(PID.TID 0000.0001)                       cg2d_iters =   188
(PID.TID 0000.0001)                         cg2d_res =    7.77136317426787E-14
 cg3d: Sum(rhs),rhsMax =   3.58463259075847E-14  9.23109881972180E-06
(PID.TID 0000.0001)                    cg3d_init_res =    4.25860426539531E-02
(PID.TID 0000.0001)                       cg3d_iters =    20
(PID.TID 0000.0001)                         cg3d_res =    1.65983835115854E-04
(PID.TID 0000.0001) // =======================================================
(PID.TID 0000.0001) // Begin MONITOR dynamic field statistics
(PID.TID 0000.0001) // =======================================================
(PID.TID 0000.0001) %MON time_tsnumber                =                    20
(PID.TID 0000.0001) %MON time_secondsf                =   4.0000000000000E+02
(PID.TID 0000.0001) %MON dynstat_eta_max              =   1.0639546338709E-05
(PID.TID 0000.0001) %MON dynstat_eta_min              =  -3.5150742343312E-05
(PID.TID 0000.0001) %MON dynstat_eta_mean             =  -1.3950700408845E-05
(PID.TID 0000.0001) %MON dynstat_eta_sd               =   7.6491068966683E-06
(PID.TID 0000.0001) %MON dynstat_eta_del2             =   3.0697628773506E-06
(PID.TID 0000.0001) %MON dynstat_uvel_max             =   1.9307312424317E-03
(PID.TID 0000.0001) %MON dynstat_uvel_min             =  -1.8892260866267E-03
(PID.TID 0000.0001) %MON dynstat_uvel_mean            =   2.1861924554316E-06
(PID.TID 0000.0001) %MON dynstat_uvel_sd              =   4.1596139463167E-04
(PID.TID 0000.0001) %MON dynstat_uvel_del2            =   2.4804733803502E-04
(PID.TID 0000.0001) %MON dynstat_vvel_max             =   0.0000000000000E+00
(PID.TID 0000.0001) %MON dynstat_vvel_min             =   0.0000000000000E+00
(PID.TID 0000.0001) %MON dynstat_vvel_mean            =   0.0000000000000E+00
(PID.TID 0000.0001) %MON dynstat_vvel_sd              =   0.0000000000000E+00
(PID.TID 0000.0001) %MON dynstat_vvel_del2            =   0.0000000000000E+00
(PID.TID 0000.0001) %MON dynstat_wvel_max             =   1.7315307215948E-03
(PID.TID 0000.0001) %MON dynstat_wvel_min             =  -1.8573260583185E-03
(PID.TID 0000.0001) %MON dynstat_wvel_mean            =  -3.4852094320997E-08
(PID.TID 0000.0001) %MON dynstat_wvel_sd              =   4.0222230561384E-04
(PID.TID 0000.0001) %MON dynstat_wvel_del2            =   2.4619458821126E-04
(PID.TID 0000.0001) %MON dynstat_theta_max            =   9.9954412350352E-03
(PID.TID 0000.0001) %MON dynstat_theta_min            =  -5.4217619657022E-03
(PID.TID 0000.0001) %MON dynstat_theta_mean           =   5.0535417158079E-03
(PID.TID 0000.0001) %MON dynstat_theta_sd             =   2.8521479495952E-03
(PID.TID 0000.0001) %MON dynstat_theta_del2           =   1.4193590272318E-03
(PID.TID 0000.0001) %MON dynstat_salt_max             =   3.5000000000000E+01
(PID.TID 0000.0001) %MON dynstat_salt_min             =   3.5000000000000E+01
(PID.TID 0000.0001) %MON dynstat_salt_mean            =   3.5000000000000E+01
(PID.TID 0000.0001) %MON dynstat_salt_sd              =   6.3948846218409E-14
(PID.TID 0000.0001) %MON dynstat_salt_del2            =   0.0000000000000E+00
(PID.TID 0000.0001) %MON advcfl_uvel_max              =   2.8460329132247E-03
(PID.TID 0000.0001) %MON advcfl_vvel_max              =   0.0000000000000E+00
(PID.TID 0000.0001) %MON advcfl_wvel_max              =   1.1143956349911E-02
(PID.TID 0000.0001) %MON advcfl_W_hf_max              =   1.1143956349911E-02
(PID.TID 0000.0001) %MON pe_b_mean                    =   7.8555464116073E-12
(PID.TID 0000.0001) %MON ke_max                       =   1.1101170654146E-06
(PID.TID 0000.0001) %MON ke_mean                      =   8.6060361354802E-08
(PID.TID 0000.0001) %MON ke_vol                       =   2.0260852940582E+08
(PID.TID 0000.0001) %MON vort_r_min                   =   0.0000000000000E+00
(PID.TID 0000.0001) %MON vort_r_max                   =   0.0000000000000E+00
(PID.TID 0000.0001) %MON vort_a_mean                  =   0.0000000000000E+00
(PID.TID 0000.0001) %MON vort_a_sd                    =   0.0000000000000E+00
(PID.TID 0000.0001) %MON vort_p_mean                  =   0.0000000000000E+00
(PID.TID 0000.0001) %MON vort_p_sd                    =   0.0000000000000E+00
(PID.TID 0000.0001) %MON surfExpan_theta_mean         =  -4.4143049705567E-10
(PID.TID 0000.0001) %MON surfExpan_salt_mean          =  -3.6849770079275E-06
(PID.TID 0000.0001) // =======================================================
(PID.TID 0000.0001) // End MONITOR dynamic field statistics
(PID.TID 0000.0001) // =======================================================
(PID.TID 0000.0001) %CHECKPOINT        20 ckptA
(PID.TID 0000.0001)   Seconds in section "ALL                    [THE_MODEL_MAIN]":
(PID.TID 0000.0001)           User time:  50.2453607
(PID.TID 0000.0001)         System time:  0.280956991
(PID.TID 0000.0001)     Wall clock time:  51.1127779
(PID.TID 0000.0001)          No. starts: 1
(PID.TID 0000.0001)           No. stops: 1
(PID.TID 0000.0001)   Seconds in section "INITIALISE_FIXED       [THE_MODEL_MAIN]":
(PID.TID 0000.0001)           User time:  0.497923978
(PID.TID 0000.0001)         System time:  0.0589910003
(PID.TID 0000.0001)     Wall clock time:  0.628252029
(PID.TID 0000.0001)          No. starts: 1
(PID.TID 0000.0001)           No. stops: 1
(PID.TID 0000.0001)   Seconds in section "THE_MAIN_LOOP          [THE_MODEL_MAIN]":
(PID.TID 0000.0001)           User time:  49.4204866
(PID.TID 0000.0001)         System time:  0.0789879933
(PID.TID 0000.0001)     Wall clock time:  49.631758
(PID.TID 0000.0001)          No. starts: 1
(PID.TID 0000.0001)           No. stops: 1
(PID.TID 0000.0001)   Seconds in section "INITIALISE_VARIA    [THE_MAIN_LOOP]":
(PID.TID 0000.0001)           User time:  0.267960012
(PID.TID 0000.0001)         System time:  0.0439929962
(PID.TID 0000.0001)     Wall clock time:  0.345263958
(PID.TID 0000.0001)          No. starts: 1
(PID.TID 0000.0001)           No. stops: 1
(PID.TID 0000.0001)   Seconds in section "MONITOR             [THE_MAIN_LOOP]":
(PID.TID 0000.0001)           User time:  0.055990994
(PID.TID 0000.0001)         System time:  0.
(PID.TID 0000.0001)     Wall clock time:  0.0556690693
(PID.TID 0000.0001)          No. starts: 1
(PID.TID 0000.0001)           No. stops: 1
(PID.TID 0000.0001)   Seconds in section "DO_THE_MODEL_IO     [THE_MAIN_LOOP]":
(PID.TID 0000.0001)           User time:  0.0149980187
(PID.TID 0000.0001)         System time:  0.00899900496
(PID.TID 0000.0001)     Wall clock time:  0.0601158142
(PID.TID 0000.0001)          No. starts: 1
(PID.TID 0000.0001)           No. stops: 1
(PID.TID 0000.0001)   Seconds in section "MAIN LOOP           [THE_MAIN_LOOP]":
(PID.TID 0000.0001)           User time:  49.0815376
(PID.TID 0000.0001)         System time:  0.0259959921
(PID.TID 0000.0001)     Wall clock time:  49.170511
(PID.TID 0000.0001)          No. starts: 1
(PID.TID 0000.0001)           No. stops: 1
(PID.TID 0000.0001)   Seconds in section "FORWARD_STEP        [THE_MAIN_LOOP]":
(PID.TID 0000.0001)           User time:  49.0805382
(PID.TID 0000.0001)         System time:  0.0259959921
(PID.TID 0000.0001)     Wall clock time:  49.1697738
(PID.TID 0000.0001)          No. starts: 20
(PID.TID 0000.0001)           No. stops: 20
(PID.TID 0000.0001)   Seconds in section "EXTERNAL_FIELDS_LOAD[FORWARD_STEP]":
(PID.TID 0000.0001)           User time:  0.00100040436
(PID.TID 0000.0001)         System time:  0.
(PID.TID 0000.0001)     Wall clock time:  0.000705957413
(PID.TID 0000.0001)          No. starts: 20
(PID.TID 0000.0001)           No. stops: 20
(PID.TID 0000.0001)   Seconds in section "DO_ATMOSPHERIC_PHYS [FORWARD_STEP]":
(PID.TID 0000.0001)           User time:  0.
(PID.TID 0000.0001)         System time:  0.
(PID.TID 0000.0001)     Wall clock time:  0.000687360764
(PID.TID 0000.0001)          No. starts: 20
(PID.TID 0000.0001)           No. stops: 20
(PID.TID 0000.0001)   Seconds in section "DO_OCEANIC_PHYS     [FORWARD_STEP]":
(PID.TID 0000.0001)           User time:  0.188969433
(PID.TID 0000.0001)         System time:  0.
(PID.TID 0000.0001)     Wall clock time:  0.189911366
(PID.TID 0000.0001)          No. starts: 20
(PID.TID 0000.0001)           No. stops: 20
(PID.TID 0000.0001)   Seconds in section "THERMODYNAMICS      [FORWARD_STEP]":
(PID.TID 0000.0001)           User time:  13.1909946
(PID.TID 0000.0001)         System time:  0.00399900228
(PID.TID 0000.0001)     Wall clock time:  13.204509
(PID.TID 0000.0001)          No. starts: 20
(PID.TID 0000.0001)           No. stops: 20
(PID.TID 0000.0001)   Seconds in section "DYNAMICS            [FORWARD_STEP]":
(PID.TID 0000.0001)           User time:  14.4358014
(PID.TID 0000.0001)         System time:  0.00500000268
(PID.TID 0000.0001)     Wall clock time:  14.4402256
(PID.TID 0000.0001)          No. starts: 20
(PID.TID 0000.0001)           No. stops: 20
(PID.TID 0000.0001)   Seconds in section "CALC_GW          [DYNAMICS]":
(PID.TID 0000.0001)           User time:  1.12982368
(PID.TID 0000.0001)         System time:  0.00100000203
(PID.TID 0000.0001)     Wall clock time:  1.12737417
(PID.TID 0000.0001)          No. starts: 20
(PID.TID 0000.0001)           No. stops: 20
(PID.TID 0000.0001)   Seconds in section "SOLVE_FOR_PRESSURE  [FORWARD_STEP]":
(PID.TID 0000.0001)           User time:  17.5033441
(PID.TID 0000.0001)         System time:  0.00199899822
(PID.TID 0000.0001)     Wall clock time:  17.51016
(PID.TID 0000.0001)          No. starts: 20
(PID.TID 0000.0001)           No. stops: 20
(PID.TID 0000.0001)   Seconds in section "CG3D   [SOLVE_FOR_PRESSURE]":
(PID.TID 0000.0001)           User time:  14.706759
(PID.TID 0000.0001)         System time:  0.00100000203
(PID.TID 0000.0001)     Wall clock time:  14.7103612
(PID.TID 0000.0001)          No. starts: 20
(PID.TID 0000.0001)           No. stops: 20
(PID.TID 0000.0001)   Seconds in section "MOM_CORRECTION_STEP [FORWARD_STEP]":
(PID.TID 0000.0001)           User time:  0.897859573
(PID.TID 0000.0001)         System time:  0.
(PID.TID 0000.0001)     Wall clock time:  0.895610571
(PID.TID 0000.0001)          No. starts: 20
(PID.TID 0000.0001)           No. stops: 20
(PID.TID 0000.0001)   Seconds in section "TRC_CORRECTION_STEP [FORWARD_STEP]":
(PID.TID 0000.0001)           User time:  0.308957577
(PID.TID 0000.0001)         System time:  0.
(PID.TID 0000.0001)     Wall clock time:  0.311974525
(PID.TID 0000.0001)          No. starts: 20
(PID.TID 0000.0001)           No. stops: 20
(PID.TID 0000.0001)   Seconds in section "BLOCKING_EXCHANGES  [FORWARD_STEP]":
(PID.TID 0000.0001)           User time:  1.40377998
(PID.TID 0000.0001)         System time:  0.
(PID.TID 0000.0001)     Wall clock time:  1.40957189
(PID.TID 0000.0001)          No. starts: 20
(PID.TID 0000.0001)           No. stops: 20
(PID.TID 0000.0001)   Seconds in section "DO_STATEVARS_TAVE   [FORWARD_STEP]":
(PID.TID 0000.0001)           User time:  0.000999450684
(PID.TID 0000.0001)         System time:  0.
(PID.TID 0000.0001)     Wall clock time:  0.000713348389
(PID.TID 0000.0001)          No. starts: 20
(PID.TID 0000.0001)           No. stops: 20
(PID.TID 0000.0001)   Seconds in section "MONITOR             [FORWARD_STEP]":
(PID.TID 0000.0001)           User time:  1.11583495
(PID.TID 0000.0001)         System time:  0.000999987125
(PID.TID 0000.0001)     Wall clock time:  1.1169889
(PID.TID 0000.0001)          No. starts: 20
(PID.TID 0000.0001)           No. stops: 20
(PID.TID 0000.0001)   Seconds in section "DO_THE_MODEL_IO     [FORWARD_STEP]":
(PID.TID 0000.0001)           User time:  0.016998291
(PID.TID 0000.0001)         System time:  0.0119979978
(PID.TID 0000.0001)     Wall clock time:  0.0777828693
(PID.TID 0000.0001)          No. starts: 20
(PID.TID 0000.0001)           No. stops: 20
(PID.TID 0000.0001)   Seconds in section "WRITE_CHECKPOINT    [FORWARD_STEP]":
(PID.TID 0000.0001)           User time:  0.00199985504
(PID.TID 0000.0001)         System time:  0.
(PID.TID 0000.0001)     Wall clock time:  0.000720024109
(PID.TID 0000.0001)          No. starts: 20
(PID.TID 0000.0001)           No. stops: 20
(PID.TID 0000.0001)   Seconds in section "WRITE_CHECKPOINT       [THE_MODEL_MAIN]":
(PID.TID 0000.0001)           User time:  0.326950073
(PID.TID 0000.0001)         System time:  0.142977998
(PID.TID 0000.0001)     Wall clock time:  0.852599859
(PID.TID 0000.0001)          No. starts: 1
(PID.TID 0000.0001)           No. stops: 1
(PID.TID 0000.0001) // ======================================================
(PID.TID 0000.0001) // Tile <-> Tile communication statistics
(PID.TID 0000.0001) // ======================================================
(PID.TID 0000.0001) // o Tile number: 000001
(PID.TID 0000.0001) //         No. X exchanges =              0
(PID.TID 0000.0001) //            Max. X spins =              0
(PID.TID 0000.0001) //            Min. X spins =     1000000000
(PID.TID 0000.0001) //          Total. X spins =              0
(PID.TID 0000.0001) //            Avg. X spins =       0.00E+00
(PID.TID 0000.0001) //         No. Y exchanges =              0
(PID.TID 0000.0001) //            Max. Y spins =              0
(PID.TID 0000.0001) //            Min. Y spins =     1000000000
(PID.TID 0000.0001) //          Total. Y spins =              0
(PID.TID 0000.0001) //            Avg. Y spins =       0.00E+00
(PID.TID 0000.0001) // o Tile number: 000002
(PID.TID 0000.0001) //         No. X exchanges =              0
(PID.TID 0000.0001) //            Max. X spins =              0
(PID.TID 0000.0001) //            Min. X spins =     1000000000
(PID.TID 0000.0001) //          Total. X spins =              0
(PID.TID 0000.0001) //            Avg. X spins =       0.00E+00
(PID.TID 0000.0001) //         No. Y exchanges =              0
(PID.TID 0000.0001) //            Max. Y spins =              0
(PID.TID 0000.0001) //            Min. Y spins =     1000000000
(PID.TID 0000.0001) //          Total. Y spins =              0
(PID.TID 0000.0001) //            Avg. Y spins =       0.00E+00
(PID.TID 0000.0001) // o Thread number: 000001
(PID.TID 0000.0001) //            No. barriers =          56926
(PID.TID 0000.0001) //      Max. barrier spins =              1
(PID.TID 0000.0001) //      Min. barrier spins =              1
(PID.TID 0000.0001) //     Total barrier spins =          56926
(PID.TID 0000.0001) //      Avg. barrier spins =       1.00E+00
