(PID.TID 0000.0001) 
(PID.TID 0000.0001) // ======================================================
(PID.TID 0000.0001) //                      MITgcm UV
(PID.TID 0000.0001) //                      =========
(PID.TID 0000.0001) // ======================================================
(PID.TID 0000.0001) // execution environment starting up...
(PID.TID 0000.0001) 
(PID.TID 0000.0001) // MITgcmUV version:  checkpoint65b
(PID.TID 0000.0001) // Build user:        jmc
(PID.TID 0000.0001) // Build host:        baudelaire
(PID.TID 0000.0001) // Build date:        Tue Aug 26 22:17:36 EDT 2014
(PID.TID 0000.0001) 
(PID.TID 0000.0001) // =======================================================
(PID.TID 0000.0001) // Execution Environment parameter file "eedata"
(PID.TID 0000.0001) // =======================================================
(PID.TID 0000.0001) ># Example "eedata" file
(PID.TID 0000.0001) ># Lines beginning "#" are comments
(PID.TID 0000.0001) ># nTx - No. threads per process in X
(PID.TID 0000.0001) ># nTy - No. threads per process in Y
(PID.TID 0000.0001) > &EEPARMS
(PID.TID 0000.0001) > nTx=1,
(PID.TID 0000.0001) > nTy=1,
(PID.TID 0000.0001) > /
(PID.TID 0000.0001) ># Note: Some systems use & as the namelist terminator (as shown here).
(PID.TID 0000.0001) >#       Other systems use a / character.
(PID.TID 0000.0001) 
(PID.TID 0000.0001) // =======================================================
(PID.TID 0000.0001) // Computational Grid Specification ( see files "SIZE.h" )
(PID.TID 0000.0001) //                                  ( and "eedata"       )
(PID.TID 0000.0001) // =======================================================
(PID.TID 0000.0001)      nPx =    1 ; /* No. processes in X */
(PID.TID 0000.0001)      nPy =    1 ; /* No. processes in Y */
(PID.TID 0000.0001)      nSx =    3 ; /* No. tiles in X per process */
(PID.TID 0000.0001)      nSy =    2 ; /* No. tiles in Y per process */
(PID.TID 0000.0001)      sNx =   14 ; /* Tile size in X */
(PID.TID 0000.0001)      sNy =   10 ; /* Tile size in Y */
(PID.TID 0000.0001)      OLx =    3 ; /* Tile overlap distance in X */
(PID.TID 0000.0001)      OLy =    3 ; /* Tile overlap distance in Y */
(PID.TID 0000.0001)      nTx =    1 ; /* No. threads in X per process */
(PID.TID 0000.0001)      nTy =    1 ; /* No. threads in Y per process */
(PID.TID 0000.0001)       Nr =   15 ; /* No. levels in the vertical   */
(PID.TID 0000.0001)       Nx =   42 ; /* Total domain size in X ( = nPx*nSx*sNx ) */
(PID.TID 0000.0001)       Ny =   20 ; /* Total domain size in Y ( = nPy*nSy*sNy ) */
(PID.TID 0000.0001)   nTiles =    6 ; /* Total no. tiles per process ( = nSx*nSy ) */
(PID.TID 0000.0001)   nProcs =    1 ; /* Total no. processes ( = nPx*nPy ) */
(PID.TID 0000.0001) nThreads =    1 ; /* Total no. threads per process ( = nTx*nTy ) */
(PID.TID 0000.0001) usingMPI =    F ; /* Flag used to control whether MPI is in use */
(PID.TID 0000.0001)                   /*  note: To execute a program with MPI calls */
(PID.TID 0000.0001)                   /*  it must be launched appropriately e.g     */
(PID.TID 0000.0001)                   /*  "mpirun -np 64 ......"                    */
(PID.TID 0000.0001) useCoupler=    F ;/* Flag used to control communications with   */
(PID.TID 0000.0001)                   /*  other model components, through a coupler */
(PID.TID 0000.0001) debugMode =    F ; /* print debug msg. (sequence of S/R calls)  */
(PID.TID 0000.0001) printMapIncludesZeros=    F ; /* print zeros in Std.Output maps */
(PID.TID 0000.0001) maxLengthPrt1D=   65 /* maxLength of 1D array printed to StdOut */
(PID.TID 0000.0001) 
(PID.TID 0000.0001) // ======================================================
(PID.TID 0000.0001) // Mapping of tiles to threads
(PID.TID 0000.0001) // ======================================================
(PID.TID 0000.0001) // -o- Thread   1, tiles (   1:   3,   1:   2)
(PID.TID 0000.0001) 
(PID.TID 0000.0001) // ======================================================
(PID.TID 0000.0001) // Tile <-> Tile connectvity table
(PID.TID 0000.0001) // ======================================================
(PID.TID 0000.0001) // Tile number: 000001 (process no. = 000000)
(PID.TID 0000.0001) //        WEST: Tile = 000003, Process = 000000, Comm = put
(PID.TID 0000.0001) //                bi = 000003, bj = 000001
(PID.TID 0000.0001) //        EAST: Tile = 000002, Process = 000000, Comm = put
(PID.TID 0000.0001) //                bi = 000002, bj = 000001
(PID.TID 0000.0001) //       SOUTH: Tile = 000004, Process = 000000, Comm = put
(PID.TID 0000.0001) //                bi = 000001, bj = 000002
(PID.TID 0000.0001) //       NORTH: Tile = 000004, Process = 000000, Comm = put
(PID.TID 0000.0001) //                bi = 000001, bj = 000002
(PID.TID 0000.0001) // Tile number: 000002 (process no. = 000000)
(PID.TID 0000.0001) //        WEST: Tile = 000001, Process = 000000, Comm = put
(PID.TID 0000.0001) //                bi = 000001, bj = 000001
(PID.TID 0000.0001) //        EAST: Tile = 000003, Process = 000000, Comm = put
(PID.TID 0000.0001) //                bi = 000003, bj = 000001
(PID.TID 0000.0001) //       SOUTH: Tile = 000005, Process = 000000, Comm = put
(PID.TID 0000.0001) //                bi = 000002, bj = 000002
(PID.TID 0000.0001) //       NORTH: Tile = 000005, Process = 000000, Comm = put
(PID.TID 0000.0001) //                bi = 000002, bj = 000002
(PID.TID 0000.0001) // Tile number: 000003 (process no. = 000000)
(PID.TID 0000.0001) //        WEST: Tile = 000002, Process = 000000, Comm = put
(PID.TID 0000.0001) //                bi = 000002, bj = 000001
(PID.TID 0000.0001) //        EAST: Tile = 000001, Process = 000000, Comm = put
(PID.TID 0000.0001) //                bi = 000001, bj = 000001
(PID.TID 0000.0001) //       SOUTH: Tile = 000006, Process = 000000, Comm = put
(PID.TID 0000.0001) //                bi = 000003, bj = 000002
(PID.TID 0000.0001) //       NORTH: Tile = 000006, Process = 000000, Comm = put
(PID.TID 0000.0001) //                bi = 000003, bj = 000002
(PID.TID 0000.0001) // Tile number: 000004 (process no. = 000000)
(PID.TID 0000.0001) //        WEST: Tile = 000006, Process = 000000, Comm = put
(PID.TID 0000.0001) //                bi = 000003, bj = 000002
(PID.TID 0000.0001) //        EAST: Tile = 000005, Process = 000000, Comm = put
(PID.TID 0000.0001) //                bi = 000002, bj = 000002
(PID.TID 0000.0001) //       SOUTH: Tile = 000001, Process = 000000, Comm = put
(PID.TID 0000.0001) //                bi = 000001, bj = 000001
(PID.TID 0000.0001) //       NORTH: Tile = 000001, Process = 000000, Comm = put
(PID.TID 0000.0001) //                bi = 000001, bj = 000001
(PID.TID 0000.0001) // Tile number: 000005 (process no. = 000000)
(PID.TID 0000.0001) //        WEST: Tile = 000004, Process = 000000, Comm = put
(PID.TID 0000.0001) //                bi = 000001, bj = 000002
(PID.TID 0000.0001) //        EAST: Tile = 000006, Process = 000000, Comm = put
(PID.TID 0000.0001) //                bi = 000003, bj = 000002
(PID.TID 0000.0001) //       SOUTH: Tile = 000002, Process = 000000, Comm = put
(PID.TID 0000.0001) //                bi = 000002, bj = 000001
(PID.TID 0000.0001) //       NORTH: Tile = 000002, Process = 000000, Comm = put
(PID.TID 0000.0001) //                bi = 000002, bj = 000001
(PID.TID 0000.0001) // Tile number: 000006 (process no. = 000000)
(PID.TID 0000.0001) //        WEST: Tile = 000005, Process = 000000, Comm = put
(PID.TID 0000.0001) //                bi = 000002, bj = 000002
(PID.TID 0000.0001) //        EAST: Tile = 000004, Process = 000000, Comm = put
(PID.TID 0000.0001) //                bi = 000001, bj = 000002
(PID.TID 0000.0001) //       SOUTH: Tile = 000003, Process = 000000, Comm = put
(PID.TID 0000.0001) //                bi = 000003, bj = 000001
(PID.TID 0000.0001) //       NORTH: Tile = 000003, Process = 000000, Comm = put
(PID.TID 0000.0001) //                bi = 000003, bj = 000001
(PID.TID 0000.0001) 
(PID.TID 0000.0001)  INI_PARMS: opening model parameter file "data"
(PID.TID 0000.0001)  OPEN_COPY_DATA_FILE: opening file data
(PID.TID 0000.0001) // =======================================================
(PID.TID 0000.0001) // Parameter file "data"
(PID.TID 0000.0001) // =======================================================
(PID.TID 0000.0001) ># ====================
(PID.TID 0000.0001) ># | Model parameters |
(PID.TID 0000.0001) ># ====================
(PID.TID 0000.0001) >#
(PID.TID 0000.0001) ># Continuous equation parameters
(PID.TID 0000.0001) > &PARM01
(PID.TID 0000.0001) > tRef=15*20.,
(PID.TID 0000.0001) > sRef=15*35.,
(PID.TID 0000.0001) > viscAh=3.E5,
(PID.TID 0000.0001) > viscAz=1.E-3,
(PID.TID 0000.0001) > diffKhT=0.E3,
(PID.TID 0000.0001) > diffKhS=0.E3,
(PID.TID 0000.0001) >#diffKzT=3.E-5,
(PID.TID 0000.0001) >#diffKzS=3.E-5,
(PID.TID 0000.0001) > diffKrBL79surf= 3.E-5,
(PID.TID 0000.0001) > diffKrBL79deep= 13.E-5,
(PID.TID 0000.0001) > diffKrBL79Ho  = -2000.,
(PID.TID 0000.0001) > diffKrBL79scl = 150.,
(PID.TID 0000.0001) > gravity=9.81,
(PID.TID 0000.0001) > rhoConst=1035.,
(PID.TID 0000.0001) > rhoConstFresh=1000.,
(PID.TID 0000.0001) > eosType='JMD95Z',
(PID.TID 0000.0001) > implicitFreeSurface=.TRUE.,
(PID.TID 0000.0001) > exactConserv=.TRUE.,
(PID.TID 0000.0001) >#implicitViscosity=.TRUE.,
(PID.TID 0000.0001) > implicitDiffusion=.TRUE.,
(PID.TID 0000.0001) > ivdc_kappa=10.,
(PID.TID 0000.0001) > allowFreezing=.TRUE.,
(PID.TID 0000.0001) >#useCDscheme=.TRUE.,
(PID.TID 0000.0001) ># turn on looped cells
(PID.TID 0000.0001) > hFacMin=.1,
(PID.TID 0000.0001) > hFacMindz=50.,
(PID.TID 0000.0001) >#- I/O params:
(PID.TID 0000.0001) > globalFiles=.TRUE.,
(PID.TID 0000.0001) > /
(PID.TID 0000.0001) >
(PID.TID 0000.0001) ># Elliptic solver parameters
(PID.TID 0000.0001) > &PARM02
(PID.TID 0000.0001) > cg2dMaxIters=1000,
(PID.TID 0000.0001) > cg2dTargetResidual=1.E-13,
(PID.TID 0000.0001) > /
(PID.TID 0000.0001) >
(PID.TID 0000.0001) ># Time stepping parameters
(PID.TID 0000.0001) > &PARM03
(PID.TID 0000.0001) > nIter0=0,
(PID.TID 0000.0001) >#nTimeSteps = 1440,
(PID.TID 0000.0001) > nTimeSteps = 10,
(PID.TID 0000.0001) >#tauCD      = 321428.,
(PID.TID 0000.0001) > deltaTMom     = 900.,
(PID.TID 0000.0001) > deltaTtracer  = 43200.,
(PID.TID 0000.0001) > deltaTFreeSurf= 43200.,
(PID.TID 0000.0001) > deltaTClock   = 43200.,
(PID.TID 0000.0001) > abEps      = 0.1,
(PID.TID 0000.0001) > pChkptFreq = 311040000.,
(PID.TID 0000.0001) > chkptFreq  = 31104000.,
(PID.TID 0000.0001) > dumpFreq   = 2592000.,
(PID.TID 0000.0001) > monitorFreq= 864000.,
(PID.TID 0000.0001) > tauThetaClimRelax = 5184000.,
(PID.TID 0000.0001) > tauSaltClimRelax  = 7776000.,
(PID.TID 0000.0001) > periodicExternalForcing=.TRUE.,
(PID.TID 0000.0001) > externForcingPeriod = 2592000.,
(PID.TID 0000.0001) > externForcingCycle = 31104000.,
(PID.TID 0000.0001) > monitorFreq= 1.,
(PID.TID 0000.0001) > /
(PID.TID 0000.0001) >
(PID.TID 0000.0001) ># Gridding parameters
(PID.TID 0000.0001) > &PARM04
(PID.TID 0000.0001) > usingSphericalPolarGrid=.TRUE.,
(PID.TID 0000.0001) > delZ=  50., 70.,  100., 140., 190.,
(PID.TID 0000.0001) >       240., 290., 340., 390., 440.,
(PID.TID 0000.0001) >       490., 540., 590., 640., 690.,
(PID.TID 0000.0001) > xgOrigin= 236.25,
(PID.TID 0000.0001) > ygOrigin= -81.5625,
(PID.TID 0000.0001) > delX=42*2.8125,
(PID.TID 0000.0001) > delY=20*2.8125,
(PID.TID 0000.0001) > /
(PID.TID 0000.0001) >
(PID.TID 0000.0001) ># Input datasets
(PID.TID 0000.0001) > &PARM05
(PID.TID 0000.0001) > checkIniTemp  = .FALSE.,
(PID.TID 0000.0001) > bathyFile     = 'bathy_box.bin',
(PID.TID 0000.0001) > pSurfInitFile = 'Eta_ini.bin',
(PID.TID 0000.0001) > uVelInitFile  = 'U_ini.bin',
(PID.TID 0000.0001) > vVelInitFile  = 'V_ini.bin',
(PID.TID 0000.0001) > hydrogThetaFile='T_ini.bin',
(PID.TID 0000.0001) > hydrogSaltFile= 'S_ini.bin',
(PID.TID 0000.0001) > zonalWindFile = 'tren_taux_box.bin',
(PID.TID 0000.0001) > meridWindFile = 'tren_tauy_box.bin',
(PID.TID 0000.0001) > thetaClimFile = 'lev_monthly_temp_box.bin',
(PID.TID 0000.0001) > saltClimFile  = 'lev_monthly_salt_box.bin',
(PID.TID 0000.0001) > surfQnetFile  = 'shi_qnet_box.bin',
(PID.TID 0000.0001) > EmPmRFile     = 'shi_empmr_year_box.bin',
(PID.TID 0000.0001) > the_run_name  = 'OBC + Biogeo S.Ocean Box',
(PID.TID 0000.0001) > /
(PID.TID 0000.0001) 
(PID.TID 0000.0001)  INI_PARMS ; starts to read PARM01
(PID.TID 0000.0001)  INI_PARMS ; read PARM01 : OK
(PID.TID 0000.0001)  INI_PARMS ; starts to read PARM02
(PID.TID 0000.0001)  INI_PARMS ; read PARM02 : OK
(PID.TID 0000.0001)  INI_PARMS ; starts to read PARM03
(PID.TID 0000.0001)  INI_PARMS ; read PARM03 : OK
(PID.TID 0000.0001)  INI_PARMS ; starts to read PARM04
(PID.TID 0000.0001)  INI_PARMS ; read PARM04 : OK
(PID.TID 0000.0001)  INI_PARMS ; starts to read PARM05
(PID.TID 0000.0001)  INI_PARMS ; read PARM05 : OK
(PID.TID 0000.0001)  INI_PARMS: finished reading file "data"
(PID.TID 0000.0001)  PACKAGES_BOOT: opening data.pkg
(PID.TID 0000.0001)  OPEN_COPY_DATA_FILE: opening file data.pkg
(PID.TID 0000.0001) // =======================================================
(PID.TID 0000.0001) // Parameter file "data.pkg"
(PID.TID 0000.0001) // =======================================================
(PID.TID 0000.0001) ># Packages
(PID.TID 0000.0001) > &PACKAGES
(PID.TID 0000.0001) > usePTRACERS=.TRUE.,
(PID.TID 0000.0001) > useGCHEM =.TRUE.,
(PID.TID 0000.0001) > useGMRedi=.TRUE.,
(PID.TID 0000.0001) > useOBCS  =.TRUE.,
(PID.TID 0000.0001) > useDiagnostics=.TRUE.,
(PID.TID 0000.0001) > /
(PID.TID 0000.0001) 
(PID.TID 0000.0001)  PACKAGES_BOOT: finished reading data.pkg
(PID.TID 0000.0001)  PACKAGES_BOOT: On/Off package Summary
 --------  pkgs with a standard "usePKG" On/Off switch in "data.pkg":  --------
 pkg/obcs                 compiled   and   used ( useOBCS                  = T )
 pkg/gmredi               compiled   and   used ( useGMRedi                = T )
 pkg/ptracers             compiled   and   used ( usePTRACERS              = T )
 pkg/gchem                compiled   and   used ( useGCHEM                 = T )
 pkg/diagnostics          compiled   and   used ( useDiagnostics           = T )
 -------- pkgs without standard "usePKG" On/Off switch in "data.pkg":  --------
 pkg/generic_advdiff      compiled   and   used ( useGAD                   = T )
 pkg/mom_common           compiled   and   used ( momStepping              = T )
 pkg/mom_vecinv           compiled but not used ( +vectorInvariantMomentum = F )
 pkg/mom_fluxform         compiled   and   used ( & not vectorInvariantMom = T )
 pkg/cd_code              compiled but not used ( useCDscheme              = F )
 pkg/monitor              compiled   and   used ( monitorFreq > 0.         = T )
 pkg/debug                compiled but not used ( debugMode                = F )
 pkg/rw                   compiled   and   used
 pkg/mdsio                compiled   and   used
(PID.TID 0000.0001)  PACKAGES_BOOT: End of package Summary
(PID.TID 0000.0001) 
(PID.TID 0000.0001)  OBCS_READPARMS: opening data.obcs
(PID.TID 0000.0001)  OPEN_COPY_DATA_FILE: opening file data.obcs
(PID.TID 0000.0001) // =======================================================
(PID.TID 0000.0001) // Parameter file "data.obcs"
(PID.TID 0000.0001) // =======================================================
(PID.TID 0000.0001) ># Open-boundaries
(PID.TID 0000.0001) > &OBCS_PARM01
(PID.TID 0000.0001) ># This flag turns off checking and fixing problematic topography across
(PID.TID 0000.0001) ># open boundaries.
(PID.TID 0000.0001) > OBCSfixTopo=.FALSE.,
(PID.TID 0000.0001) > OB_Iwest = 20*1,
(PID.TID 0000.0001) > OB_Ieast = 20*-1,
(PID.TID 0000.0001) > OB_Jnorth= 42*-1,
(PID.TID 0000.0001) > useOBCSprescribe = .TRUE.,
(PID.TID 0000.0001) > OBCS_u1_adv_T = 1,
(PID.TID 0000.0001) > OBCS_u1_adv_S = 1,
(PID.TID 0000.0001) > OBCS_u1_adv_Tr(1:5) = 1,
(PID.TID 0000.0001) > OBWuFile = 'U_obW.bin',
(PID.TID 0000.0001) > OBEuFile = 'U_obE.bin',
(PID.TID 0000.0001) > OBNuFile = 'U_obN.bin',
(PID.TID 0000.0001) > OBWvFile = 'V_obW.bin',
(PID.TID 0000.0001) > OBEvFile = 'V_obE.bin',
(PID.TID 0000.0001) > OBNvFile = 'V_obN.bin',
(PID.TID 0000.0001) > OBWtFile = 'T_obW.bin',
(PID.TID 0000.0001) > OBEtFile = 'T_obE.bin',
(PID.TID 0000.0001) > OBNtFile = 'T_obN.bin',
(PID.TID 0000.0001) > OBWsFile = 'S_obW.bin',
(PID.TID 0000.0001) > OBEsFile = 'S_obE.bin',
(PID.TID 0000.0001) > OBNsFile = 'S_obN.bin',
(PID.TID 0000.0001) > OBWptrFile(1) = 'Trac01_obW.bin',
(PID.TID 0000.0001) > OBEptrFile(1) = 'Trac01_obE.bin',
(PID.TID 0000.0001) > OBNptrFile(1) = 'Trac01_obN.bin',
(PID.TID 0000.0001) > OBWptrFile(2) = 'Trac02_obW.bin',
(PID.TID 0000.0001) > OBEptrFile(2) = 'Trac02_obE.bin',
(PID.TID 0000.0001) > OBNptrFile(2) = 'Trac02_obN.bin',
(PID.TID 0000.0001) > OBWptrFile(3) = 'Trac03_obW.bin',
(PID.TID 0000.0001) > OBEptrFile(3) = 'Trac03_obE.bin',
(PID.TID 0000.0001) > OBNptrFile(3) = 'Trac03_obN.bin',
(PID.TID 0000.0001) > OBWptrFile(4) = 'Trac04_obW.bin',
(PID.TID 0000.0001) > OBEptrFile(4) = 'Trac04_obE.bin',
(PID.TID 0000.0001) > OBNptrFile(4) = 'Trac04_obN.bin',
(PID.TID 0000.0001) > OBWptrFile(5) = 'Trac05_obW.bin',
(PID.TID 0000.0001) > OBEptrFile(5) = 'Trac05_obE.bin',
(PID.TID 0000.0001) > OBNptrFile(5) = 'Trac05_obN.bin',
(PID.TID 0000.0001) >#OBCS_monitorFreq= 1200.,
(PID.TID 0000.0001) > OBCS_monSelect = 1,
(PID.TID 0000.0001) > /
(PID.TID 0000.0001) >
(PID.TID 0000.0001) ># Orlanski parameters
(PID.TID 0000.0001) > &OBCS_PARM02
(PID.TID 0000.0001) >#Cmax=0.45,
(PID.TID 0000.0001) >#cVelTimeScale=1000.,
(PID.TID 0000.0001) > /
(PID.TID 0000.0001) 
(PID.TID 0000.0001)  OBCS_READPARMS: finished reading data.obcs
(PID.TID 0000.0001)  OB_indexUnset = /* unset OB index value (i.e. no OB) */
(PID.TID 0000.0001)                       0
(PID.TID 0000.0001)     ;
(PID.TID 0000.0001)  Northern OB global indices : OB_Jnorth =
(PID.TID 0000.0001)    42 @       20                            /* I =  1: 42 */
(PID.TID 0000.0001)  Southern OB global indices : OB_Jsouth =
(PID.TID 0000.0001)    42 @        0                            /* I =  1: 42 */
(PID.TID 0000.0001)  Eastern  OB global indices : OB_Ieast =
(PID.TID 0000.0001)    20 @       42                            /* J =  1: 20 */
(PID.TID 0000.0001)  Western  OB global indices : OB_Iwest =
(PID.TID 0000.0001)    20 @        1                            /* J =  1: 20 */
(PID.TID 0000.0001) 
(PID.TID 0000.0001)  GM_READPARMS: opening data.gmredi
(PID.TID 0000.0001)  OPEN_COPY_DATA_FILE: opening file data.gmredi
(PID.TID 0000.0001) // =======================================================
(PID.TID 0000.0001) // Parameter file "data.gmredi"
(PID.TID 0000.0001) // =======================================================
(PID.TID 0000.0001) ># from MOM
(PID.TID 0000.0001) ># GM_background_K: 	isopycnal diffusion coefficien
(PID.TID 0000.0001) ># GM_maxSlope:		max slope of isopycnals
(PID.TID 0000.0001) ># GM_Scrit:		transition for scaling diffusion coefficient
(PID.TID 0000.0001) ># GM_Sd:		half width scaling for diffusion coefficient
(PID.TID 0000.0001) ># real background diff:	horizontal diffusion
(PID.TID 0000.0001) >
(PID.TID 0000.0001) ># ifdef GM_VISBECK_VARIABLE_K, include following in GM_PARM01
(PID.TID 0000.0001) ># GM_Visbeck_alpha   = 0.,
(PID.TID 0000.0001) ># GM_Visbeck_length  = 2.e+5,
(PID.TID 0000.0001) ># GM_Visbeck_depth   = 1.e+3,
(PID.TID 0000.0001) ># GM_Visbeck_maxval_K= 2.5e+3,
(PID.TID 0000.0001) >
(PID.TID 0000.0001) > &GM_PARM01
(PID.TID 0000.0001) >  GM_AdvForm         = .TRUE.,
(PID.TID 0000.0001) >  GM_background_K    = 1.e+3,
(PID.TID 0000.0001) >  GM_taper_scheme    = 'gkw91',
(PID.TID 0000.0001) >  GM_maxSlope        = 1.e-2,
(PID.TID 0000.0001) >  GM_Kmin_horiz      = 100.,
(PID.TID 0000.0001) >  GM_Scrit           = 4.e-3,
(PID.TID 0000.0001) >  GM_Sd              = 1.e-3,
(PID.TID 0000.0001) > /
(PID.TID 0000.0001) 
(PID.TID 0000.0001)  GM_READPARMS: finished reading data.gmredi
(PID.TID 0000.0001)  PTRACERS_READPARMS: opening data.ptracers
(PID.TID 0000.0001)  OPEN_COPY_DATA_FILE: opening file data.ptracers
(PID.TID 0000.0001) // =======================================================
(PID.TID 0000.0001) // Parameter file "data.ptracers"
(PID.TID 0000.0001) // =======================================================
(PID.TID 0000.0001) > &PTRACERS_PARM01
(PID.TID 0000.0001) > PTRACERS_numInUse=5,
(PID.TID 0000.0001) > PTRACERS_Iter0= 0,
(PID.TID 0000.0001) ># tracer 1 - dic
(PID.TID 0000.0001) > PTRACERS_names(1)='DIC',
(PID.TID 0000.0001) > PTRACERS_long_names(1)='Dissolved Inorganic Carbon (DIC) [mol C/m^3]',
(PID.TID 0000.0001) > PTRACERS_units(1)='mol/m^3',
(PID.TID 0000.0001) > PTRACERS_advScheme(1)=77,
(PID.TID 0000.0001) > PTRACERS_diffKh(1)=0.E3,
(PID.TID 0000.0001) > PTRACERS_diffKr(1)=3.E-5,
(PID.TID 0000.0001) > PTRACERS_useGMRedi(1)=.TRUE.,
(PID.TID 0000.0001) > PTRACERS_initialFile(1)='Trac01_ini.bin',
(PID.TID 0000.0001) >#- use F95 syntax (to be converted with -DNML_EXTENDED_F77 if needed)
(PID.TID 0000.0001) > PTRACERS_ref(1:15,1) = 2.0282, 2.0609, 2.1206, 2.1581,
(PID.TID 0000.0001) >                     2.1904, 2.2188, 2.2474, 2.2699,
(PID.TID 0000.0001) >                     2.2792, 2.2814, 2.2815, 2.2806,
(PID.TID 0000.0001) >                     2.2800, 2.2760, 2.2758,
(PID.TID 0000.0001) > PTRACERS_EvPrRn(1)= 0.,
(PID.TID 0000.0001) ># tracer 2 - alk
(PID.TID 0000.0001) > PTRACERS_names(2)='Alk',
(PID.TID 0000.0001) > PTRACERS_long_names(2)='Alkalinity (Alk) [mol eq/m^3]',
(PID.TID 0000.0001) > PTRACERS_units(2)='mol/m^3',
(PID.TID 0000.0001) > PTRACERS_advScheme(2)=77,
(PID.TID 0000.0001) > PTRACERS_diffKh(2)=0.E3,
(PID.TID 0000.0001) > PTRACERS_diffKr(2)=3.E-5,
(PID.TID 0000.0001) > PTRACERS_useGMRedi(2)=.TRUE.,
(PID.TID 0000.0001) > PTRACERS_initialFile(2)='Trac02_ini.bin',
(PID.TID 0000.0001) >#- use F95 syntax (to be converted with -DNML_EXTENDED_F77 if needed)
(PID.TID 0000.0001) > PTRACERS_ref(1:15,2) = 2.3086, 2.3149, 2.3164, 2.3112,
(PID.TID 0000.0001) >                     2.3098, 2.3160, 2.3313, 2.3517,
(PID.TID 0000.0001) >                     2.3667, 2.3761, 2.3832, 2.3862,
(PID.TID 0000.0001) >                     2.3881, 2.3863, 2.3867,
(PID.TID 0000.0001) > PTRACERS_EvPrRn(2)= 0.,
(PID.TID 0000.0001) ># tracer 3 - po4
(PID.TID 0000.0001) > PTRACERS_names(3)='PO4',
(PID.TID 0000.0001) > PTRACERS_long_names(3)='Phosphate (PO4) [mol P/m^3]',
(PID.TID 0000.0001) > PTRACERS_units(3)='mol/m^3',
(PID.TID 0000.0001) > PTRACERS_advScheme(3)=77,
(PID.TID 0000.0001) > PTRACERS_diffKh(3)=0.E3,
(PID.TID 0000.0001) > PTRACERS_diffKr(3)=3.E-5,
(PID.TID 0000.0001) > PTRACERS_useGMRedi(3)=.TRUE.,
(PID.TID 0000.0001) > PTRACERS_initialFile(3)='Trac03_ini.bin',
(PID.TID 0000.0001) >#- use F95 syntax (to be converted with -DNML_EXTENDED_F77 if needed)
(PID.TID 0000.0001) > PTRACERS_ref(1:15,3) = 0.5438E-3, 0.7821E-3, 1.1335E-3, 1.4913E-3,
(PID.TID 0000.0001) >                     1.8606E-3, 2.1986E-3, 2.3966E-3, 2.4187E-3,
(PID.TID 0000.0001) >                     2.4046E-3, 2.3291E-3, 2.2922E-3, 2.2886E-3,
(PID.TID 0000.0001) >                     2.2608E-3, 2.2356E-3, 2.2296E-3,
(PID.TID 0000.0001) >#PTRACERS_EvPrRn(3)= 0.,
(PID.TID 0000.0001) ># tracer 4 - dop
(PID.TID 0000.0001) > PTRACERS_names(4)='DOP',
(PID.TID 0000.0001) > PTRACERS_long_names(4)='Dissolved Organic Phosphorus (DOP) [mol P/m^3]',
(PID.TID 0000.0001) > PTRACERS_units(4)='mol/m^3',
(PID.TID 0000.0001) > PTRACERS_advScheme(4)=77,
(PID.TID 0000.0001) > PTRACERS_diffKh(4)=0.E3,
(PID.TID 0000.0001) > PTRACERS_diffKr(4)=3.E-5,
(PID.TID 0000.0001) > PTRACERS_useGMRedi(4)=.TRUE.,
(PID.TID 0000.0001) > PTRACERS_initialFile(4)='Trac04_ini.bin',
(PID.TID 0000.0001) >#- use F95 syntax (to be converted with -DNML_EXTENDED_F77 if needed)
(PID.TID 0000.0001) > PTRACERS_ref(1:15,4) = 15*0.,
(PID.TID 0000.0001) >#PTRACERS_EvPrRn(4)= 0.,
(PID.TID 0000.0001) ># tracer 5 - o2
(PID.TID 0000.0001) > PTRACERS_names(5)='O2',
(PID.TID 0000.0001) > PTRACERS_long_names(5)='Dissolved Oxygen (O2) [mol O/m^3]',
(PID.TID 0000.0001) > PTRACERS_units(5)='mol/m^3',
(PID.TID 0000.0001) > PTRACERS_advScheme(5)=77,
(PID.TID 0000.0001) > PTRACERS_diffKh(5)=0.E3,
(PID.TID 0000.0001) > PTRACERS_diffKr(5)=3.E-5,
(PID.TID 0000.0001) > PTRACERS_useGMRedi(5)=.TRUE.,
(PID.TID 0000.0001) > PTRACERS_initialFile(5)='Trac05_ini.bin',
(PID.TID 0000.0001) >#- use F95 syntax (to be converted with -DNML_EXTENDED_F77 if needed)
(PID.TID 0000.0001) > PTRACERS_ref(1:15,5) = 0.2457, 0.2336, 0.1975, 0.1729,
(PID.TID 0000.0001) >                     0.1591, 0.1503, 0.1424, 0.1445,
(PID.TID 0000.0001) >                     0.1549, 0.1661, 0.1774, 0.1863,
(PID.TID 0000.0001) >                     0.1925, 0.2021, 0.2051,
(PID.TID 0000.0001) >#PTRACERS_EvPrRn(5)= 0.,
(PID.TID 0000.0001) > /
(PID.TID 0000.0001) 
(PID.TID 0000.0001)  PTRACERS_READPARMS: finished reading data.ptracers
(PID.TID 0000.0001)  GCHEM_READPARMS: opening data.gchem
(PID.TID 0000.0001)  OPEN_COPY_DATA_FILE: opening file data.gchem
(PID.TID 0000.0001) // =======================================================
(PID.TID 0000.0001) // Parameter file "data.gchem"
(PID.TID 0000.0001) // =======================================================
(PID.TID 0000.0001) > &GCHEM_PARM01
(PID.TID 0000.0001) >  useDIC=.TRUE.,
(PID.TID 0000.0001) >  nsubtime=1,
(PID.TID 0000.0001) > /
(PID.TID 0000.0001) 
(PID.TID 0000.0001)  GCHEM_READPARMS: finished reading data.gchem
(PID.TID 0000.0001)  DIC_READPARMS: opening data.dic
(PID.TID 0000.0001)  OPEN_COPY_DATA_FILE: opening file data.dic
(PID.TID 0000.0001) // =======================================================
(PID.TID 0000.0001) // Parameter file "data.dic"
(PID.TID 0000.0001) // =======================================================
(PID.TID 0000.0001) ># DIC parameters
(PID.TID 0000.0001) > &ABIOTIC_PARMS
(PID.TID 0000.0001) > /
(PID.TID 0000.0001) >
(PID.TID 0000.0001) > &BIOTIC_PARMS
(PID.TID 0000.0001) >  alphaUniform = 0.97e-10,
(PID.TID 0000.0001) >  rainRatioUniform = 5.e-2,
(PID.TID 0000.0001) >  KRemin = 0.95,
(PID.TID 0000.0001) > /
(PID.TID 0000.0001) >
(PID.TID 0000.0001) > &DIC_FORCING
(PID.TID 0000.0001) >  DIC_iceFile='fice_box.bin',
(PID.TID 0000.0001) >  DIC_windFile='tren_speed_box.bin',
(PID.TID 0000.0001) >  DIC_silicaFile='sillev1_box.bin',
(PID.TID 0000.0001) > /
(PID.TID 0000.0001) 
(PID.TID 0000.0001)  DIC_READPARMS: finished reading data.dic
(PID.TID 0000.0001) 
(PID.TID 0000.0001) // ===================================
(PID.TID 0000.0001) // DIC package parameters :
(PID.TID 0000.0001) // ===================================
(PID.TID 0000.0001) permil = /* Ref. density to convert mol/m3 to mol/kg */
(PID.TID 0000.0001)                 9.760858955588092E-04
(PID.TID 0000.0001)     ;
(PID.TID 0000.0001) Pa2Atm = /* Atmosph. pressure conversion coeff (to Atm) */
(PID.TID 0000.0001)                 1.013250000000000E+05
(PID.TID 0000.0001)     ;
(PID.TID 0000.0001) DOPfraction = /* Fraction of new production going to DOP */
(PID.TID 0000.0001)                 6.700000000000000E-01
(PID.TID 0000.0001)     ;
(PID.TID 0000.0001) KDOPRemin = /* DOP remineralization rate (1/s) */
(PID.TID 0000.0001)                 6.430041152263375E-08
(PID.TID 0000.0001)     ;
(PID.TID 0000.0001) KRemin = /* Remin power law coeff. */
(PID.TID 0000.0001)                 9.500000000000000E-01
(PID.TID 0000.0001)     ;
(PID.TID 0000.0001) zcrit = /* Minimum depth for biological activity (m) */
(PID.TID 0000.0001)                 5.000000000000000E+02
(PID.TID 0000.0001)     ;
(PID.TID 0000.0001) O2crit = /* Critical oxygen level (mol/m3) */
(PID.TID 0000.0001)                 4.000000000000000E-03
(PID.TID 0000.0001)     ;
(PID.TID 0000.0001) R_OP = /* Stochiometric ratio R_OP */
(PID.TID 0000.0001)                -1.700000000000000E+02
(PID.TID 0000.0001)     ;
(PID.TID 0000.0001) R_CP = /* Stochiometric ratio R_CP */
(PID.TID 0000.0001)                 1.170000000000000E+02
(PID.TID 0000.0001)     ;
(PID.TID 0000.0001) R_NP = /* Stochiometric ratio R_NP */
(PID.TID 0000.0001)                 1.600000000000000E+01
(PID.TID 0000.0001)     ;
(PID.TID 0000.0001) R_FeP = /* Stochiometric ratio R_FeP */
(PID.TID 0000.0001)                 4.680000000000000E-04
(PID.TID 0000.0001)     ;
(PID.TID 0000.0001) zca = /* Scale depth for CaCO3 remineralization (m) */
(PID.TID 0000.0001)                 3.500000000000000E+03
(PID.TID 0000.0001)     ;
(PID.TID 0000.0001) parfrac = /* Fraction of Qsw that is PAR */
(PID.TID 0000.0001)                 4.000000000000000E-01
(PID.TID 0000.0001)     ;
(PID.TID 0000.0001) k0 = /* Light attentuation coefficient (1/m) */
(PID.TID 0000.0001)                 2.000000000000000E-02
(PID.TID 0000.0001)     ;
(PID.TID 0000.0001) lit0 = /* Half saturation light constant (W/m2) */
(PID.TID 0000.0001)                 3.000000000000000E+01
(PID.TID 0000.0001)     ;
(PID.TID 0000.0001) KPO4 = /* Half saturation phosphate constant (mol/m3) */
(PID.TID 0000.0001)                 5.000000000000000E-04
(PID.TID 0000.0001)     ;
(PID.TID 0000.0001) KFE = /* Half saturation fe constant (mol/m3) */
(PID.TID 0000.0001)                 1.200000000000000E-07
(PID.TID 0000.0001)     ;
(PID.TID 0000.0001) alpfe = /* Solubility of aeolian fe */
(PID.TID 0000.0001)                 1.000000000000000E-02
(PID.TID 0000.0001)     ;
(PID.TID 0000.0001) freefemax = /* Max solubility of free iron (mol/m3) */
(PID.TID 0000.0001)                 3.000000000000000E-07
(PID.TID 0000.0001)     ;
(PID.TID 0000.0001) KScav = /* Iron scavenging rate */
(PID.TID 0000.0001)                 6.108539094650206E-09
(PID.TID 0000.0001)     ;
(PID.TID 0000.0001) ligand_stab = /* Ligand-free iron stability constant (m3/mol) */
(PID.TID 0000.0001)                 1.000000000000000E+08
(PID.TID 0000.0001)     ;
(PID.TID 0000.0001) ligand_tot = /* Total free ligand  (mol/m3) */
(PID.TID 0000.0001)                 1.000000000000000E-06
(PID.TID 0000.0001)     ;
(PID.TID 0000.0001) alphaUniform = /* Timescale for biological activity */
(PID.TID 0000.0001)                 9.700000000000000E-11
(PID.TID 0000.0001)     ;
(PID.TID 0000.0001) rainRatioUniform= /* Inorganic/organic carbon rain ratio */
(PID.TID 0000.0001)                 5.000000000000000E-02
(PID.TID 0000.0001)     ;
(PID.TID 0000.0001) QSW_underice  =  /* Flag for Qsw under Sea-Ice (i.e. SI fract included) */
(PID.TID 0000.0001)                   F
(PID.TID 0000.0001)     ;
(PID.TID 0000.0001) DIC_windFile =  /* File name of wind speeds */
(PID.TID 0000.0001)               'tren_speed_box.bin'
(PID.TID 0000.0001)     ;
(PID.TID 0000.0001) DIC_atmospFile=  /* File name of atmospheric pressure*/
(PID.TID 0000.0001)               ''
(PID.TID 0000.0001)     ;
(PID.TID 0000.0001) DIC_iceFile =  /* File name of seaice fraction */
(PID.TID 0000.0001)               'fice_box.bin'
(PID.TID 0000.0001)     ;
(PID.TID 0000.0001) DIC_ironFile =  /* File name of aeolian iron flux */
(PID.TID 0000.0001)               ''
(PID.TID 0000.0001)     ;
(PID.TID 0000.0001) DIC_silicaFile=  /* File name of surface silica */
(PID.TID 0000.0001)               'sillev1_box.bin'
(PID.TID 0000.0001)     ;
(PID.TID 0000.0001) DIC_parFile=  /* File name of photosynthetically available radiation */
(PID.TID 0000.0001)               ''
(PID.TID 0000.0001)     ;
(PID.TID 0000.0001) DIC_forcingPeriod = /* Periodic forcing parameter specific for DIC (s) */
(PID.TID 0000.0001)                 2.592000000000000E+06
(PID.TID 0000.0001)     ;
(PID.TID 0000.0001) DIC_forcingCycle = /* Periodic forcing parameter specific for DIC (s) */
(PID.TID 0000.0001)                 3.110400000000000E+07
(PID.TID 0000.0001)     ;
(PID.TID 0000.0001) dic_int1 =  /*  */
(PID.TID 0000.0001)                       0
(PID.TID 0000.0001)     ;
(PID.TID 0000.0001) dic_int2 =  /*  */
(PID.TID 0000.0001)                       0
(PID.TID 0000.0001)     ;
(PID.TID 0000.0001) dic_int3 =  /*  */
(PID.TID 0000.0001)                       0
(PID.TID 0000.0001)     ;
(PID.TID 0000.0001) dic_int4 =  /*  */
(PID.TID 0000.0001)                       0
(PID.TID 0000.0001)     ;
(PID.TID 0000.0001) dic_pCO2 = /* Atmospheric pCO2 to be read in data.dic */
(PID.TID 0000.0001)                 2.780000000000000E-04
(PID.TID 0000.0001)     ;
(PID.TID 0000.0001)  DIAGNOSTICS_READPARMS: opening data.diagnostics
(PID.TID 0000.0001)  OPEN_COPY_DATA_FILE: opening file data.diagnostics
(PID.TID 0000.0001) // =======================================================
(PID.TID 0000.0001) // Parameter file "data.diagnostics"
(PID.TID 0000.0001) // =======================================================
(PID.TID 0000.0001) ># Diagnostic Package Choices
(PID.TID 0000.0001) >#--------------------
(PID.TID 0000.0001) >#  dumpAtLast (logical): always write output at the end of simulation (default=F)
(PID.TID 0000.0001) >#  diag_mnc   (logical): write to NetCDF files (default=useMNC)
(PID.TID 0000.0001) >#--for each output-stream:
(PID.TID 0000.0001) >#  fileName(n) : prefix of the output file name (max 80c long) for outp.stream n
(PID.TID 0000.0001) >#  frequency(n):< 0 : write snap-shot output every |frequency| seconds
(PID.TID 0000.0001) >#               > 0 : write time-average output every frequency seconds
(PID.TID 0000.0001) >#  timePhase(n)     : write at time = timePhase + multiple of |frequency|
(PID.TID 0000.0001) >#    averagingFreq  : frequency (in s) for periodic averaging interval
(PID.TID 0000.0001) >#    averagingPhase : phase     (in s) for periodic averaging interval
(PID.TID 0000.0001) >#    repeatCycle    : number of averaging intervals in 1 cycle
(PID.TID 0000.0001) >#  levels(:,n) : list of levels to write to file (Notes: declared as REAL)
(PID.TID 0000.0001) >#                when this entry is missing, select all common levels of this list
(PID.TID 0000.0001) >#  fields(:,n) : list of selected diagnostics fields (8.c) in outp.stream n
(PID.TID 0000.0001) >#                (see "available_diagnostics.log" file for the full list of diags)
(PID.TID 0000.0001) >#  missing_value(n) : missing value for real-type fields in output file "n"
(PID.TID 0000.0001) >#  fileFlags(n)     : specific code (8c string) for output file "n"
(PID.TID 0000.0001) >#--------------------
(PID.TID 0000.0001) > &DIAGNOSTICS_LIST
(PID.TID 0000.0001) >  fields(1:10,1) = 'ETAN    ','ETANSQ  ','DETADT2 ','PHIBOT  ','PHIBOTSQ',
(PID.TID 0000.0001) >                   'DICTFLX ','DICOFLX ','DICCFLX ','DICPCO2 ','DICPHAV ',
(PID.TID 0000.0001) >   levels(1,1) = 1.,
(PID.TID 0000.0001) >   fileName(1) = 'surfDiag',
(PID.TID 0000.0001) >  frequency(1) = 2592000.,
(PID.TID 0000.0001) ># frequency(1) = 432000.,
(PID.TID 0000.0001) >  fields(1:12,2) = 'VVELMASS','UVELMASS','THETA   ','SALT    ',
(PID.TID 0000.0001) >                   'TRAC01  ','TRAC02  ','TRAC03  ','TRAC04  ','TRAC05  ',
(PID.TID 0000.0001) >                   'GM_PsiX ','GM_PsiY ','CONVADJ ',
(PID.TID 0000.0001) >   fileName(2) = 'dynDiag',
(PID.TID 0000.0001) >  frequency(2) = 2592000.,
(PID.TID 0000.0001) >  fields(1:5,3)  = 'DICBIOA ','DICCARB ',
(PID.TID 0000.0001) >                   'TRAC05  ','ADVxTr05','DFrITr05',
(PID.TID 0000.0001) >#  fileName(3) = 'dicDiag',
(PID.TID 0000.0001) >  frequency(3) = 2592000.,
(PID.TID 0000.0001) >  fields(1:8,4)  = 'ADVx_TH ','ADVy_TH ','ADVr_TH ',
(PID.TID 0000.0001) >                   'DFxE_TH ','DFyE_TH ','DFrE_TH ','DFrI_TH ',
(PID.TID 0000.0001) >                   'ADVx_SLT',
(PID.TID 0000.0001) >#  fileName(4) = 'flxDiag',
(PID.TID 0000.0001) >  frequency(4) = 0.,
(PID.TID 0000.0001) > /
(PID.TID 0000.0001) >
(PID.TID 0000.0001) >#--------------------
(PID.TID 0000.0001) ># Parameter for Diagnostics of per level statistics:
(PID.TID 0000.0001) >#--------------------
(PID.TID 0000.0001) >#  diagSt_mnc (logical): write stat-diags to NetCDF files (default=diag_mnc)
(PID.TID 0000.0001) >#  diagSt_regMaskFile : file containing the region-mask to read-in
(PID.TID 0000.0001) >#  nSetRegMskFile   : number of region-mask sets within the region-mask file
(PID.TID 0000.0001) >#  set_regMask(i)   : region-mask set-index that identifies the region "i"
(PID.TID 0000.0001) >#  val_regMask(i)   : region "i" identifier value in the region mask
(PID.TID 0000.0001) >#--for each output-stream:
(PID.TID 0000.0001) >#  stat_fName(n) : prefix of the output file name (max 80c long) for outp.stream n
(PID.TID 0000.0001) >#  stat_freq(n):< 0 : write snap-shot output every |stat_freq| seconds
(PID.TID 0000.0001) >#               > 0 : write time-average output every stat_freq seconds
(PID.TID 0000.0001) >#  stat_phase(n)    : write at time = stat_phase + multiple of |stat_freq|
(PID.TID 0000.0001) >#  stat_region(:,n) : list of "regions" (default: 1 region only=global)
(PID.TID 0000.0001) >#  stat_fields(:,n) : list of selected diagnostics fields (8.c) in outp.stream n
(PID.TID 0000.0001) >#                (see "available_diagnostics.log" file for the full list of diags)
(PID.TID 0000.0001) >#--------------------
(PID.TID 0000.0001) > &DIAG_STATIS_PARMS
(PID.TID 0000.0001) >#---
(PID.TID 0000.0001) > stat_fields(1:15,1) = 'ETAN    ','DETADT2 ','THETA   ','SALT    ','CONVADJ ',
(PID.TID 0000.0001) >                       'UVEL    ','VVEL    ','WVEL    ','GM_PsiX ','GM_PsiY ',
(PID.TID 0000.0001) >                       'TRAC01  ','TRAC02  ','TRAC03  ','TRAC04  ','TRAC05  ',
(PID.TID 0000.0001) >  stat_fName(1) = 'dynStDiag',
(PID.TID 0000.0001) >   stat_freq(1) = 432000.,
(PID.TID 0000.0001) >  stat_phase(1) = 0.,
(PID.TID 0000.0001) > /
(PID.TID 0000.0001) 
(PID.TID 0000.0001) S/R DIAGNOSTICS_READPARMS, read namelist "diagnostics_list": start
(PID.TID 0000.0001) S/R DIAGNOSTICS_READPARMS, read namelist "diagnostics_list": OK
(PID.TID 0000.0001) S/R DIAGNOSTICS_READPARMS, read namelist "DIAG_STATIS_PARMS": start
(PID.TID 0000.0001) S/R DIAGNOSTICS_READPARMS, read namelist "DIAG_STATIS_PARMS": OK
(PID.TID 0000.0001)  DIAGNOSTICS_READPARMS: global parameter summary:
(PID.TID 0000.0001)  dumpAtLast = /* always write time-ave diags at the end */
(PID.TID 0000.0001)                   F
(PID.TID 0000.0001)     ;
(PID.TID 0000.0001)  diag_mnc =   /* write NetCDF output files */
(PID.TID 0000.0001)                   F
(PID.TID 0000.0001)     ;
(PID.TID 0000.0001)  useMissingValue = /* put MissingValue where mask = 0 */
(PID.TID 0000.0001)                   F
(PID.TID 0000.0001)     ;
(PID.TID 0000.0001)  diagCG_maxIters = /* max number of iters in diag_cg2d */
(PID.TID 0000.0001)                    1000
(PID.TID 0000.0001)     ;
(PID.TID 0000.0001)  diagCG_resTarget = /* residual target for diag_cg2d */
(PID.TID 0000.0001)                 1.000000000000000E-13
(PID.TID 0000.0001)     ;
(PID.TID 0000.0001) -----------------------------------------------------
(PID.TID 0000.0001)  DIAGNOSTICS_READPARMS: active diagnostics summary:
(PID.TID 0000.0001) -----------------------------------------------------
(PID.TID 0000.0001) Creating Output Stream: surfDiag
(PID.TID 0000.0001) Output Frequency:    2592000.000000 ; Phase:           0.000000
(PID.TID 0000.0001)  Averaging Freq.:    2592000.000000 , Phase:           0.000000 , Cycle:   1
(PID.TID 0000.0001)  missing value: -9.990000000000E+02
(PID.TID 0000.0001)  Levels:       1.
(PID.TID 0000.0001)  Fields:    ETAN     ETANSQ   DETADT2  PHIBOT   PHIBOTSQ DICTFLX  DICOFLX  DICCFLX  DICPCO2  DICPHAV
(PID.TID 0000.0001) Creating Output Stream: dynDiag
(PID.TID 0000.0001) Output Frequency:    2592000.000000 ; Phase:           0.000000
(PID.TID 0000.0001)  Averaging Freq.:    2592000.000000 , Phase:           0.000000 , Cycle:   1
(PID.TID 0000.0001)  missing value: -9.990000000000E+02
(PID.TID 0000.0001)  Levels:    will be set later
(PID.TID 0000.0001)  Fields:    VVELMASS UVELMASS THETA    SALT     TRAC01   TRAC02   TRAC03   TRAC04   TRAC05   GM_PsiX
(PID.TID 0000.0001)  Fields:    GM_PsiY  CONVADJ
(PID.TID 0000.0001) -----------------------------------------------------
(PID.TID 0000.0001)  DIAGNOSTICS_READPARMS: statistics diags. summary:
(PID.TID 0000.0001) Creating Stats. Output Stream: dynStDiag
(PID.TID 0000.0001) Output Frequency:     432000.000000 ; Phase:           0.000000
(PID.TID 0000.0001)  Regions:   0
(PID.TID 0000.0001)  Fields:    ETAN     DETADT2  THETA    SALT     CONVADJ  UVEL     VVEL     WVEL     GM_PsiX  GM_PsiY
(PID.TID 0000.0001)  Fields:    TRAC01   TRAC02   TRAC03   TRAC04   TRAC05
(PID.TID 0000.0001) -----------------------------------------------------
(PID.TID 0000.0001) 
(PID.TID 0000.0001) SET_PARMS: done
(PID.TID 0000.0001) Enter INI_VERTICAL_GRID: setInterFDr=    T ; setCenterDr=    F
(PID.TID 0000.0001) %MON XC_max                       =   3.5296875000000E+02
(PID.TID 0000.0001) %MON XC_min                       =   2.3765625000000E+02
(PID.TID 0000.0001) %MON XC_mean                      =   2.9531250000000E+02
(PID.TID 0000.0001) %MON XC_sd                        =   3.4090083441706E+01
(PID.TID 0000.0001) %MON XG_max                       =   3.5156250000000E+02
(PID.TID 0000.0001) %MON XG_min                       =   2.3625000000000E+02
(PID.TID 0000.0001) %MON XG_mean                      =   2.9390625000000E+02
(PID.TID 0000.0001) %MON XG_sd                        =   3.4090083441706E+01
(PID.TID 0000.0001) %MON DXC_max                      =   2.7929930890376E+05
(PID.TID 0000.0001) %MON DXC_min                      =   5.3457499214614E+04
(PID.TID 0000.0001) %MON DXC_mean                     =   1.7889438140789E+05
(PID.TID 0000.0001) %MON DXC_sd                       =   6.9711490203249E+04
(PID.TID 0000.0001) %MON DXF_max                      =   2.7929930890376E+05
(PID.TID 0000.0001) %MON DXF_min                      =   5.3457499214614E+04
(PID.TID 0000.0001) %MON DXF_mean                     =   1.7889438140789E+05
(PID.TID 0000.0001) %MON DXF_sd                       =   6.9711490203249E+04
(PID.TID 0000.0001) %MON DXG_max                      =   2.7576500024724E+05
(PID.TID 0000.0001) %MON DXG_min                      =   4.5880659601012E+04
(PID.TID 0000.0001) %MON DXG_mean                     =   1.7292088380237E+05
(PID.TID 0000.0001) %MON DXG_sd                       =   7.0928664230424E+04
(PID.TID 0000.0001) %MON DXV_max                      =   2.7576500024724E+05
(PID.TID 0000.0001) %MON DXV_min                      =   4.5880659601012E+04
(PID.TID 0000.0001) %MON DXV_mean                     =   1.7292088380237E+05
(PID.TID 0000.0001) %MON DXV_sd                       =   7.0928664230424E+04
(PID.TID 0000.0001) %MON YC_max                       =  -2.6718750000000E+01
(PID.TID 0000.0001) %MON YC_min                       =  -8.0156250000000E+01
(PID.TID 0000.0001) %MON YC_mean                      =  -5.3437500000000E+01
(PID.TID 0000.0001) %MON YC_sd                        =   1.6217666148756E+01
(PID.TID 0000.0001) %MON YG_max                       =  -2.8125000000000E+01
(PID.TID 0000.0001) %MON YG_min                       =  -8.1562500000000E+01
(PID.TID 0000.0001) %MON YG_mean                      =  -5.4843750000000E+01
(PID.TID 0000.0001) %MON YG_sd                        =   1.6217666148756E+01
(PID.TID 0000.0001) %MON DYC_max                      =   3.1268664380261E+05
(PID.TID 0000.0001) %MON DYC_min                      =   3.1268664380261E+05
(PID.TID 0000.0001) %MON DYC_mean                     =   3.1268664380261E+05
(PID.TID 0000.0001) %MON DYC_sd                       =   6.9849193096161E-10
(PID.TID 0000.0001) %MON DYF_max                      =   3.1268664380261E+05
(PID.TID 0000.0001) %MON DYF_min                      =   3.1268664380261E+05
(PID.TID 0000.0001) %MON DYF_mean                     =   3.1268664380261E+05
(PID.TID 0000.0001) %MON DYF_sd                       =   6.9849193096161E-10
(PID.TID 0000.0001) %MON DYG_max                      =   3.1268664380261E+05
(PID.TID 0000.0001) %MON DYG_min                      =   3.1268664380261E+05
(PID.TID 0000.0001) %MON DYG_mean                     =   3.1268664380261E+05
(PID.TID 0000.0001) %MON DYG_sd                       =   6.9849193096161E-10
(PID.TID 0000.0001) %MON DYU_max                      =   3.1268664380261E+05
(PID.TID 0000.0001) %MON DYU_min                      =   3.1268664380261E+05
(PID.TID 0000.0001) %MON DYU_mean                     =   3.1268664380261E+05
(PID.TID 0000.0001) %MON DYU_sd                       =   6.9849193096161E-10
(PID.TID 0000.0001) %MON RA_max                       =   8.7324395636096E+10
(PID.TID 0000.0001) %MON RA_min                       =   1.6713767855193E+10
(PID.TID 0000.0001) %MON RA_mean                      =   5.5932267789893E+10
(PID.TID 0000.0001) %MON RA_sd                        =   2.1795663493704E+10
(PID.TID 0000.0001) %MON RAW_max                      =   8.7324395636096E+10
(PID.TID 0000.0001) %MON RAW_min                      =   1.6713767855193E+10
(PID.TID 0000.0001) %MON RAW_mean                     =   5.5932267789893E+10
(PID.TID 0000.0001) %MON RAW_sd                       =   2.1795663493704E+10
(PID.TID 0000.0001) %MON RAS_max                      =   8.6219375474631E+10
(PID.TID 0000.0001) %MON RAS_min                      =   1.4344829161122E+10
(PID.TID 0000.0001) %MON RAS_mean                     =   5.4064622394411E+10
(PID.TID 0000.0001) %MON RAS_sd                       =   2.2176219345146E+10
(PID.TID 0000.0001) %MON RAZ_max                      =   8.6219375474631E+10
(PID.TID 0000.0001) %MON RAZ_min                      =   1.4344829161122E+10
(PID.TID 0000.0001) %MON RAZ_mean                     =   5.4064622394411E+10
(PID.TID 0000.0001) %MON RAZ_sd                       =   2.2176219345146E+10
(PID.TID 0000.0001) %MON AngleCS_max                  =   1.0000000000000E+00
(PID.TID 0000.0001) %MON AngleCS_min                  =   1.0000000000000E+00
(PID.TID 0000.0001) %MON AngleCS_mean                 =   1.0000000000000E+00
(PID.TID 0000.0001) %MON AngleCS_sd                   =   0.0000000000000E+00
(PID.TID 0000.0001) %MON AngleSN_max                  =   0.0000000000000E+00
(PID.TID 0000.0001) %MON AngleSN_min                  =   0.0000000000000E+00
(PID.TID 0000.0001) %MON AngleSN_mean                 =   0.0000000000000E+00
(PID.TID 0000.0001) %MON AngleSN_sd                   =   0.0000000000000E+00
(PID.TID 0000.0001)  MDS_READ_FIELD: opening global file: bathy_box.bin
(PID.TID 0000.0001) // =======================================================
(PID.TID 0000.0001) // Field Model R_low (ini_masks_etc)
(PID.TID 0000.0001) // CMIN =         -5.200000000000000E+03
(PID.TID 0000.0001) // CMAX =         -5.000000000000000E+01
(PID.TID 0000.0001) // CINT =          1.907407407407407E+02
(PID.TID 0000.0001) // SYMBOLS (CMIN->CMAX): -abcdefghijklmnopqrstuvwxyz+
(PID.TID 0000.0001) //                  0.0: .
(PID.TID 0000.0001) // RANGE I (Lo:Hi:Step):(    -2:    45:     1)
(PID.TID 0000.0001) // RANGE J (Lo:Hi:Step):(    23:    -2:    -1)
(PID.TID 0000.0001) // RANGE K (Lo:Hi:Step):(   1:   1:   1)
(PID.TID 0000.0001) // =======================================================
(PID.TID 0000.0001) K =   1
(PID.TID 0000.0001) //                I=7       I=17      I=21      I=31      I=35      I=45
(PID.TID 0000.0001) // |--J--|210123456|890123456|234567890|234567890|678901234|678901234|
(PID.TID 0000.0001) //     23 ...............................+yyyyyyyyyyyyyyxxxyy.........
(PID.TID 0000.0001) //     22 ...............................++zz..zyxz..zyxy.............
(PID.TID 0000.0001) //     21 ............................................................
(PID.TID 0000.0001) //     20 kfeijklmkkjiiihihgffhihgffff........zole..zoledcaabdfhkfeijk
(PID.TID 0000.0001) //     19 lhehijlmkjihhhihggfeihggfeev........ohgf..ohgfqihdddfilhehij
(PID.TID 0000.0001) //     18 kfehhikmjjihhhihggfeihggfef+.......shgff.shgfflgiddfhkkfehhi
(PID.TID 0000.0001) //     17 jggfhhjmjiiiiihgggffhgggfff.......xfbbbdxfbbbdddffggjkjggfhh
(PID.TID 0000.0001) //     16 ljjeegjmjgfgijihggffihggffp......zfa-aaafa-aaaddddfgklljjeeg
(PID.TID 0000.0001) //     15 jhgeehkmihfefijihgggjihgggy......h------------abddfhkljhgeeh
(PID.TID 0000.0001) //     14 jggfghkljigeeefgikiifgikii+...++p---aaa---aaa--adddgjkjggfgh
(PID.TID 0000.0001) //     13 llifgjlljhgeeeeffhjkeffhjk....++j---------------addfgkllifgj
(PID.TID 0000.0001) //     12 jllhiklkihfedddddefidddefi....+zsqmb-afamb-afaaabddffhjllhik
(PID.TID 0000.0001) //     11 hjnjmljhhfedddddddfgddddfgj..+zzsqpnnqjipnnqjigifffdefhjnjml
(PID.TID 0000.0001) //     10 fijmljhhgeddddaadddfaadddfjlllkjihggjkmwggjkmwvjddfddefijmlj
(PID.TID 0000.0001) //      9 ffhggdddddccdddddddddddddddfihggggggkkjkggkkjkkjjodddeffhggd
(PID.TID 0000.0001) //      8 aa-baddaaaaaaaaabbbdaabbbddeghhgilolvxomolvxomnllkefgdaa-bad
(PID.TID 0000.0001) //     13 llifgjlljhgeeeeffhjkeffhjk....++j---------------addfgkllifgj
(PID.TID 0000.0001) //     12 jllhiklkihfedddddefidddefi....+zsqmb-afamb-afaaabddffhjllhik
(PID.TID 0000.0001) //     11 hjnjmljhhfedddddddfgddddfgj..+zzsqpnnqjipnnqjigifffdefhjnjml
(PID.TID 0000.0001) //     10 fijmljhhgeddddaadddfaadddfjlllkjihggjkmwggjkmwvjddfddefijmlj
(PID.TID 0000.0001) //      9 ffhggdddddccdddddddddddddddfihggggggkkjkggkkjkkjjodddeffhggd
(PID.TID 0000.0001) //      8 aa-baddaaaaaaaaabbbdaabbbddeghhgilolvxomolvxomnllkefgdaa-bad
(PID.TID 0000.0001) //      7 ---aaaaaddaaabdddddedddddefgill..zqjkigdqjkigddddddbaa---aaa
(PID.TID 0000.0001) //      6 aadddddddddddddddeegdddeeghpy...yxnhgeddnhgedddddddbaaaadddd
(PID.TID 0000.0001) //      5 dgnhigghffeddffilloxfilloxy....zyxoihgggoihgggdddddddddgnhig
(PID.TID 0000.0001) //      4 z..npvwvvwy++yyyyxxzyyyxxz......ywttqmigttqmigghggfflyz..npv
(PID.TID 0000.0001) //      3 ...............................+yyyyyyyyyyyyyyxxxyy.........
(PID.TID 0000.0001) //      2 ...............................++zz..zyxz..zyxy.............
(PID.TID 0000.0001) //      1 ............................................................
(PID.TID 0000.0001) //      0 kfeijklmkkjiiihihgffhihgffff........zole..zoledcaabdfhkfeijk
(PID.TID 0000.0001) //     -1 lhehijlmkjihhhihggfeihggfeev........ohgf..ohgfqihdddfilhehij
(PID.TID 0000.0001) //     -2 kfehhikmjjihhhihggfeihggfef+.......shgff.shgfflgiddfhkkfehhi
(PID.TID 0000.0001) // =======================================================
(PID.TID 0000.0001) // END OF FIELD                                          =
(PID.TID 0000.0001) // =======================================================
(PID.TID 0000.0001) 
(PID.TID 0000.0001) // =======================================================
(PID.TID 0000.0001) // Field Model Ro_surf (ini_masks_etc)
(PID.TID 0000.0001) // CMIN =          1.000000000000000E+32
(PID.TID 0000.0001) // CMAX =         -1.000000000000000E+32
(PID.TID 0000.0001) // CINT =          0.000000000000000E+00
(PID.TID 0000.0001) // SYMBOLS (CMIN->CMAX): -abcdefghijklmnopqrstuvwxyz+
(PID.TID 0000.0001) //                  0.0: .
(PID.TID 0000.0001) // RANGE I (Lo:Hi:Step):(    -2:    45:     1)
(PID.TID 0000.0001) // RANGE J (Lo:Hi:Step):(    23:    -2:    -1)
(PID.TID 0000.0001) // RANGE K (Lo:Hi:Step):(   1:   1:   1)
(PID.TID 0000.0001) // =======================================================
(PID.TID 0000.0001) // =======================================================
(PID.TID 0000.0001) // END OF FIELD                                          =
(PID.TID 0000.0001) // =======================================================
(PID.TID 0000.0001) 
(PID.TID 0000.0001) // =======================================================
(PID.TID 0000.0001) // Field hFacC at iteration          0
(PID.TID 0000.0001) // CMIN =          1.000000000000000E+00
(PID.TID 0000.0001) // CMAX =          1.000000000000000E+00
(PID.TID 0000.0001) // CINT =          0.000000000000000E+00
(PID.TID 0000.0001) // SYMBOLS (CMIN->CMAX): -abcdefghijklmnopqrstuvwxyz+
(PID.TID 0000.0001) //                  0.0: .
(PID.TID 0000.0001) // RANGE I (Lo:Hi:Step):(    -2:    45:     1)
(PID.TID 0000.0001) // RANGE J (Lo:Hi:Step):(    23:    -2:    -1)
(PID.TID 0000.0001) // RANGE K (Lo:Hi:Step):(   1:   1:   1)
(PID.TID 0000.0001) // =======================================================
(PID.TID 0000.0001) // =======================================================
(PID.TID 0000.0001) // END OF FIELD                                          =
(PID.TID 0000.0001) // =======================================================
(PID.TID 0000.0001) 
(PID.TID 0000.0001) // =======================================================
(PID.TID 0000.0001) // Field hFacW at iteration          0
(PID.TID 0000.0001) // CMIN =          1.000000000000000E+00
(PID.TID 0000.0001) // CMAX =          1.000000000000000E+00
(PID.TID 0000.0001) // CINT =          0.000000000000000E+00
(PID.TID 0000.0001) // SYMBOLS (CMIN->CMAX): -abcdefghijklmnopqrstuvwxyz+
(PID.TID 0000.0001) //                  0.0: .
(PID.TID 0000.0001) // RANGE I (Lo:Hi:Step):(    -2:    45:     1)
(PID.TID 0000.0001) // RANGE J (Lo:Hi:Step):(    23:    -2:    -1)
(PID.TID 0000.0001) // RANGE K (Lo:Hi:Step):(   1:   1:   1)
(PID.TID 0000.0001) // =======================================================
(PID.TID 0000.0001) // =======================================================
(PID.TID 0000.0001) // END OF FIELD                                          =
(PID.TID 0000.0001) // =======================================================
(PID.TID 0000.0001) 
(PID.TID 0000.0001) // =======================================================
(PID.TID 0000.0001) // Field hFacS at iteration          0
(PID.TID 0000.0001) // CMIN =          1.000000000000000E+00
(PID.TID 0000.0001) // CMAX =          1.000000000000000E+00
(PID.TID 0000.0001) // CINT =          0.000000000000000E+00
(PID.TID 0000.0001) // SYMBOLS (CMIN->CMAX): -abcdefghijklmnopqrstuvwxyz+
(PID.TID 0000.0001) //                  0.0: .
(PID.TID 0000.0001) // RANGE I (Lo:Hi:Step):(    -2:    45:     1)
(PID.TID 0000.0001) // RANGE J (Lo:Hi:Step):(    23:    -2:    -1)
(PID.TID 0000.0001) // RANGE K (Lo:Hi:Step):(   1:   1:   1)
(PID.TID 0000.0001) // =======================================================
(PID.TID 0000.0001) // =======================================================
(PID.TID 0000.0001) // END OF FIELD                                          =
(PID.TID 0000.0001) // =======================================================
(PID.TID 0000.0001) 
(PID.TID 0000.0001) GAD_INIT_FIXED: GAD_OlMinSize=  1  0  1
(PID.TID 0000.0001) 
(PID.TID 0000.0001) // ===================================
(PID.TID 0000.0001) // GAD parameters :
(PID.TID 0000.0001) // ===================================
(PID.TID 0000.0001) tempAdvScheme =   /* Temp. Horiz.Advection scheme selector */
(PID.TID 0000.0001)                       2
(PID.TID 0000.0001)     ;
(PID.TID 0000.0001) tempVertAdvScheme =   /* Temp. Vert. Advection scheme selector */
(PID.TID 0000.0001)                       2
(PID.TID 0000.0001)     ;
(PID.TID 0000.0001) tempMultiDimAdvec =   /* use Muti-Dim Advec method for Temp */
(PID.TID 0000.0001)                   F
(PID.TID 0000.0001)     ;
(PID.TID 0000.0001) tempSOM_Advection = /* use 2nd Order Moment Advection for Temp */
(PID.TID 0000.0001)                   F
(PID.TID 0000.0001)     ;
(PID.TID 0000.0001) AdamsBashforthGt = /* apply Adams-Bashforth extrapolation on Gt */
(PID.TID 0000.0001)                   T
(PID.TID 0000.0001)     ;
(PID.TID 0000.0001) AdamsBashforth_T = /* apply Adams-Bashforth extrapolation on Temp */
(PID.TID 0000.0001)                   F
(PID.TID 0000.0001)     ;
(PID.TID 0000.0001) saltAdvScheme =   /* Salt. Horiz.advection scheme selector */
(PID.TID 0000.0001)                       2
(PID.TID 0000.0001)     ;
(PID.TID 0000.0001) saltVertAdvScheme =   /* Salt. Vert. Advection scheme selector */
(PID.TID 0000.0001)                       2
(PID.TID 0000.0001)     ;
(PID.TID 0000.0001) saltMultiDimAdvec =   /* use Muti-Dim Advec method for Salt */
(PID.TID 0000.0001)                   F
(PID.TID 0000.0001)     ;
(PID.TID 0000.0001) saltSOM_Advection = /* use 2nd Order Moment Advection for Salt */
(PID.TID 0000.0001)                   F
(PID.TID 0000.0001)     ;
(PID.TID 0000.0001) AdamsBashforthGs = /* apply Adams-Bashforth extrapolation on Gs */
(PID.TID 0000.0001)                   T
(PID.TID 0000.0001)     ;
(PID.TID 0000.0001) AdamsBashforth_S = /* apply Adams-Bashforth extrapolation on Salt */
(PID.TID 0000.0001)                   F
(PID.TID 0000.0001)     ;
(PID.TID 0000.0001) // ===================================
(PID.TID 0000.0001) PTRACERS_INIT_FIXED: updated GAD_OlMinSize=  2  0  1
 QQ load dic parameters, initial fixed
(PID.TID 0000.0001) 
(PID.TID 0000.0001) // ===================================
(PID.TID 0000.0001) //  DIC_INIT_FIXED parameters :
(PID.TID 0000.0001) nlev = /* Number of level over which Bio act is computed */
(PID.TID 0000.0001)                       6
(PID.TID 0000.0001)     ;
(PID.TID 0000.0001) ------------------------------------------------------------
(PID.TID 0000.0001) DIAGNOSTICS_SET_LEVELS: done
(PID.TID 0000.0001)  Total Nb of available Diagnostics: ndiagt=   286
(PID.TID 0000.0001)  write list of available Diagnostics to file: available_diagnostics.log
(PID.TID 0000.0001) SETDIAG: Allocate  1 x  1 Levels for Diagnostic #    23 ETAN
(PID.TID 0000.0001) SETDIAG: Allocate  1 x  1 Levels for Diagnostic #    24 ETANSQ
(PID.TID 0000.0001) SETDIAG: Allocate  1 x  1 Levels for Diagnostic #    25 DETADT2
(PID.TID 0000.0001) SETDIAG: Allocate  1 x  1 Levels for Diagnostic #    73 PHIBOT
(PID.TID 0000.0001) SETDIAG: Allocate  1 x  1 Levels for Diagnostic #    74 PHIBOTSQ
(PID.TID 0000.0001) SETDIAG: Allocate  1 x  1 Levels for Diagnostic #   277 DICTFLX
(PID.TID 0000.0001) SETDIAG: Allocate  1 x  1 Levels for Diagnostic #   278 DICOFLX
(PID.TID 0000.0001) SETDIAG: Allocate  1 x  1 Levels for Diagnostic #   279 DICCFLX
(PID.TID 0000.0001) SETDIAG: Allocate  1 x  1 Levels for Diagnostic #   280 DICPCO2
(PID.TID 0000.0001) SETDIAG: Allocate  1 x  1 Levels for Diagnostic #   281 DICPHAV
(PID.TID 0000.0001) SETDIAG: Allocate 15 x  1 Levels for Diagnostic #    46 VVELMASS
(PID.TID 0000.0001) SETDIAG: Allocate 15 x  1 Levels for Diagnostic #    45 UVELMASS
(PID.TID 0000.0001) SETDIAG: Allocate 15 x  1 Levels for Diagnostic #    26 THETA
(PID.TID 0000.0001) SETDIAG: Allocate 15 x  1 Levels for Diagnostic #    27 SALT
(PID.TID 0000.0001) SETDIAG: Allocate 15 x  1 Levels for Diagnostic #   209 TRAC01
(PID.TID 0000.0001) SETDIAG: Allocate 15 x  1 Levels for Diagnostic #   222 TRAC02
(PID.TID 0000.0001) SETDIAG: Allocate 15 x  1 Levels for Diagnostic #   235 TRAC03
(PID.TID 0000.0001) SETDIAG: Allocate 15 x  1 Levels for Diagnostic #   248 TRAC04
(PID.TID 0000.0001) SETDIAG: Allocate 15 x  1 Levels for Diagnostic #   261 TRAC05
(PID.TID 0000.0001) SETDIAG: Allocate 15 x  1 Levels for Diagnostic #   200 GM_PsiX
(PID.TID 0000.0001) SETDIAG: Allocate 15 x  1 Levels for Diagnostic #   201 GM_PsiY
(PID.TID 0000.0001) SETDIAG: Allocate 15 x  1 Levels for Diagnostic #    77 CONVADJ
(PID.TID 0000.0001)   space allocated for all diagnostics:     190 levels
(PID.TID 0000.0001)   set mate pointer for diag #    46  VVELMASS , Parms: VVr     MR , mate:    45
(PID.TID 0000.0001)   set mate pointer for diag #    45  UVELMASS , Parms: UUr     MR , mate:    46
(PID.TID 0000.0001)   set mate pointer for diag #   200  GM_PsiX  , Parms: UU      LR , mate:   201
(PID.TID 0000.0001)   set mate pointer for diag #   201  GM_PsiY  , Parms: VV      LR , mate:   200
(PID.TID 0000.0001) DIAGNOSTICS_SET_POINTERS: Set levels for Outp.Stream: dynDiag
(PID.TID 0000.0001)  Levels:       1.   2.   3.   4.   5.   6.   7.   8.   9.  10.  11.  12.  13.  14.  15.
(PID.TID 0000.0001) DIAGNOSTICS_SET_POINTERS: done
(PID.TID 0000.0001) ------------------------------------------------------------
(PID.TID 0000.0001) DIAGSTATS_SET_REGIONS: define no region
(PID.TID 0000.0001) ------------------------------------------------------------
(PID.TID 0000.0001) SETDIAG: Allocate  1 Levels for Stats-Diag #    23 ETAN
(PID.TID 0000.0001) SETDIAG: Allocate  1 Levels for Stats-Diag #    25 DETADT2
(PID.TID 0000.0001) SETDIAG: Allocate 15 Levels for Stats-Diag #    26 THETA
(PID.TID 0000.0001) SETDIAG: Allocate 15 Levels for Stats-Diag #    27 SALT
(PID.TID 0000.0001) SETDIAG: Allocate 15 Levels for Stats-Diag #    77 CONVADJ
(PID.TID 0000.0001) SETDIAG: Allocate 15 Levels for Stats-Diag #    30 UVEL
(PID.TID 0000.0001) SETDIAG: Allocate 15 Levels for Stats-Diag #    31 VVEL
(PID.TID 0000.0001) SETDIAG: Allocate 15 Levels for Stats-Diag #    32 WVEL
(PID.TID 0000.0001) SETDIAG: Allocate 15 Levels for Stats-Diag #   200 GM_PsiX
(PID.TID 0000.0001) SETDIAG: Allocate 15 Levels for Stats-Diag #   201 GM_PsiY
(PID.TID 0000.0001) SETDIAG: Allocate 15 Levels for Stats-Diag #   209 TRAC01
(PID.TID 0000.0001) SETDIAG: Allocate 15 Levels for Stats-Diag #   222 TRAC02
(PID.TID 0000.0001) SETDIAG: Allocate 15 Levels for Stats-Diag #   235 TRAC03
(PID.TID 0000.0001) SETDIAG: Allocate 15 Levels for Stats-Diag #   248 TRAC04
(PID.TID 0000.0001) SETDIAG: Allocate 15 Levels for Stats-Diag #   261 TRAC05
(PID.TID 0000.0001)   space allocated for all stats-diags:     197 levels
(PID.TID 0000.0001) DIAGSTATS_SET_POINTERS: done
(PID.TID 0000.0001) ------------------------------------------------------------
(PID.TID 0000.0001) DIAGSTATS_INI_IO: open file: dynStDiag.0000000000.txt , unit=     9
(PID.TID 0000.0001) %MON fCori_max                    =  -6.5572427009593E-05
(PID.TID 0000.0001) %MON fCori_min                    =  -1.4369532533658E-04
(PID.TID 0000.0001) %MON fCori_mean                   =  -1.1250506132776E-04
(PID.TID 0000.0001) %MON fCori_sd                     =   2.4357644817991E-05
(PID.TID 0000.0001) %MON fCoriG_max                   =  -6.8749664608828E-05
(PID.TID 0000.0001) %MON fCoriG_min                   =  -1.4426394581537E-04
(PID.TID 0000.0001) %MON fCoriG_mean                  =  -1.1451888327629E-04
(PID.TID 0000.0001) %MON fCoriG_sd                    =   2.3580812438249E-05
(PID.TID 0000.0001) %MON fCoriCos_max                 =   1.3027003865390E-04
(PID.TID 0000.0001) %MON fCoriCos_min                 =   2.4933504190762E-05
(PID.TID 0000.0001) %MON fCoriCos_mean                =   8.3439440192105E-05
(PID.TID 0000.0001) %MON fCoriCos_sd                  =   3.2514647311668E-05
(PID.TID 0000.0001) INI_CG2D: CG2D normalisation factor =  7.8420435099722891E-05
(PID.TID 0000.0001) 
(PID.TID 0000.0001) // =======================================================
(PID.TID 0000.0001) // Model configuration
(PID.TID 0000.0001) // =======================================================
(PID.TID 0000.0001) //
(PID.TID 0000.0001) // "Physical" paramters ( PARM01 in namelist )
(PID.TID 0000.0001) //
(PID.TID 0000.0001) buoyancyRelation = /* Type of relation to get Buoyancy */
(PID.TID 0000.0001)               'OCEANIC'
(PID.TID 0000.0001)     ;
(PID.TID 0000.0001) fluidIsAir   =  /* fluid major constituent is Air */
(PID.TID 0000.0001)                   F
(PID.TID 0000.0001)     ;
(PID.TID 0000.0001) fluidIsWater =  /* fluid major constituent is Water */
(PID.TID 0000.0001)                   T
(PID.TID 0000.0001)     ;
(PID.TID 0000.0001) usingPCoords =  /* use p (or p*) vertical coordinate */
(PID.TID 0000.0001)                   F
(PID.TID 0000.0001)     ;
(PID.TID 0000.0001) usingZCoords =  /* use z (or z*) vertical coordinate */
(PID.TID 0000.0001)                   T
(PID.TID 0000.0001)     ;
(PID.TID 0000.0001) tRef =   /* Reference temperature profile ( oC or K ) */
(PID.TID 0000.0001)    15 @  2.000000000000000E+01              /* K =  1: 15 */
(PID.TID 0000.0001)     ;
(PID.TID 0000.0001) sRef =   /* Reference salinity profile ( psu ) */
(PID.TID 0000.0001)    15 @  3.500000000000000E+01              /* K =  1: 15 */
(PID.TID 0000.0001)     ;
(PID.TID 0000.0001) useStrainTensionVisc= /* Use StrainTension Form of Viscous Operator */
(PID.TID 0000.0001)                   F
(PID.TID 0000.0001)     ;
(PID.TID 0000.0001) useVariableVisc = /* Use variable horizontal viscosity */
(PID.TID 0000.0001)                   F
(PID.TID 0000.0001)     ;
(PID.TID 0000.0001) useHarmonicVisc = /* Use harmonic horizontal viscosity */
(PID.TID 0000.0001)                   T
(PID.TID 0000.0001)     ;
(PID.TID 0000.0001) useBiharmonicVisc= /* Use biharmonic horiz.  viscosity */
(PID.TID 0000.0001)                   F
(PID.TID 0000.0001)     ;
(PID.TID 0000.0001) useSmag3D = /* Use isotropic 3-D Smagorinsky viscosity */
(PID.TID 0000.0001)                   F
(PID.TID 0000.0001)     ;
(PID.TID 0000.0001) viscAh  =   /* Lateral harmonic viscosity ( m^2/s ) */
(PID.TID 0000.0001)                 3.000000000000000E+05
(PID.TID 0000.0001)     ;
(PID.TID 0000.0001) viscA4  =   /* Lateral biharmonic viscosity ( m^4/s ) */
(PID.TID 0000.0001)                 0.000000000000000E+00
(PID.TID 0000.0001)     ;
(PID.TID 0000.0001) no_slip_sides =  /* Viscous BCs: No-slip sides */
(PID.TID 0000.0001)                   T
(PID.TID 0000.0001)     ;
(PID.TID 0000.0001) sideDragFactor = /* side-drag scaling factor (non-dim) */
(PID.TID 0000.0001)                 2.000000000000000E+00
(PID.TID 0000.0001)     ;
(PID.TID 0000.0001) viscArNr = /* vertical profile of vertical viscosity ( m^2/s )*/
(PID.TID 0000.0001)    15 @  1.000000000000000E-03              /* K =  1: 15 */
(PID.TID 0000.0001)     ;
(PID.TID 0000.0001) no_slip_bottom =  /* Viscous BCs: No-slip bottom */
(PID.TID 0000.0001)                   T
(PID.TID 0000.0001)     ;
(PID.TID 0000.0001) bottomDragLinear = /* linear bottom-drag coefficient ( m/s ) */
(PID.TID 0000.0001)                 0.000000000000000E+00
(PID.TID 0000.0001)     ;
(PID.TID 0000.0001) bottomDragQuadratic = /* quadratic bottom-drag coefficient (-) */
(PID.TID 0000.0001)                 0.000000000000000E+00
(PID.TID 0000.0001)     ;
(PID.TID 0000.0001) diffKhT =   /* Laplacian diffusion of heat laterally ( m^2/s ) */
(PID.TID 0000.0001)                 0.000000000000000E+00
(PID.TID 0000.0001)     ;
(PID.TID 0000.0001) diffK4T =   /* Biharmonic diffusion of heat laterally ( m^4/s ) */
(PID.TID 0000.0001)                 0.000000000000000E+00
(PID.TID 0000.0001)     ;
(PID.TID 0000.0001) diffKhS =   /* Laplacian diffusion of salt laterally ( m^2/s ) */
(PID.TID 0000.0001)                 0.000000000000000E+00
(PID.TID 0000.0001)     ;
(PID.TID 0000.0001) diffK4S =   /* Biharmonic diffusion of salt laterally ( m^4/s ) */
(PID.TID 0000.0001)                 0.000000000000000E+00
(PID.TID 0000.0001)     ;
(PID.TID 0000.0001) diffKrNrT = /* vertical profile of vertical diffusion of Temp ( m^2/s )*/
(PID.TID 0000.0001)    15 @  0.000000000000000E+00              /* K =  1: 15 */
(PID.TID 0000.0001)     ;
(PID.TID 0000.0001) diffKrNrS = /* vertical profile of vertical diffusion of Salt ( m^2/s )*/
(PID.TID 0000.0001)    15 @  0.000000000000000E+00              /* K =  1: 15 */
(PID.TID 0000.0001)     ;
(PID.TID 0000.0001) diffKrBL79surf = /* Surface diffusion for Bryan and Lewis 79 ( m^2/s ) */
(PID.TID 0000.0001)                 3.000000000000000E-05
(PID.TID 0000.0001)     ;
(PID.TID 0000.0001) diffKrBL79deep = /* Deep diffusion for Bryan and Lewis 1979 ( m^2/s ) */
(PID.TID 0000.0001)                 1.300000000000000E-04
(PID.TID 0000.0001)     ;
(PID.TID 0000.0001) diffKrBL79scl = /* Depth scale for Bryan and Lewis 1979 ( m ) */
(PID.TID 0000.0001)                 1.500000000000000E+02
(PID.TID 0000.0001)     ;
(PID.TID 0000.0001) diffKrBL79Ho = /* Turning depth for Bryan and Lewis 1979 ( m ) */
(PID.TID 0000.0001)                -2.000000000000000E+03
(PID.TID 0000.0001)     ;
(PID.TID 0000.0001) ivdc_kappa = /* Implicit Vertical Diffusivity for Convection ( m^2/s) */
(PID.TID 0000.0001)                 1.000000000000000E+01
(PID.TID 0000.0001)     ;
(PID.TID 0000.0001) hMixCriteria=  /* Criteria for mixed-layer diagnostic */
(PID.TID 0000.0001)                -8.000000000000000E-01
(PID.TID 0000.0001)     ;
(PID.TID 0000.0001) dRhoSmall =  /* Parameter for mixed-layer diagnostic */
(PID.TID 0000.0001)                 1.000000000000000E-06
(PID.TID 0000.0001)     ;
(PID.TID 0000.0001) hMixSmooth=  /* Smoothing parameter for mixed-layer diagnostic */
(PID.TID 0000.0001)                 0.000000000000000E+00
(PID.TID 0000.0001)     ;
(PID.TID 0000.0001) eosType =  /* Type of Equation of State */
(PID.TID 0000.0001)               'JMD95Z'
(PID.TID 0000.0001)     ;
(PID.TID 0000.0001) HeatCapacity_Cp =  /* Specific heat capacity ( J/kg/K ) */
(PID.TID 0000.0001)                 3.994000000000000E+03
(PID.TID 0000.0001)     ;
(PID.TID 0000.0001) celsius2K = /* 0 degree Celsius converted to Kelvin ( K ) */
(PID.TID 0000.0001)                 2.731500000000000E+02
(PID.TID 0000.0001)     ;
(PID.TID 0000.0001) rhoConst  = /* Reference density (Boussinesq)  ( kg/m^3 ) */
(PID.TID 0000.0001)                 1.035000000000000E+03
(PID.TID 0000.0001)     ;
(PID.TID 0000.0001) rhoFacC = /* normalized Reference density @ cell-Center (-) */
(PID.TID 0000.0001)    15 @  1.000000000000000E+00              /* K =  1: 15 */
(PID.TID 0000.0001)     ;
(PID.TID 0000.0001) rhoFacF = /* normalized Reference density @ W-Interface (-) */
(PID.TID 0000.0001)    16 @  1.000000000000000E+00              /* K =  1: 16 */
(PID.TID 0000.0001)     ;
(PID.TID 0000.0001) rhoConstFresh = /* Fresh-water reference density ( kg/m^3 ) */
(PID.TID 0000.0001)                 1.000000000000000E+03
(PID.TID 0000.0001)     ;
(PID.TID 0000.0001) gravity =   /* Gravitational acceleration ( m/s^2 ) */
(PID.TID 0000.0001)                 9.810000000000000E+00
(PID.TID 0000.0001)     ;
(PID.TID 0000.0001) gBaro =   /* Barotropic gravity ( m/s^2 ) */
(PID.TID 0000.0001)                 9.810000000000000E+00
(PID.TID 0000.0001)     ;
(PID.TID 0000.0001) rotationPeriod =   /* Rotation Period ( s ) */
(PID.TID 0000.0001)                 8.616400000000000E+04
(PID.TID 0000.0001)     ;
(PID.TID 0000.0001) omega =   /* Angular velocity ( rad/s ) */
(PID.TID 0000.0001)                 7.292123516990375E-05
(PID.TID 0000.0001)     ;
(PID.TID 0000.0001) f0 =   /* Reference coriolis parameter ( 1/s ) */
(PID.TID 0000.0001)                 1.000000000000000E-04
(PID.TID 0000.0001)     ;
(PID.TID 0000.0001) beta =   /* Beta ( 1/(m.s) ) */
(PID.TID 0000.0001)                 9.999999999999999E-12
(PID.TID 0000.0001)     ;
(PID.TID 0000.0001) fPrime =   /* Second coriolis parameter ( 1/s ) */
(PID.TID 0000.0001)                 0.000000000000000E+00
(PID.TID 0000.0001)     ;
(PID.TID 0000.0001) rigidLid =   /* Rigid lid on/off flag */
(PID.TID 0000.0001)                   F
(PID.TID 0000.0001)     ;
(PID.TID 0000.0001) implicitFreeSurface =   /* Implicit free surface on/off flag */
(PID.TID 0000.0001)                   T
(PID.TID 0000.0001)     ;
(PID.TID 0000.0001) freeSurfFac =   /* Implicit free surface factor */
(PID.TID 0000.0001)                 1.000000000000000E+00
(PID.TID 0000.0001)     ;
(PID.TID 0000.0001) implicSurfPress =  /* Surface Pressure implicit factor (0-1)*/
(PID.TID 0000.0001)                 1.000000000000000E+00
(PID.TID 0000.0001)     ;
(PID.TID 0000.0001) implicDiv2Dflow =  /* Barot. Flow Div. implicit factor (0-1)*/
(PID.TID 0000.0001)                 1.000000000000000E+00
(PID.TID 0000.0001)     ;
(PID.TID 0000.0001) uniformLin_PhiSurf = /* use uniform Bo_surf on/off flag*/
(PID.TID 0000.0001)                   T
(PID.TID 0000.0001)     ;
(PID.TID 0000.0001) uniformFreeSurfLev = /* free-surface level-index is uniform */
(PID.TID 0000.0001)                   T
(PID.TID 0000.0001)     ;
(PID.TID 0000.0001) hFacMin =   /* minimum partial cell factor (hFac) */
(PID.TID 0000.0001)                 1.000000000000000E-01
(PID.TID 0000.0001)     ;
(PID.TID 0000.0001) hFacMinDr = /* minimum partial cell thickness ( m) */
(PID.TID 0000.0001)                 5.000000000000000E+01
(PID.TID 0000.0001)     ;
(PID.TID 0000.0001) exactConserv =  /* Exact Volume Conservation on/off flag*/
(PID.TID 0000.0001)                   T
(PID.TID 0000.0001)     ;
(PID.TID 0000.0001) linFSConserveTr = /* Tracer correction for Lin Free Surface on/off flag*/
(PID.TID 0000.0001)                   F
(PID.TID 0000.0001)     ;
(PID.TID 0000.0001) nonlinFreeSurf = /* Non-linear Free Surf. options (-1,0,1,2,3)*/
(PID.TID 0000.0001)                       0
(PID.TID 0000.0001)      -1,0= Off ; 1,2,3= On, 2=+rescale gU,gV, 3=+update cg2d solv.
(PID.TID 0000.0001)     ;
(PID.TID 0000.0001) hFacInf =   /* lower threshold for hFac (nonlinFreeSurf only)*/
(PID.TID 0000.0001)                 2.000000000000000E-01
(PID.TID 0000.0001)     ;
(PID.TID 0000.0001) hFacSup =   /* upper threshold for hFac (nonlinFreeSurf only)*/
(PID.TID 0000.0001)                 2.000000000000000E+00
(PID.TID 0000.0001)     ;
(PID.TID 0000.0001) select_rStar = /* r* Vertical coord. options (=0 r coord.; >0 uses r*)*/
(PID.TID 0000.0001)                       0
(PID.TID 0000.0001)     ;
(PID.TID 0000.0001) useRealFreshWaterFlux = /* Real Fresh Water Flux on/off flag*/
(PID.TID 0000.0001)                   F
(PID.TID 0000.0001)     ;
(PID.TID 0000.0001) temp_EvPrRn = /* Temp. of Evap/Prec/R (UNSET=use local T)(oC)*/
(PID.TID 0000.0001)                 1.234567000000000E+05
(PID.TID 0000.0001)     ;
(PID.TID 0000.0001) salt_EvPrRn = /* Salin. of Evap/Prec/R (UNSET=use local S)(psu)*/
(PID.TID 0000.0001)                 0.000000000000000E+00
(PID.TID 0000.0001)     ;
(PID.TID 0000.0001) selectAddFluid = /* option for mass source/sink of fluid (=0: off) */
(PID.TID 0000.0001)                       0
(PID.TID 0000.0001)     ;
(PID.TID 0000.0001) temp_addMass = /* Temp. of addMass array (UNSET=use local T)(oC)*/
(PID.TID 0000.0001)                 1.234567000000000E+05
(PID.TID 0000.0001)     ;
(PID.TID 0000.0001) salt_addMass = /* Salin. of addMass array (UNSET=use local S)(psu)*/
(PID.TID 0000.0001)                 0.000000000000000E+00
(PID.TID 0000.0001)     ;
(PID.TID 0000.0001) convertFW2Salt = /* convert F.W. Flux to Salt Flux (-1=use local S)(psu)*/
(PID.TID 0000.0001)                 3.500000000000000E+01
(PID.TID 0000.0001)     ;
(PID.TID 0000.0001) use3Dsolver = /* use 3-D pressure solver on/off flag */
(PID.TID 0000.0001)                   F
(PID.TID 0000.0001)     ;
(PID.TID 0000.0001) nonHydrostatic =  /* Non-Hydrostatic on/off flag */
(PID.TID 0000.0001)                   F
(PID.TID 0000.0001)     ;
(PID.TID 0000.0001) nh_Am2 = /* Non-Hydrostatic terms scaling factor */
(PID.TID 0000.0001)                 1.000000000000000E+00
(PID.TID 0000.0001)     ;
(PID.TID 0000.0001) implicitNHPress = /* Non-Hyd Pressure implicit factor (0-1)*/
(PID.TID 0000.0001)                 1.000000000000000E+00
(PID.TID 0000.0001)     ;
(PID.TID 0000.0001) selectNHfreeSurf = /* Non-Hyd (free-)Surface option */
(PID.TID 0000.0001)                       0
(PID.TID 0000.0001)     ;
(PID.TID 0000.0001) quasiHydrostatic = /* Quasi-Hydrostatic on/off flag */
(PID.TID 0000.0001)                   F
(PID.TID 0000.0001)     ;
(PID.TID 0000.0001) calc_wVelocity = /* vertical velocity calculation on/off flag */
(PID.TID 0000.0001)                   T
(PID.TID 0000.0001)     ;
(PID.TID 0000.0001) momStepping =  /* Momentum equation on/off flag */
(PID.TID 0000.0001)                   T
(PID.TID 0000.0001)     ;
(PID.TID 0000.0001) vectorInvariantMomentum= /* Vector-Invariant Momentum on/off */
(PID.TID 0000.0001)                   F
(PID.TID 0000.0001)     ;
(PID.TID 0000.0001) momAdvection =  /* Momentum advection on/off flag */
(PID.TID 0000.0001)                   T
(PID.TID 0000.0001)     ;
(PID.TID 0000.0001) momViscosity =  /* Momentum viscosity on/off flag */
(PID.TID 0000.0001)                   T
(PID.TID 0000.0001)     ;
(PID.TID 0000.0001) momImplVertAdv= /* Momentum implicit vert. advection on/off*/
(PID.TID 0000.0001)                   F
(PID.TID 0000.0001)     ;
(PID.TID 0000.0001) implicitViscosity = /* Implicit viscosity on/off flag */
(PID.TID 0000.0001)                   F
(PID.TID 0000.0001)     ;
(PID.TID 0000.0001) metricTerms =  /* metric-Terms on/off flag */
(PID.TID 0000.0001)                   T
(PID.TID 0000.0001)     ;
(PID.TID 0000.0001) useNHMTerms = /* Non-Hydrostatic Metric-Terms on/off */
(PID.TID 0000.0001)                   F
(PID.TID 0000.0001)     ;
(PID.TID 0000.0001) selectCoriMap = /* Coriolis Map options (0,1,2,3)*/
(PID.TID 0000.0001)                       2
(PID.TID 0000.0001)     0= f-Plane ; 1= Beta-Plane ; 2= Spherical ; 3= read from file
(PID.TID 0000.0001)     ;
(PID.TID 0000.0001) use3dCoriolis = /* 3-D Coriolis on/off flag */
(PID.TID 0000.0001)                   F
(PID.TID 0000.0001)     ;
(PID.TID 0000.0001) useCoriolis =  /* Coriolis on/off flag */
(PID.TID 0000.0001)                   T
(PID.TID 0000.0001)     ;
(PID.TID 0000.0001) useCDscheme =  /* CD scheme on/off flag */
(PID.TID 0000.0001)                   F
(PID.TID 0000.0001)     ;
(PID.TID 0000.0001) useEnergyConservingCoriolis= /* Flx-Form Coriolis scheme flag */
(PID.TID 0000.0001)                   F
(PID.TID 0000.0001)     ;
(PID.TID 0000.0001) useJamartWetPoints= /* Coriolis WetPoints method flag */
(PID.TID 0000.0001)                   F
(PID.TID 0000.0001)     ;
(PID.TID 0000.0001) useJamartMomAdv= /* V.I Non-linear terms Jamart flag */
(PID.TID 0000.0001)                   F
(PID.TID 0000.0001)     ;
(PID.TID 0000.0001) useAbsVorticity= /* V.I Works with f+zeta in Coriolis */
(PID.TID 0000.0001)                   F
(PID.TID 0000.0001)     ;
(PID.TID 0000.0001) selectVortScheme= /* V.I Scheme selector for Vorticity-Term */
(PID.TID 0000.0001)               123456789
(PID.TID 0000.0001)    = 0 : enstrophy (Shallow-Water Eq.) conserving scheme by Sadourny, JAS 75
(PID.TID 0000.0001)    = 1 : same as 0 with modified hFac
(PID.TID 0000.0001)    = 2 : energy conserving scheme (used by Sadourny in JAS 75 paper)
(PID.TID 0000.0001)    = 3 : energy (general) and enstrophy (2D, nonDiv.) conserving scheme
(PID.TID 0000.0001)          from Sadourny (Burridge & Haseler, ECMWF Rep.4, 1977)
(PID.TID 0000.0001)     ;
(PID.TID 0000.0001) upwindVorticity= /* V.I Upwind bias vorticity flag */
(PID.TID 0000.0001)                   F
(PID.TID 0000.0001)     ;
(PID.TID 0000.0001) highOrderVorticity= /* V.I High order vort. advect. flag */
(PID.TID 0000.0001)                   F
(PID.TID 0000.0001)     ;
(PID.TID 0000.0001) upwindShear= /* V.I Upwind vertical Shear advection flag */
(PID.TID 0000.0001)                   F
(PID.TID 0000.0001)     ;
(PID.TID 0000.0001) selectKEscheme= /* V.I Kinetic Energy scheme selector */
(PID.TID 0000.0001)                       0
(PID.TID 0000.0001)     ;
(PID.TID 0000.0001) momForcing =  /* Momentum forcing on/off flag */
(PID.TID 0000.0001)                   T
(PID.TID 0000.0001)     ;
(PID.TID 0000.0001) momPressureForcing =  /* Momentum pressure term on/off flag */
(PID.TID 0000.0001)                   T
(PID.TID 0000.0001)     ;
(PID.TID 0000.0001) implicitIntGravWave= /* Implicit Internal Gravity Wave flag */
(PID.TID 0000.0001)                   F
(PID.TID 0000.0001)     ;
(PID.TID 0000.0001) staggerTimeStep =    /* Stagger time stepping on/off flag */
(PID.TID 0000.0001)                   F
(PID.TID 0000.0001)     ;
(PID.TID 0000.0001) doResetHFactors = /* reset thickness factors @ each time-step */
(PID.TID 0000.0001)                   F
(PID.TID 0000.0001)     ;
(PID.TID 0000.0001) multiDimAdvection =  /* enable/disable Multi-Dim Advection */
(PID.TID 0000.0001)                   T
(PID.TID 0000.0001)     ;
(PID.TID 0000.0001) useMultiDimAdvec =   /* Multi-Dim Advection is/is-not used */
(PID.TID 0000.0001)                   T
(PID.TID 0000.0001)     ;
(PID.TID 0000.0001) implicitDiffusion = /* Implicit Diffusion on/off flag */
(PID.TID 0000.0001)                   T
(PID.TID 0000.0001)     ;
(PID.TID 0000.0001) tempStepping =  /* Temperature equation on/off flag */
(PID.TID 0000.0001)                   T
(PID.TID 0000.0001)     ;
(PID.TID 0000.0001) tempAdvection = /* Temperature advection on/off flag */
(PID.TID 0000.0001)                   T
(PID.TID 0000.0001)     ;
(PID.TID 0000.0001) tempImplVertAdv = /* Temp. implicit vert. advection on/off */
(PID.TID 0000.0001)                   F
(PID.TID 0000.0001)     ;
(PID.TID 0000.0001) tempForcing  =  /* Temperature forcing on/off flag */
(PID.TID 0000.0001)                   T
(PID.TID 0000.0001)     ;
(PID.TID 0000.0001) doThetaClimRelax = /* apply SST relaxation on/off flag */
(PID.TID 0000.0001)                   T
(PID.TID 0000.0001)     ;
(PID.TID 0000.0001) tempIsActiveTr = /* Temp. is a dynamically Active Tracer */
(PID.TID 0000.0001)                   T
(PID.TID 0000.0001)     ;
(PID.TID 0000.0001) saltStepping =  /* Salinity equation on/off flag */
(PID.TID 0000.0001)                   T
(PID.TID 0000.0001)     ;
(PID.TID 0000.0001) saltAdvection = /* Salinity advection on/off flag */
(PID.TID 0000.0001)                   T
(PID.TID 0000.0001)     ;
(PID.TID 0000.0001) saltImplVertAdv = /* Sali. implicit vert. advection on/off */
(PID.TID 0000.0001)                   F
(PID.TID 0000.0001)     ;
(PID.TID 0000.0001) saltForcing  =  /* Salinity forcing on/off flag */
(PID.TID 0000.0001)                   T
(PID.TID 0000.0001)     ;
(PID.TID 0000.0001) doSaltClimRelax = /* apply SSS relaxation on/off flag */
(PID.TID 0000.0001)                   T
(PID.TID 0000.0001)     ;
(PID.TID 0000.0001) saltIsActiveTr = /* Salt  is a dynamically Active Tracer */
(PID.TID 0000.0001)                   T
(PID.TID 0000.0001)     ;
(PID.TID 0000.0001)  readBinaryPrec = /* Precision used for reading binary files */
(PID.TID 0000.0001)                      32
(PID.TID 0000.0001)     ;
(PID.TID 0000.0001) writeBinaryPrec = /* Precision used for writing binary files */
(PID.TID 0000.0001)                      32
(PID.TID 0000.0001)     ;
(PID.TID 0000.0001)  globalFiles = /* write "global" (=not per tile) files */
(PID.TID 0000.0001)                   T
(PID.TID 0000.0001)     ;
(PID.TID 0000.0001)  useSingleCpuIO = /* only master MPI process does I/O */
(PID.TID 0000.0001)                   F
(PID.TID 0000.0001)     ;
(PID.TID 0000.0001)  useSingleCpuInput = /* only master process reads input */
(PID.TID 0000.0001)                   F
(PID.TID 0000.0001)     ;
(PID.TID 0000.0001) /* debLev[*]  : level of debug & auxiliary message printing */
(PID.TID 0000.0001) debLevZero =  0 ; /* level of disabled aux. msg printing */
(PID.TID 0000.0001)    debLevA =  1 ; /* level of minimum  aux. msg printing */
(PID.TID 0000.0001)    debLevB =  2 ; /* level of low aux. print (report read-file opening)*/
(PID.TID 0000.0001)    debLevC =  3 ; /* level of moderate debug prt (most pkgs debug msg) */
(PID.TID 0000.0001)    debLevD =  4 ; /* level of enhanced debug prt (add DEBUG_STATS prt) */
(PID.TID 0000.0001)    debLevE =  5 ; /* level of extensive debug printing */
(PID.TID 0000.0001) debugLevel =  /* select debug printing level */
(PID.TID 0000.0001)                       2
(PID.TID 0000.0001)     ;
(PID.TID 0000.0001) //
(PID.TID 0000.0001) // Elliptic solver(s) paramters ( PARM02 in namelist )
(PID.TID 0000.0001) //
(PID.TID 0000.0001) cg2dMaxIters =   /* Upper limit on 2d con. grad iterations  */
(PID.TID 0000.0001)                    1000
(PID.TID 0000.0001)     ;
(PID.TID 0000.0001) cg2dChkResFreq =   /* 2d con. grad convergence test frequency */
(PID.TID 0000.0001)                       1
(PID.TID 0000.0001)     ;
(PID.TID 0000.0001) cg2dUseMinResSol= /* use cg2d last-iter(=0) / min-resid.(=1) solution */
(PID.TID 0000.0001)                       0
(PID.TID 0000.0001)     ;
(PID.TID 0000.0001) cg2dTargetResidual =   /* 2d con. grad target residual  */
(PID.TID 0000.0001)                 1.000000000000000E-13
(PID.TID 0000.0001)     ;
(PID.TID 0000.0001) cg2dTargetResWunit =   /* CG2d target residual [W units] */
(PID.TID 0000.0001)                -1.000000000000000E+00
(PID.TID 0000.0001)     ;
(PID.TID 0000.0001) cg2dPreCondFreq =   /* Freq. for updating cg2d preconditioner */
(PID.TID 0000.0001)                       1
(PID.TID 0000.0001)     ;
(PID.TID 0000.0001) useSRCGSolver =  /* use single reduction CG solver(s) */
(PID.TID 0000.0001)                   F
(PID.TID 0000.0001)     ;
(PID.TID 0000.0001) printResidualFreq = /* Freq. for printing CG residual */
(PID.TID 0000.0001)                       0
(PID.TID 0000.0001)     ;
(PID.TID 0000.0001) //
(PID.TID 0000.0001) // Time stepping paramters ( PARM03 in namelist )
(PID.TID 0000.0001) //
(PID.TID 0000.0001) deltaTMom =   /* Momentum equation timestep ( s ) */
(PID.TID 0000.0001)                 9.000000000000000E+02
(PID.TID 0000.0001)     ;
(PID.TID 0000.0001) deltaTFreeSurf = /* FreeSurface equation timestep ( s ) */
(PID.TID 0000.0001)                 4.320000000000000E+04
(PID.TID 0000.0001)     ;
(PID.TID 0000.0001) dTtracerLev =  /* Tracer equation timestep ( s ) */
(PID.TID 0000.0001)    15 @  4.320000000000000E+04              /* K =  1: 15 */
(PID.TID 0000.0001)     ;
(PID.TID 0000.0001) deltaTClock  =   /* Model clock timestep ( s ) */
(PID.TID 0000.0001)                 4.320000000000000E+04
(PID.TID 0000.0001)     ;
(PID.TID 0000.0001) cAdjFreq =   /* Convective adjustment interval ( s ) */
(PID.TID 0000.0001)                 0.000000000000000E+00
(PID.TID 0000.0001)     ;
(PID.TID 0000.0001) momForcingOutAB = /* =1: take Momentum Forcing out of Adams-Bash. stepping */
(PID.TID 0000.0001)                       0
(PID.TID 0000.0001)     ;
(PID.TID 0000.0001) tracForcingOutAB = /* =1: take T,S,pTr Forcing out of Adams-Bash. stepping */
(PID.TID 0000.0001)                       0
(PID.TID 0000.0001)     ;
(PID.TID 0000.0001) momDissip_In_AB = /* put Dissipation Tendency in Adams-Bash. stepping */
(PID.TID 0000.0001)                   T
(PID.TID 0000.0001)     ;
(PID.TID 0000.0001) doAB_onGtGs = /* apply AB on Tendencies (rather than on T,S)*/
(PID.TID 0000.0001)                   T
(PID.TID 0000.0001)     ;
(PID.TID 0000.0001) abEps =   /* Adams-Bashforth-2 stabilizing weight */
(PID.TID 0000.0001)                 1.000000000000000E-01
(PID.TID 0000.0001)     ;
(PID.TID 0000.0001) pickupStrictlyMatch= /* stop if pickup do not strictly match */
(PID.TID 0000.0001)                   T
(PID.TID 0000.0001)     ;
(PID.TID 0000.0001) nIter0   =   /* Run starting timestep number */
(PID.TID 0000.0001)                       0
(PID.TID 0000.0001)     ;
(PID.TID 0000.0001) nTimeSteps = /* Number of timesteps */
(PID.TID 0000.0001)                      10
(PID.TID 0000.0001)     ;
(PID.TID 0000.0001) nEndIter =   /* Run ending timestep number */
(PID.TID 0000.0001)                      10
(PID.TID 0000.0001)     ;
(PID.TID 0000.0001) baseTime =   /* Model base time ( s ) */
(PID.TID 0000.0001)                 0.000000000000000E+00
(PID.TID 0000.0001)     ;
(PID.TID 0000.0001) startTime =  /* Run start time ( s ) */
(PID.TID 0000.0001)                 0.000000000000000E+00
(PID.TID 0000.0001)     ;
(PID.TID 0000.0001) endTime  =   /* Integration ending time ( s ) */
(PID.TID 0000.0001)                 4.320000000000000E+05
(PID.TID 0000.0001)     ;
(PID.TID 0000.0001) pChkPtFreq = /* Permanent restart/pickup file interval ( s ) */
(PID.TID 0000.0001)                 3.110400000000000E+08
(PID.TID 0000.0001)     ;
(PID.TID 0000.0001) chkPtFreq  = /* Rolling restart/pickup file interval ( s ) */
(PID.TID 0000.0001)                 3.110400000000000E+07
(PID.TID 0000.0001)     ;
(PID.TID 0000.0001) pickup_write_mdsio =   /* Model IO flag. */
(PID.TID 0000.0001)                   T
(PID.TID 0000.0001)     ;
(PID.TID 0000.0001) pickup_read_mdsio =   /* Model IO flag. */
(PID.TID 0000.0001)                   T
(PID.TID 0000.0001)     ;
(PID.TID 0000.0001) pickup_write_immed =   /* Model IO flag. */
(PID.TID 0000.0001)                   F
(PID.TID 0000.0001)     ;
(PID.TID 0000.0001) writePickupAtEnd =   /* Model IO flag. */
(PID.TID 0000.0001)                   T
(PID.TID 0000.0001)     ;
(PID.TID 0000.0001) dumpFreq =   /* Model state write out interval ( s ). */
(PID.TID 0000.0001)                 2.592000000000000E+06
(PID.TID 0000.0001)     ;
(PID.TID 0000.0001) dumpInitAndLast= /* write out Initial & Last iter. model state */
(PID.TID 0000.0001)                   T
(PID.TID 0000.0001)     ;
(PID.TID 0000.0001) snapshot_mdsio =   /* Model IO flag. */
(PID.TID 0000.0001)                   T
(PID.TID 0000.0001)     ;
(PID.TID 0000.0001) monitorFreq =   /* Monitor output interval ( s ). */
(PID.TID 0000.0001)                 1.000000000000000E+00
(PID.TID 0000.0001)     ;
(PID.TID 0000.0001) monitorSelect = /* select group of variables to monitor */
(PID.TID 0000.0001)                       3
(PID.TID 0000.0001)     ;
(PID.TID 0000.0001) monitor_stdio =   /* Model IO flag. */
(PID.TID 0000.0001)                   T
(PID.TID 0000.0001)     ;
(PID.TID 0000.0001) externForcingPeriod =   /* forcing period (s) */
(PID.TID 0000.0001)                 2.592000000000000E+06
(PID.TID 0000.0001)     ;
(PID.TID 0000.0001) externForcingCycle =   /* period of the cyle (s). */
(PID.TID 0000.0001)                 3.110400000000000E+07
(PID.TID 0000.0001)     ;
(PID.TID 0000.0001) tauThetaClimRelax =   /* relaxation time scale (s) */
(PID.TID 0000.0001)                 5.184000000000000E+06
(PID.TID 0000.0001)     ;
(PID.TID 0000.0001) tauSaltClimRelax =   /* relaxation time scale (s) */
(PID.TID 0000.0001)                 7.776000000000000E+06
(PID.TID 0000.0001)     ;
(PID.TID 0000.0001) latBandClimRelax =   /* max. Lat. where relaxation */
(PID.TID 0000.0001)                 1.800000000000000E+02
(PID.TID 0000.0001)     ;
(PID.TID 0000.0001) //
(PID.TID 0000.0001) // Gridding paramters ( PARM04 in namelist )
(PID.TID 0000.0001) //
(PID.TID 0000.0001) usingCartesianGrid = /* Cartesian coordinates flag ( True/False ) */
(PID.TID 0000.0001)                   F
(PID.TID 0000.0001)     ;
(PID.TID 0000.0001) usingCylindricalGrid = /* Cylindrical coordinates flag ( True/False ) */
(PID.TID 0000.0001)                   F
(PID.TID 0000.0001)     ;
(PID.TID 0000.0001) usingSphericalPolarGrid = /* Spherical coordinates flag ( True/False ) */
(PID.TID 0000.0001)                   T
(PID.TID 0000.0001)     ;
(PID.TID 0000.0001) usingCurvilinearGrid = /* Curvilinear coordinates flag ( True/False ) */
(PID.TID 0000.0001)                   F
(PID.TID 0000.0001)     ;
(PID.TID 0000.0001) selectSigmaCoord = /* Hybrid-Sigma Vert. Coordinate option */
(PID.TID 0000.0001)                       0
(PID.TID 0000.0001)     ;
(PID.TID 0000.0001) Ro_SeaLevel = /* r(1) ( units of r ==  m ) */
(PID.TID 0000.0001)                 0.000000000000000E+00
(PID.TID 0000.0001)     ;
(PID.TID 0000.0001) rSigmaBnd = /* r/sigma transition ( units of r ==  m ) */
(PID.TID 0000.0001)                 1.234567000000000E+05
(PID.TID 0000.0001)     ;
(PID.TID 0000.0001) rkSign =   /* index orientation relative to vertical coordinate */
(PID.TID 0000.0001)                -1.000000000000000E+00
(PID.TID 0000.0001)     ;
(PID.TID 0000.0001) gravitySign = /* gravity orientation relative to vertical coordinate */
(PID.TID 0000.0001)                -1.000000000000000E+00
(PID.TID 0000.0001)     ;
(PID.TID 0000.0001) mass2rUnit = /* convert mass per unit area [kg/m2] to r-units [m] */
(PID.TID 0000.0001)                 9.661835748792270E-04
(PID.TID 0000.0001)     ;
(PID.TID 0000.0001) rUnit2mass = /* convert r-units [m] to mass per unit area [kg/m2] */
(PID.TID 0000.0001)                 1.035000000000000E+03
(PID.TID 0000.0001)     ;
(PID.TID 0000.0001) drC =   /* C spacing ( units of r ) */
(PID.TID 0000.0001)                 2.500000000000000E+01,      /* K =  1 */
(PID.TID 0000.0001)                 6.000000000000000E+01,      /* K =  2 */
(PID.TID 0000.0001)                 8.500000000000000E+01,      /* K =  3 */
(PID.TID 0000.0001)                 1.200000000000000E+02,      /* K =  4 */
(PID.TID 0000.0001)                 1.650000000000000E+02,      /* K =  5 */
(PID.TID 0000.0001)                 2.150000000000000E+02,      /* K =  6 */
(PID.TID 0000.0001)                 2.650000000000000E+02,      /* K =  7 */
(PID.TID 0000.0001)                 3.150000000000000E+02,      /* K =  8 */
(PID.TID 0000.0001)                 3.650000000000000E+02,      /* K =  9 */
(PID.TID 0000.0001)                 4.150000000000000E+02,      /* K = 10 */
(PID.TID 0000.0001)                 4.650000000000000E+02,      /* K = 11 */
(PID.TID 0000.0001)                 5.150000000000000E+02,      /* K = 12 */
(PID.TID 0000.0001)                 5.650000000000000E+02,      /* K = 13 */
(PID.TID 0000.0001)                 6.150000000000000E+02,      /* K = 14 */
(PID.TID 0000.0001)                 6.650000000000000E+02,      /* K = 15 */
(PID.TID 0000.0001)                 3.450000000000000E+02       /* K = 16 */
(PID.TID 0000.0001)     ;
(PID.TID 0000.0001) drF =   /* W spacing ( units of r ) */
(PID.TID 0000.0001)                 5.000000000000000E+01,      /* K =  1 */
(PID.TID 0000.0001)                 7.000000000000000E+01,      /* K =  2 */
(PID.TID 0000.0001)                 1.000000000000000E+02,      /* K =  3 */
(PID.TID 0000.0001)                 1.400000000000000E+02,      /* K =  4 */
(PID.TID 0000.0001)                 1.900000000000000E+02,      /* K =  5 */
(PID.TID 0000.0001)                 2.400000000000000E+02,      /* K =  6 */
(PID.TID 0000.0001)                 2.900000000000000E+02,      /* K =  7 */
(PID.TID 0000.0001)                 3.400000000000000E+02,      /* K =  8 */
(PID.TID 0000.0001)                 3.900000000000000E+02,      /* K =  9 */
(PID.TID 0000.0001)                 4.400000000000000E+02,      /* K = 10 */
(PID.TID 0000.0001)                 4.900000000000000E+02,      /* K = 11 */
(PID.TID 0000.0001)                 5.400000000000000E+02,      /* K = 12 */
(PID.TID 0000.0001)                 5.900000000000000E+02,      /* K = 13 */
(PID.TID 0000.0001)                 6.400000000000000E+02,      /* K = 14 */
(PID.TID 0000.0001)                 6.900000000000000E+02       /* K = 15 */
(PID.TID 0000.0001)     ;
(PID.TID 0000.0001) delX = /* U spacing ( m - cartesian, degrees - spherical ) */
(PID.TID 0000.0001)    42 @  2.812500000000000E+00              /* I =  1: 42 */
(PID.TID 0000.0001)     ;
(PID.TID 0000.0001) delY = /* V spacing ( m - cartesian, degrees - spherical ) */
(PID.TID 0000.0001)    20 @  2.812500000000000E+00              /* J =  1: 20 */
(PID.TID 0000.0001)     ;
(PID.TID 0000.0001) xgOrigin = /* X-axis origin of West  edge (cartesian: m, lat-lon: deg) */
(PID.TID 0000.0001)                 2.362500000000000E+02
(PID.TID 0000.0001)     ;
(PID.TID 0000.0001) ygOrigin = /* Y-axis origin of South edge (cartesian: m, lat-lon: deg) */
(PID.TID 0000.0001)                -8.156250000000000E+01
(PID.TID 0000.0001)     ;
(PID.TID 0000.0001) rSphere =  /* Radius ( ignored - cartesian, m - spherical ) */
(PID.TID 0000.0001)                 6.370000000000000E+06
(PID.TID 0000.0001)     ;
(PID.TID 0000.0001) deepAtmosphere = /* Deep/Shallow Atmosphere flag (True/False) */
(PID.TID 0000.0001)                   F
(PID.TID 0000.0001)     ;
(PID.TID 0000.0001) xC =  /* xC(:,1,:,1) : P-point X coord ( deg. or m if cartesian) */
(PID.TID 0000.0001)                 2.376562500000000E+02,      /* I =  1 */
(PID.TID 0000.0001)                 2.404687500000000E+02,      /* I =  2 */
(PID.TID 0000.0001)                 2.432812500000000E+02,      /* I =  3 */
(PID.TID 0000.0001)                 2.460937500000000E+02,      /* I =  4 */
(PID.TID 0000.0001)                 2.489062500000000E+02,      /* I =  5 */
(PID.TID 0000.0001)                 2.517187500000000E+02,      /* I =  6 */
(PID.TID 0000.0001)                 2.545312500000000E+02,      /* I =  7 */
(PID.TID 0000.0001)                 2.573437500000000E+02,      /* I =  8 */
(PID.TID 0000.0001)                 2.601562500000000E+02,      /* I =  9 */
(PID.TID 0000.0001)                 2.629687500000000E+02,      /* I = 10 */
(PID.TID 0000.0001)                 2.657812500000000E+02,      /* I = 11 */
(PID.TID 0000.0001)                 2.685937500000000E+02,      /* I = 12 */
(PID.TID 0000.0001)                 2.714062500000000E+02,      /* I = 13 */
(PID.TID 0000.0001)                 2.742187500000000E+02,      /* I = 14 */
(PID.TID 0000.0001)                 2.770312500000000E+02,      /* I = 15 */
(PID.TID 0000.0001)                 2.798437500000000E+02,      /* I = 16 */
(PID.TID 0000.0001)                 2.826562500000000E+02,      /* I = 17 */
(PID.TID 0000.0001)                 2.854687500000000E+02,      /* I = 18 */
(PID.TID 0000.0001)                 2.882812500000000E+02,      /* I = 19 */
(PID.TID 0000.0001)                 2.910937500000000E+02,      /* I = 20 */
(PID.TID 0000.0001)                 2.939062500000000E+02,      /* I = 21 */
(PID.TID 0000.0001)                 2.967187500000000E+02,      /* I = 22 */
(PID.TID 0000.0001)                 2.995312500000000E+02,      /* I = 23 */
(PID.TID 0000.0001)                 3.023437500000000E+02,      /* I = 24 */
(PID.TID 0000.0001)                 3.051562500000000E+02,      /* I = 25 */
(PID.TID 0000.0001)                 3.079687500000000E+02,      /* I = 26 */
(PID.TID 0000.0001)                 3.107812500000000E+02,      /* I = 27 */
(PID.TID 0000.0001)                 3.135937500000000E+02,      /* I = 28 */
(PID.TID 0000.0001)                 3.164062500000000E+02,      /* I = 29 */
(PID.TID 0000.0001)                 3.192187500000000E+02,      /* I = 30 */
(PID.TID 0000.0001)                 3.220312500000000E+02,      /* I = 31 */
(PID.TID 0000.0001)                 3.248437500000000E+02,      /* I = 32 */
(PID.TID 0000.0001)                 3.276562500000000E+02,      /* I = 33 */
(PID.TID 0000.0001)                 3.304687500000000E+02,      /* I = 34 */
(PID.TID 0000.0001)                 3.332812500000000E+02,      /* I = 35 */
(PID.TID 0000.0001)                 3.360937500000000E+02,      /* I = 36 */
(PID.TID 0000.0001)                 3.389062500000000E+02,      /* I = 37 */
(PID.TID 0000.0001)                 3.417187500000000E+02,      /* I = 38 */
(PID.TID 0000.0001)                 3.445312500000000E+02,      /* I = 39 */
(PID.TID 0000.0001)                 3.473437500000000E+02,      /* I = 40 */
(PID.TID 0000.0001)                 3.501562500000000E+02,      /* I = 41 */
(PID.TID 0000.0001)                 3.529687500000000E+02       /* I = 42 */
(PID.TID 0000.0001)     ;
(PID.TID 0000.0001) yC =  /* yC(1,:,1,:) : P-point Y coord ( deg. or m if cartesian) */
(PID.TID 0000.0001)                -8.015625000000000E+01,      /* J =  1 */
(PID.TID 0000.0001)                -7.734375000000000E+01,      /* J =  2 */
(PID.TID 0000.0001)                -7.453125000000000E+01,      /* J =  3 */
(PID.TID 0000.0001)                -7.171875000000000E+01,      /* J =  4 */
(PID.TID 0000.0001)                -6.890625000000000E+01,      /* J =  5 */
(PID.TID 0000.0001)                -6.609375000000000E+01,      /* J =  6 */
(PID.TID 0000.0001)                -6.328125000000000E+01,      /* J =  7 */
(PID.TID 0000.0001)                -6.046875000000000E+01,      /* J =  8 */
(PID.TID 0000.0001)                -5.765625000000000E+01,      /* J =  9 */
(PID.TID 0000.0001)                -5.484375000000000E+01,      /* J = 10 */
(PID.TID 0000.0001)                -5.203125000000000E+01,      /* J = 11 */
(PID.TID 0000.0001)                -4.921875000000000E+01,      /* J = 12 */
(PID.TID 0000.0001)                -4.640625000000000E+01,      /* J = 13 */
(PID.TID 0000.0001)                -4.359375000000000E+01,      /* J = 14 */
(PID.TID 0000.0001)                -4.078125000000000E+01,      /* J = 15 */
(PID.TID 0000.0001)                -3.796875000000000E+01,      /* J = 16 */
(PID.TID 0000.0001)                -3.515625000000000E+01,      /* J = 17 */
(PID.TID 0000.0001)                -3.234375000000000E+01,      /* J = 18 */
(PID.TID 0000.0001)                -2.953125000000000E+01,      /* J = 19 */
(PID.TID 0000.0001)                -2.671875000000000E+01       /* J = 20 */
(PID.TID 0000.0001)     ;
(PID.TID 0000.0001) rcoord = /* P-point R coordinate (  units of r ) */
(PID.TID 0000.0001)                -2.500000000000000E+01,      /* K =  1 */
(PID.TID 0000.0001)                -8.500000000000000E+01,      /* K =  2 */
(PID.TID 0000.0001)                -1.700000000000000E+02,      /* K =  3 */
(PID.TID 0000.0001)                -2.900000000000000E+02,      /* K =  4 */
(PID.TID 0000.0001)                -4.550000000000000E+02,      /* K =  5 */
(PID.TID 0000.0001)                -6.700000000000000E+02,      /* K =  6 */
(PID.TID 0000.0001)                -9.350000000000000E+02,      /* K =  7 */
(PID.TID 0000.0001)                -1.250000000000000E+03,      /* K =  8 */
(PID.TID 0000.0001)                -1.615000000000000E+03,      /* K =  9 */
(PID.TID 0000.0001)                -2.030000000000000E+03,      /* K = 10 */
(PID.TID 0000.0001)                -2.495000000000000E+03,      /* K = 11 */
(PID.TID 0000.0001)                -3.010000000000000E+03,      /* K = 12 */
(PID.TID 0000.0001)                -3.575000000000000E+03,      /* K = 13 */
(PID.TID 0000.0001)                -4.190000000000000E+03,      /* K = 14 */
(PID.TID 0000.0001)                -4.855000000000000E+03       /* K = 15 */
(PID.TID 0000.0001)     ;
(PID.TID 0000.0001) rF =   /* W-Interf. R coordinate (  units of r ) */
(PID.TID 0000.0001)                 0.000000000000000E+00,      /* K =  1 */
(PID.TID 0000.0001)                -5.000000000000000E+01,      /* K =  2 */
(PID.TID 0000.0001)                -1.200000000000000E+02,      /* K =  3 */
(PID.TID 0000.0001)                -2.200000000000000E+02,      /* K =  4 */
(PID.TID 0000.0001)                -3.600000000000000E+02,      /* K =  5 */
(PID.TID 0000.0001)                -5.500000000000000E+02,      /* K =  6 */
(PID.TID 0000.0001)                -7.900000000000000E+02,      /* K =  7 */
(PID.TID 0000.0001)                -1.080000000000000E+03,      /* K =  8 */
(PID.TID 0000.0001)                -1.420000000000000E+03,      /* K =  9 */
(PID.TID 0000.0001)                -1.810000000000000E+03,      /* K = 10 */
(PID.TID 0000.0001)                -2.250000000000000E+03,      /* K = 11 */
(PID.TID 0000.0001)                -2.740000000000000E+03,      /* K = 12 */
(PID.TID 0000.0001)                -3.280000000000000E+03,      /* K = 13 */
(PID.TID 0000.0001)                -3.870000000000000E+03,      /* K = 14 */
(PID.TID 0000.0001)                -4.510000000000000E+03,      /* K = 15 */
(PID.TID 0000.0001)                -5.200000000000000E+03       /* K = 16 */
(PID.TID 0000.0001)     ;
(PID.TID 0000.0001) deepFacC = /* deep-model grid factor @ cell-Center (-) */
(PID.TID 0000.0001)    15 @  1.000000000000000E+00              /* K =  1: 15 */
(PID.TID 0000.0001)     ;
(PID.TID 0000.0001) deepFacF = /* deep-model grid factor @ W-Interface (-) */
(PID.TID 0000.0001)    16 @  1.000000000000000E+00              /* K =  1: 16 */
(PID.TID 0000.0001)     ;
(PID.TID 0000.0001) rVel2wUnit = /* convert units: rVel -> wSpeed (=1 if z-coord)*/
(PID.TID 0000.0001)    16 @  1.000000000000000E+00              /* K =  1: 16 */
(PID.TID 0000.0001)     ;
(PID.TID 0000.0001) wUnit2rVel = /* convert units: wSpeed -> rVel (=1 if z-coord)*/
(PID.TID 0000.0001)    16 @  1.000000000000000E+00              /* K =  1: 16 */
(PID.TID 0000.0001)     ;
(PID.TID 0000.0001) dBdrRef = /* Vertical grad. of reference buoyancy [(m/s/r)^2] */
(PID.TID 0000.0001)    15 @  0.000000000000000E+00              /* K =  1: 15 */
(PID.TID 0000.0001)     ;
(PID.TID 0000.0001) rotateGrid = /* use rotated grid ( True/False ) */
(PID.TID 0000.0001)                   F
(PID.TID 0000.0001)     ;
(PID.TID 0000.0001) phiEuler = /* Euler angle, rotation about original z-coordinate [rad] */
(PID.TID 0000.0001)                 0.000000000000000E+00
(PID.TID 0000.0001)     ;
(PID.TID 0000.0001) thetaEuler = /* Euler angle, rotation about new x-coordinate [rad] */
(PID.TID 0000.0001)                 0.000000000000000E+00
(PID.TID 0000.0001)     ;
(PID.TID 0000.0001) psiEuler = /* Euler angle, rotation about new z-coordinate [rad] */
(PID.TID 0000.0001)                 0.000000000000000E+00
(PID.TID 0000.0001)     ;
(PID.TID 0000.0001) dxF =  /* dxF(:,1,:,1) ( units: m ) */
(PID.TID 0000.0001)    42 @  5.345749921461356E+04              /* I =  1: 42 */
(PID.TID 0000.0001)     ;
(PID.TID 0000.0001) dxF =  /* dxF(1,:,1,:) ( units: m ) */
(PID.TID 0000.0001)                 5.345749921461356E+04,      /* J =  1 */
(PID.TID 0000.0001)                 6.851003143764105E+04,      /* J =  2 */
(PID.TID 0000.0001)                 8.339751699416524E+04,      /* J =  3 */
(PID.TID 0000.0001)                 9.808409062749070E+04,      /* J =  4 */
(PID.TID 0000.0001)                 1.125343710953429E+05,      /* J =  5 */
(PID.TID 0000.0001)                 1.267135464063795E+05,      /* J =  6 */
(PID.TID 0000.0001)                 1.405874576853274E+05,      /* J =  7 */
(PID.TID 0000.0001)                 1.541226814647045E+05,      /* J =  8 */
(PID.TID 0000.0001)                 1.672866102048804E+05,      /* J =  9 */
(PID.TID 0000.0001)                 1.800475308484964E+05,      /* J = 10 */
(PID.TID 0000.0001)                 1.923747012199971E+05,      /* J = 11 */
(PID.TID 0000.0001)                 2.042384240862251E+05,      /* J = 12 */
(PID.TID 0000.0001)                 2.156101186996563E+05,      /* J = 13 */
(PID.TID 0000.0001)                 2.264623896519241E+05,      /* J = 14 */
(PID.TID 0000.0001)                 2.367690928717577E+05,      /* J = 15 */
(PID.TID 0000.0001)                 2.465053986083400E+05,      /* J = 16 */
(PID.TID 0000.0001)                 2.556478512483520E+05,      /* J = 17 */
(PID.TID 0000.0001)                 2.641744258225996E+05,      /* J = 18 */
(PID.TID 0000.0001)                 2.720645810660936E+05,      /* J = 19 */
(PID.TID 0000.0001)                 2.792993089037565E+05       /* J = 20 */
(PID.TID 0000.0001)     ;
(PID.TID 0000.0001) dyF =  /* dyF(:,1,:,1) ( units: m ) */
(PID.TID 0000.0001)    42 @  3.126866438026091E+05              /* I =  1: 42 */
(PID.TID 0000.0001)     ;
(PID.TID 0000.0001) dyF =  /* dyF(1,:,1,:) ( units: m ) */
(PID.TID 0000.0001)    20 @  3.126866438026091E+05              /* J =  1: 20 */
(PID.TID 0000.0001)     ;
(PID.TID 0000.0001) dxG =  /* dxG(:,1,:,1) ( units: m ) */
(PID.TID 0000.0001)    42 @  4.588065960101153E+04              /* I =  1: 42 */
(PID.TID 0000.0001)     ;
(PID.TID 0000.0001) dxG =  /* dxG(1,:,1,:) ( units: m ) */
(PID.TID 0000.0001)                 4.588065960101153E+04,      /* J =  1 */
(PID.TID 0000.0001)                 6.100213802959342E+04,      /* J =  2 */
(PID.TID 0000.0001)                 7.597665696450579E+04,      /* J =  3 */
(PID.TID 0000.0001)                 9.076814147802141E+04,      /* J =  4 */
(PID.TID 0000.0001)                 1.053409575883663E+05,      /* J =  5 */
(PID.TID 0000.0001)                 1.196599981051027E+05,      /* J =  6 */
(PID.TID 0000.0001)                 1.336907672054259E+05,      /* J =  7 */
(PID.TID 0000.0001)                 1.473994635376230E+05,      /* J =  8 */
(PID.TID 0000.0001)                 1.607530616514898E+05,      /* J =  9 */
(PID.TID 0000.0001)                 1.737193915595329E+05,      /* J = 10 */
(PID.TID 0000.0001)                 1.862672162372875E+05,      /* J = 11 */
(PID.TID 0000.0001)                 1.983663068760452E+05,      /* J = 12 */
(PID.TID 0000.0001)                 2.099875157067021E+05,      /* J = 13 */
(PID.TID 0000.0001)                 2.211028462192875E+05,      /* J = 14 */
(PID.TID 0000.0001)                 2.316855206090085E+05,      /* J = 15 */
(PID.TID 0000.0001)                 2.417100442863276E+05,      /* J = 16 */
(PID.TID 0000.0001)                 2.511522672956614E+05,      /* J = 17 */
(PID.TID 0000.0001)                 2.599894424947394E+05,      /* J = 18 */
(PID.TID 0000.0001)                 2.682002803544621E+05,      /* J = 19 */
(PID.TID 0000.0001)                 2.757650002472408E+05       /* J = 20 */
(PID.TID 0000.0001)     ;
(PID.TID 0000.0001) dyG =  /* dyG(:,1,:,1) ( units: m ) */
(PID.TID 0000.0001)    42 @  3.126866438026091E+05              /* I =  1: 42 */
(PID.TID 0000.0001)     ;
(PID.TID 0000.0001) dyG =  /* dyG(1,:,1,:) ( units: m ) */
(PID.TID 0000.0001)    20 @  3.126866438026091E+05              /* J =  1: 20 */
(PID.TID 0000.0001)     ;
(PID.TID 0000.0001) dxC =  /* dxC(:,1,:,1) ( units: m ) */
(PID.TID 0000.0001)    42 @  5.345749921461356E+04              /* I =  1: 42 */
(PID.TID 0000.0001)     ;
(PID.TID 0000.0001) dxC =  /* dxC(1,:,1,:) ( units: m ) */
(PID.TID 0000.0001)                 5.345749921461356E+04,      /* J =  1 */
(PID.TID 0000.0001)                 6.851003143764105E+04,      /* J =  2 */
(PID.TID 0000.0001)                 8.339751699416524E+04,      /* J =  3 */
(PID.TID 0000.0001)                 9.808409062749070E+04,      /* J =  4 */
(PID.TID 0000.0001)                 1.125343710953429E+05,      /* J =  5 */
(PID.TID 0000.0001)                 1.267135464063795E+05,      /* J =  6 */
(PID.TID 0000.0001)                 1.405874576853274E+05,      /* J =  7 */
(PID.TID 0000.0001)                 1.541226814647045E+05,      /* J =  8 */
(PID.TID 0000.0001)                 1.672866102048804E+05,      /* J =  9 */
(PID.TID 0000.0001)                 1.800475308484964E+05,      /* J = 10 */
(PID.TID 0000.0001)                 1.923747012199971E+05,      /* J = 11 */
(PID.TID 0000.0001)                 2.042384240862251E+05,      /* J = 12 */
(PID.TID 0000.0001)                 2.156101186996563E+05,      /* J = 13 */
(PID.TID 0000.0001)                 2.264623896519241E+05,      /* J = 14 */
(PID.TID 0000.0001)                 2.367690928717577E+05,      /* J = 15 */
(PID.TID 0000.0001)                 2.465053986083400E+05,      /* J = 16 */
(PID.TID 0000.0001)                 2.556478512483520E+05,      /* J = 17 */
(PID.TID 0000.0001)                 2.641744258225996E+05,      /* J = 18 */
(PID.TID 0000.0001)                 2.720645810660936E+05,      /* J = 19 */
(PID.TID 0000.0001)                 2.792993089037565E+05       /* J = 20 */
(PID.TID 0000.0001)     ;
(PID.TID 0000.0001) dyC =  /* dyC(:,1,:,1) ( units: m ) */
(PID.TID 0000.0001)    42 @  3.126866438026091E+05              /* I =  1: 42 */
(PID.TID 0000.0001)     ;
(PID.TID 0000.0001) dyC =  /* dyC(1,:,1,:) ( units: m ) */
(PID.TID 0000.0001)    20 @  3.126866438026091E+05              /* J =  1: 20 */
(PID.TID 0000.0001)     ;
(PID.TID 0000.0001) dxV =  /* dxV(:,1,:,1) ( units: m ) */
(PID.TID 0000.0001)    42 @  4.588065960101153E+04              /* I =  1: 42 */
(PID.TID 0000.0001)     ;
(PID.TID 0000.0001) dxV =  /* dxV(1,:,1,:) ( units: m ) */
(PID.TID 0000.0001)                 4.588065960101153E+04,      /* J =  1 */
(PID.TID 0000.0001)                 6.100213802959342E+04,      /* J =  2 */
(PID.TID 0000.0001)                 7.597665696450579E+04,      /* J =  3 */
(PID.TID 0000.0001)                 9.076814147802141E+04,      /* J =  4 */
(PID.TID 0000.0001)                 1.053409575883663E+05,      /* J =  5 */
(PID.TID 0000.0001)                 1.196599981051027E+05,      /* J =  6 */
(PID.TID 0000.0001)                 1.336907672054259E+05,      /* J =  7 */
(PID.TID 0000.0001)                 1.473994635376230E+05,      /* J =  8 */
(PID.TID 0000.0001)                 1.607530616514898E+05,      /* J =  9 */
(PID.TID 0000.0001)                 1.737193915595329E+05,      /* J = 10 */
(PID.TID 0000.0001)                 1.862672162372875E+05,      /* J = 11 */
(PID.TID 0000.0001)                 1.983663068760452E+05,      /* J = 12 */
(PID.TID 0000.0001)                 2.099875157067021E+05,      /* J = 13 */
(PID.TID 0000.0001)                 2.211028462192875E+05,      /* J = 14 */
(PID.TID 0000.0001)                 2.316855206090085E+05,      /* J = 15 */
(PID.TID 0000.0001)                 2.417100442863276E+05,      /* J = 16 */
(PID.TID 0000.0001)                 2.511522672956614E+05,      /* J = 17 */
(PID.TID 0000.0001)                 2.599894424947394E+05,      /* J = 18 */
(PID.TID 0000.0001)                 2.682002803544621E+05,      /* J = 19 */
(PID.TID 0000.0001)                 2.757650002472408E+05       /* J = 20 */
(PID.TID 0000.0001)     ;
(PID.TID 0000.0001) dyU =  /* dyU(:,1,:,1) ( units: m ) */
(PID.TID 0000.0001)    42 @  3.126866438026091E+05              /* I =  1: 42 */
(PID.TID 0000.0001)     ;
(PID.TID 0000.0001) dyU =  /* dyU(1,:,1,:) ( units: m ) */
(PID.TID 0000.0001)    20 @  3.126866438026091E+05              /* J =  1: 20 */
(PID.TID 0000.0001)     ;
(PID.TID 0000.0001) rA  =  /* rA (:,1,:,1) ( units: m^2 ) */
(PID.TID 0000.0001)    42 @  1.671376785519299E+10              /* I =  1: 42 */
(PID.TID 0000.0001)     ;
(PID.TID 0000.0001) rA  =  /* rA (1,:,1,:) ( units: m^2 ) */
(PID.TID 0000.0001)                 1.671376785519299E+10,      /* J =  1 */
(PID.TID 0000.0001)                 2.142002110131771E+10,      /* J =  2 */
(PID.TID 0000.0001)                 2.607467164043704E+10,      /* J =  3 */
(PID.TID 0000.0001)                 3.066650601170349E+10,      /* J =  4 */
(PID.TID 0000.0001)                 3.518446208391881E+10,      /* J =  5 */
(PID.TID 0000.0001)                 3.961765570517892E+10,      /* J =  6 */
(PID.TID 0000.0001)                 4.395540692374860E+10,      /* J =  7 */
(PID.TID 0000.0001)                 4.818726571700000E+10,      /* J =  8 */
(PID.TID 0000.0001)                 5.230303716643333E+10,      /* J =  9 */
(PID.TID 0000.0001)                 5.629280601812741E+10,      /* J = 10 */
(PID.TID 0000.0001)                 6.014696056945659E+10,      /* J = 11 */
(PID.TID 0000.0001)                 6.385621582452237E+10,      /* J = 12 */
(PID.TID 0000.0001)                 6.741163586252303E+10,      /* J = 13 */
(PID.TID 0000.0001)                 7.080465536516846E+10,      /* J = 14 */
(PID.TID 0000.0001)                 7.402710025128452E+10,      /* J = 15 */
(PID.TID 0000.0001)                 7.707120736888658E+10,      /* J = 16 */
(PID.TID 0000.0001)                 7.992964319729683E+10,      /* J = 17 */
(PID.TID 0000.0001)                 8.259552151423444E+10,      /* J = 18 */
(PID.TID 0000.0001)                 8.506241998533159E+10,      /* J = 19 */
(PID.TID 0000.0001)                 8.732439563609566E+10       /* J = 20 */
(PID.TID 0000.0001)     ;
(PID.TID 0000.0001) rAw =  /* rAw(:,1,:,1) ( units: m^2 ) */
(PID.TID 0000.0001)    42 @  1.671376785519299E+10              /* I =  1: 42 */
(PID.TID 0000.0001)     ;
(PID.TID 0000.0001) rAw =  /* rAw(1,:,1,:) ( units: m^2 ) */
(PID.TID 0000.0001)                 1.671376785519299E+10,      /* J =  1 */
(PID.TID 0000.0001)                 2.142002110131771E+10,      /* J =  2 */
(PID.TID 0000.0001)                 2.607467164043704E+10,      /* J =  3 */
(PID.TID 0000.0001)                 3.066650601170349E+10,      /* J =  4 */
(PID.TID 0000.0001)                 3.518446208391881E+10,      /* J =  5 */
(PID.TID 0000.0001)                 3.961765570517892E+10,      /* J =  6 */
(PID.TID 0000.0001)                 4.395540692374860E+10,      /* J =  7 */
(PID.TID 0000.0001)                 4.818726571700000E+10,      /* J =  8 */
(PID.TID 0000.0001)                 5.230303716643333E+10,      /* J =  9 */
(PID.TID 0000.0001)                 5.629280601812741E+10,      /* J = 10 */
(PID.TID 0000.0001)                 6.014696056945659E+10,      /* J = 11 */
(PID.TID 0000.0001)                 6.385621582452237E+10,      /* J = 12 */
(PID.TID 0000.0001)                 6.741163586252303E+10,      /* J = 13 */
(PID.TID 0000.0001)                 7.080465536516846E+10,      /* J = 14 */
(PID.TID 0000.0001)                 7.402710025128452E+10,      /* J = 15 */
(PID.TID 0000.0001)                 7.707120736888658E+10,      /* J = 16 */
(PID.TID 0000.0001)                 7.992964319729683E+10,      /* J = 17 */
(PID.TID 0000.0001)                 8.259552151423444E+10,      /* J = 18 */
(PID.TID 0000.0001)                 8.506241998533159E+10,      /* J = 19 */
(PID.TID 0000.0001)                 8.732439563609566E+10       /* J = 20 */
(PID.TID 0000.0001)     ;
(PID.TID 0000.0001) rAs =  /* rAs(:,1,:,1) ( units: m^2 ) */
(PID.TID 0000.0001)    42 @  1.434482916112175E+10              /* I =  1: 42 */
(PID.TID 0000.0001)     ;
(PID.TID 0000.0001) rAs =  /* rAs(1,:,1,:) ( units: m^2 ) */
(PID.TID 0000.0001)                 1.434482916112175E+10,      /* J =  1 */
(PID.TID 0000.0001)                 1.907263880047594E+10,      /* J =  2 */
(PID.TID 0000.0001)                 2.375450078239423E+10,      /* J =  3 */
(PID.TID 0000.0001)                 2.837913609127881E+10,      /* J =  4 */
(PID.TID 0000.0001)                 3.293540357560110E+10,      /* J =  5 */
(PID.TID 0000.0001)                 3.741232678790870E+10,      /* J =  6 */
(PID.TID 0000.0001)                 4.179912042805190E+10,      /* J =  7 */
(PID.TID 0000.0001)                 4.608521632591324E+10,      /* J =  8 */
(PID.TID 0000.0001)                 5.026028890105701E+10,      /* J =  9 */
(PID.TID 0000.0001)                 5.431428003795675E+10,      /* J = 10 */
(PID.TID 0000.0001)                 5.823742331687641E+10,      /* J = 11 */
(PID.TID 0000.0001)                 6.202026754202965E+10,      /* J = 12 */
(PID.TID 0000.0001)                 6.565369951034003E+10,      /* J = 13 */
(PID.TID 0000.0001)                 6.912896596594559E+10,      /* J = 14 */
(PID.TID 0000.0001)                 7.243769468755632E+10,      /* J = 15 */
(PID.TID 0000.0001)                 7.557191465787256E+10,      /* J = 16 */
(PID.TID 0000.0001)                 7.852407526645966E+10,      /* J = 17 */
(PID.TID 0000.0001)                 8.128706449983365E+10,      /* J = 18 */
(PID.TID 0000.0001)                 8.385422607492096E+10,      /* J = 19 */
(PID.TID 0000.0001)                 8.621937547463148E+10       /* J = 20 */
(PID.TID 0000.0001)     ;
(PID.TID 0000.0001) globalArea = /* Integrated horizontal Area (m^2) */
(PID.TID 0000.0001)                 3.507619373042164E+13
(PID.TID 0000.0001)     ;
(PID.TID 0000.0001) the_run_name = /* Name of this simulation */
(PID.TID 0000.0001)               'OBC + Biogeo S.Ocean Box'
(PID.TID 0000.0001)     ;
(PID.TID 0000.0001) // =======================================================
(PID.TID 0000.0001) // End of Model config. summary
(PID.TID 0000.0001) // =======================================================
(PID.TID 0000.0001) 
(PID.TID 0000.0001) == Packages configuration : Check & print summary ==
(PID.TID 0000.0001) 
(PID.TID 0000.0001) OBCS_CHECK: #define ALLOW_OBCS
(PID.TID 0000.0001) OBCS_CHECK: start summary:
(PID.TID 0000.0001) useOBCSprescribe = /* prescribe OB values */
(PID.TID 0000.0001)                   T
(PID.TID 0000.0001)     ;
(PID.TID 0000.0001) useOBCSbalance = /* balance the flow through OB */
(PID.TID 0000.0001)                   F
(PID.TID 0000.0001)     ;
(PID.TID 0000.0001) OBCS_uvApplyFac = /* Factor to apply to U,V 2nd column/row */
(PID.TID 0000.0001)                 1.000000000000000E+00
(PID.TID 0000.0001)     ;
(PID.TID 0000.0001) OBCS_u1_adv_T = /* Temp uses upwind adv-scheme @ OB */
(PID.TID 0000.0001)                       1
(PID.TID 0000.0001)     ;
(PID.TID 0000.0001) OBCS_u1_adv_S = /* Salt uses upwind adv-scheme @ OB */
(PID.TID 0000.0001)                       1
(PID.TID 0000.0001)     ;
(PID.TID 0000.0001) OBCS_monitorFreq = /* monitor output frequency [s] */
(PID.TID 0000.0001)                 1.000000000000000E+00
(PID.TID 0000.0001)     ;
(PID.TID 0000.0001) OBCS_monSelect = /* select group of variables to monitor */
(PID.TID 0000.0001)                       1
(PID.TID 0000.0001)     ;
(PID.TID 0000.0001) useOBCStides = /* apply tidal forcing through OB */
(PID.TID 0000.0001)                   F
(PID.TID 0000.0001)     ;
(PID.TID 0000.0001) tidalPeriod = /* (s) */
(PID.TID 0000.0001)    10 @  0.000000000000000E+00              /* I =  1: 10 */
(PID.TID 0000.0001)     ;
(PID.TID 0000.0001) OB_indexNone = /* null value for OB index (i.e. no OB) */
(PID.TID 0000.0001)                     -99
(PID.TID 0000.0001)     ;
(PID.TID 0000.0001) ======== Tile bi=   1 , bj=   1 ========
(PID.TID 0000.0001)  OB_Jn = /* Northern OB local indices */
(PID.TID 0000.0001)    20 @      -99                            /* I = -2: 17 */
(PID.TID 0000.0001)  OB_Js = /* Southern OB local indices */
(PID.TID 0000.0001)    20 @      -99                            /* I = -2: 17 */
(PID.TID 0000.0001)  OB_Ie = /* Eastern OB local indices */
(PID.TID 0000.0001)    16 @      -99                            /* J = -2: 13 */
(PID.TID 0000.0001)  OB_Iw = /* Western OB local indices */
(PID.TID 0000.0001)    16 @        1                            /* J = -2: 13 */
(PID.TID 0000.0001) ======== Tile bi=   2 , bj=   1 ========
(PID.TID 0000.0001)  OB_Jn = /* Northern OB local indices */
(PID.TID 0000.0001)    20 @      -99                            /* I = -2: 17 */
(PID.TID 0000.0001)  OB_Js = /* Southern OB local indices */
(PID.TID 0000.0001)    20 @      -99                            /* I = -2: 17 */
(PID.TID 0000.0001)  OB_Ie = /* Eastern OB local indices */
(PID.TID 0000.0001)    16 @      -99                            /* J = -2: 13 */
(PID.TID 0000.0001)  OB_Iw = /* Western OB local indices */
(PID.TID 0000.0001)    16 @      -99                            /* J = -2: 13 */
(PID.TID 0000.0001) ======== Tile bi=   3 , bj=   1 ========
(PID.TID 0000.0001)  OB_Jn = /* Northern OB local indices */
(PID.TID 0000.0001)    20 @      -99                            /* I = -2: 17 */
(PID.TID 0000.0001)  OB_Js = /* Southern OB local indices */
(PID.TID 0000.0001)    20 @      -99                            /* I = -2: 17 */
(PID.TID 0000.0001)  OB_Ie = /* Eastern OB local indices */
(PID.TID 0000.0001)    16 @       14                            /* J = -2: 13 */
(PID.TID 0000.0001)  OB_Iw = /* Western OB local indices */
(PID.TID 0000.0001)    16 @      -99                            /* J = -2: 13 */
(PID.TID 0000.0001) ======== Tile bi=   1 , bj=   2 ========
(PID.TID 0000.0001)  OB_Jn = /* Northern OB local indices */
(PID.TID 0000.0001)    20 @       10                            /* I = -2: 17 */
(PID.TID 0000.0001)  OB_Js = /* Southern OB local indices */
(PID.TID 0000.0001)    20 @      -99                            /* I = -2: 17 */
(PID.TID 0000.0001)  OB_Ie = /* Eastern OB local indices */
(PID.TID 0000.0001)    16 @      -99                            /* J = -2: 13 */
(PID.TID 0000.0001)  OB_Iw = /* Western OB local indices */
(PID.TID 0000.0001)    16 @        1                            /* J = -2: 13 */
(PID.TID 0000.0001) ======== Tile bi=   2 , bj=   2 ========
(PID.TID 0000.0001)  OB_Jn = /* Northern OB local indices */
(PID.TID 0000.0001)    20 @       10                            /* I = -2: 17 */
(PID.TID 0000.0001)  OB_Js = /* Southern OB local indices */
(PID.TID 0000.0001)    20 @      -99                            /* I = -2: 17 */
(PID.TID 0000.0001)  OB_Ie = /* Eastern OB local indices */
(PID.TID 0000.0001)    16 @      -99                            /* J = -2: 13 */
(PID.TID 0000.0001)  OB_Iw = /* Western OB local indices */
(PID.TID 0000.0001)    16 @      -99                            /* J = -2: 13 */
(PID.TID 0000.0001) ======== Tile bi=   3 , bj=   2 ========
(PID.TID 0000.0001)  OB_Jn = /* Northern OB local indices */
(PID.TID 0000.0001)    20 @       10                            /* I = -2: 17 */
(PID.TID 0000.0001)  OB_Js = /* Southern OB local indices */
(PID.TID 0000.0001)    20 @      -99                            /* I = -2: 17 */
(PID.TID 0000.0001)  OB_Ie = /* Eastern OB local indices */
(PID.TID 0000.0001)    16 @       14                            /* J = -2: 13 */
(PID.TID 0000.0001)  OB_Iw = /* Western OB local indices */
(PID.TID 0000.0001)    16 @      -99                            /* J = -2: 13 */
(PID.TID 0000.0001) OBCS_CHECK: end summary.
(PID.TID 0000.0001) OBCS_CHECK: #define ALLOW_ORLANSKI
(PID.TID 0000.0001) OBCS_CHECK: set-up OK
(PID.TID 0000.0001) OBCS_CHECK: check Inside Mask and OB locations: OK
(PID.TID 0000.0001) GMREDI_CHECK: #define GMREDI
(PID.TID 0000.0001) GM_AdvForm =     /* if FALSE => use SkewFlux Form */
(PID.TID 0000.0001)                   T
(PID.TID 0000.0001)     ;
(PID.TID 0000.0001) GM_InMomAsStress = /* if TRUE => apply as Eddy Stress */
(PID.TID 0000.0001)                   F
(PID.TID 0000.0001)     ;
(PID.TID 0000.0001) GM_AdvSeparate = /* Calc Bolus & Euler Adv. separately */
(PID.TID 0000.0001)                   F
(PID.TID 0000.0001)     ;
(PID.TID 0000.0001) GM_ExtraDiag =   /* Tensor Extra Diag (line 1&2) non 0 */
(PID.TID 0000.0001)                   T
(PID.TID 0000.0001)     ;
(PID.TID 0000.0001) GM_isopycK =    /* Background Isopyc. Diffusivity [m^2/s] */
(PID.TID 0000.0001)                 1.000000000000000E+03
(PID.TID 0000.0001)     ;
(PID.TID 0000.0001) GM_skewflx*K =  /* Background GM_SkewFlx Diffusivity [m^2/s] */
(PID.TID 0000.0001)                 0.000000000000000E+00
(PID.TID 0000.0001)     ;
(PID.TID 0000.0001) GM_advec*K =    /* Backg. GM-Advec(=Bolus) Diffusivity [m^2/s]*/
(PID.TID 0000.0001)                 1.000000000000000E+03
(PID.TID 0000.0001)     ;
(PID.TID 0000.0001) GM_Kmin_horiz = /* Minimum Horizontal Diffusivity [m^2/s] */
(PID.TID 0000.0001)                 1.000000000000000E+02
(PID.TID 0000.0001)     ;
(PID.TID 0000.0001) GM_Visbeck_alpha = /* Visbeck alpha coeff. [-] */
(PID.TID 0000.0001)                 0.000000000000000E+00
(PID.TID 0000.0001)     ;
(PID.TID 0000.0001) GM_Small_Number =  /* epsilon used in slope calc */
(PID.TID 0000.0001)                 9.999999999999999E-21
(PID.TID 0000.0001)     ;
(PID.TID 0000.0001) GM_slopeSqCutoff = /* Slope^2 cut-off value */
(PID.TID 0000.0001)                 1.000000000000000E+48
(PID.TID 0000.0001)     ;
(PID.TID 0000.0001) GM_taper_scheme =  /* Type of Tapering/Clipping scheme */
(PID.TID 0000.0001)               'gkw91                                   '
(PID.TID 0000.0001)     ;
(PID.TID 0000.0001) GM_maxSlope =  /* Maximum Slope (Tapering/Clipping) */
(PID.TID 0000.0001)                 1.000000000000000E-02
(PID.TID 0000.0001)     ;
(PID.TID 0000.0001) GM_facTrL2dz = /* Minimum Trans.Layer Thick. (factor of dz) */
(PID.TID 0000.0001)                 1.000000000000000E+00
(PID.TID 0000.0001)     ;
(PID.TID 0000.0001) GM_facTrL2ML = /* Max.Trans.Layer Thick. (factor of MxL Depth)*/
(PID.TID 0000.0001)                 5.000000000000000E+00
(PID.TID 0000.0001)     ;
(PID.TID 0000.0001) GM_maxTransLay = /* Maximum Transition Layer Thickness [m] */
(PID.TID 0000.0001)                 5.000000000000000E+02
(PID.TID 0000.0001)     ;
(PID.TID 0000.0001) GM_UseBVP = /* if TRUE => use bvp a la Ferrari et al. (2010) */
(PID.TID 0000.0001)                   F
(PID.TID 0000.0001)     ;
(PID.TID 0000.0001) GM_BVP_ModeNumber = /* Vertical mode number for BVP wave speed */
(PID.TID 0000.0001)                       1
(PID.TID 0000.0001)     ;
(PID.TID 0000.0001) GM_BVP_cMin = /* Minimum wave speed for BVP [m/s] */
(PID.TID 0000.0001)                 1.000000000000000E-01
(PID.TID 0000.0001)     ;
(PID.TID 0000.0001) GM_useSubMeso = /* if TRUE => use Sub-Meso param. (B.Fox-Kemper) */
(PID.TID 0000.0001)                   F
(PID.TID 0000.0001)     ;
(PID.TID 0000.0001) subMeso_Ceff = /* efficiency coeff. of Mixed-Layer Eddies [-] */
(PID.TID 0000.0001)                 7.000000000000001E-02
(PID.TID 0000.0001)     ;
(PID.TID 0000.0001) subMeso_invTau = /* inverse of Sub-Meso mixing time-scale [/s] */
(PID.TID 0000.0001)                 2.000000000000000E-06
(PID.TID 0000.0001)     ;
(PID.TID 0000.0001) subMeso_LfMin = /* minimum length-scale "Lf" [m] */
(PID.TID 0000.0001)                 1.000000000000000E+03
(PID.TID 0000.0001)     ;
(PID.TID 0000.0001) subMeso_Lmax = /* maximum grid-scale length [m] */
(PID.TID 0000.0001)                 1.100000000000000E+05
(PID.TID 0000.0001)     ;
(PID.TID 0000.0001) PTRACERS_CHECK: #define ALLOW_PTRACERS
(PID.TID 0000.0001) // ===================================
(PID.TID 0000.0001) // PTRACERS parameters
(PID.TID 0000.0001) // ===================================
(PID.TID 0000.0001) PTRACERS_numInUse = /* number of tracers */
(PID.TID 0000.0001)                       5
(PID.TID 0000.0001)     ;
(PID.TID 0000.0001) PTRACERS_Iter0 = /* timestep number when tracers are initialized */
(PID.TID 0000.0001)                       0
(PID.TID 0000.0001)     ;
(PID.TID 0000.0001) PTRACERS_startAllTrc =/* all tracers start @ startTime */
(PID.TID 0000.0001)                   T
(PID.TID 0000.0001)     ;
(PID.TID 0000.0001) PTRACERS_doAB_onGpTr =/* apply AB on Tendencies (rather than on Tracers) */
(PID.TID 0000.0001)                   T
(PID.TID 0000.0001)     ;
(PID.TID 0000.0001) PTRACERS_addSrelax2EmP =/* add Salt relaxation to EmP */
(PID.TID 0000.0001)                   F
(PID.TID 0000.0001)     ;
(PID.TID 0000.0001) PTRACERS_dTLev =   /* Ptracer timestep ( s ) */
(PID.TID 0000.0001)    15 @  4.320000000000000E+04              /* K =  1: 15 */
(PID.TID 0000.0001)     ;
(PID.TID 0000.0001) PTRACERS_monitorFreq = /* Frequency^-1 for monitor output (s) */
(PID.TID 0000.0001)                 1.000000000000000E+00
(PID.TID 0000.0001)     ;
(PID.TID 0000.0001) PTRACERS_dumpFreq = /* Frequency^-1 for snapshot output (s) */
(PID.TID 0000.0001)                 2.592000000000000E+06
(PID.TID 0000.0001)     ;
(PID.TID 0000.0001) PTRACERS_taveFreq = /* Frequency^-1 for time-Aver. output (s) */
(PID.TID 0000.0001)                 0.000000000000000E+00
(PID.TID 0000.0001)     ;
(PID.TID 0000.0001) PTRACERS_useRecords = /* all tracers in 1 file */
(PID.TID 0000.0001)                   F
(PID.TID 0000.0001)     ;
(PID.TID 0000.0001) PTRACERS_timeave_mnc = /* use MNC for Tave output */
(PID.TID 0000.0001)                   F
(PID.TID 0000.0001)     ;
(PID.TID 0000.0001) PTRACERS_snapshot_mnc = /* use MNC for snapshot output */
(PID.TID 0000.0001)                   F
(PID.TID 0000.0001)     ;
(PID.TID 0000.0001) PTRACERS_pickup_write_mnc = /* use MNC for writing pickups */
(PID.TID 0000.0001)                   F
(PID.TID 0000.0001)     ;
(PID.TID 0000.0001) PTRACERS_pickup_read_mnc = /* use MNC for reading pickups */
(PID.TID 0000.0001)                   F
(PID.TID 0000.0001)     ;
(PID.TID 0000.0001)  -----------------------------------
(PID.TID 0000.0001)  tracer number :    1
(PID.TID 0000.0001) PTRACERS_names = /* Tracer short name */
(PID.TID 0000.0001)               'DIC'
(PID.TID 0000.0001)     ;
(PID.TID 0000.0001) PTRACERS_long_names = /* Tracer long name */
(PID.TID 0000.0001)               'Dissolved Inorganic Carbon (DIC) [mol C/m^3]'
(PID.TID 0000.0001)     ;
(PID.TID 0000.0001) PTRACERS_ioLabel = /* tracer IO Label */
(PID.TID 0000.0001)               '01'
(PID.TID 0000.0001)     ;
(PID.TID 0000.0001) PTRACERS_advScheme = /* Advection Scheme */
(PID.TID 0000.0001)                      77
(PID.TID 0000.0001)     ;
(PID.TID 0000.0001) PTRACERS_SOM_Advection = /* tracer uses SOM advection scheme */
(PID.TID 0000.0001)                   F
(PID.TID 0000.0001)     ;
(PID.TID 0000.0001) PTRACERS_ImplVertAdv = /* implicit vert. advection flag */
(PID.TID 0000.0001)                   F
(PID.TID 0000.0001)     ;
(PID.TID 0000.0001) PTRACERS_MultiDimAdv = /* tracer uses Multi-Dim advection */
(PID.TID 0000.0001)                   T
(PID.TID 0000.0001)     ;
(PID.TID 0000.0001) PTRACERS_AdamsBashGtr = /* apply AB on tracer tendency */
(PID.TID 0000.0001)                   F
(PID.TID 0000.0001)     ;
(PID.TID 0000.0001) PTRACERS_AdamsBash_Tr = /* apply AB on passive tracer */
(PID.TID 0000.0001)                   F
(PID.TID 0000.0001)     ;
(PID.TID 0000.0001) PTRACERS_diffKh = /* Laplacian Diffusivity */
(PID.TID 0000.0001)                 0.000000000000000E+00
(PID.TID 0000.0001)     ;
(PID.TID 0000.0001) PTRACERS_diffK4 = /* Biharmonic Diffusivity */
(PID.TID 0000.0001)                 0.000000000000000E+00
(PID.TID 0000.0001)     ;
(PID.TID 0000.0001) PTRACERS_diffKrNr = /* Vertical Diffusivity */
(PID.TID 0000.0001)    15 @  3.000000000000000E-05              /* K =  1: 15 */
(PID.TID 0000.0001)     ;
(PID.TID 0000.0001) PTRACERS_useGMRedi = /* apply GM-Redi */
(PID.TID 0000.0001)                   T
(PID.TID 0000.0001)     ;
(PID.TID 0000.0001) PTRACERS_useDWNSLP = /* apply DOWN-SLOPE Flow */
(PID.TID 0000.0001)                   F
(PID.TID 0000.0001)     ;
(PID.TID 0000.0001) PTRACERS_useKPP = /* apply KPP scheme */
(PID.TID 0000.0001)                   F
(PID.TID 0000.0001)     ;
(PID.TID 0000.0001) PTRACERS_ref = /* Reference vertical profile */
(PID.TID 0000.0001)                 2.028200000000000E+00,      /* K =  1 */
(PID.TID 0000.0001)                 2.060900000000000E+00,      /* K =  2 */
(PID.TID 0000.0001)                 2.120600000000000E+00,      /* K =  3 */
(PID.TID 0000.0001)                 2.158100000000000E+00,      /* K =  4 */
(PID.TID 0000.0001)                 2.190400000000000E+00,      /* K =  5 */
(PID.TID 0000.0001)                 2.218800000000000E+00,      /* K =  6 */
(PID.TID 0000.0001)                 2.247400000000000E+00,      /* K =  7 */
(PID.TID 0000.0001)                 2.269900000000000E+00,      /* K =  8 */
(PID.TID 0000.0001)                 2.279200000000000E+00,      /* K =  9 */
(PID.TID 0000.0001)                 2.281400000000000E+00,      /* K = 10 */
(PID.TID 0000.0001)                 2.281500000000000E+00,      /* K = 11 */
(PID.TID 0000.0001)                 2.280600000000000E+00,      /* K = 12 */
(PID.TID 0000.0001)                 2.280000000000000E+00,      /* K = 13 */
(PID.TID 0000.0001)                 2.276000000000000E+00,      /* K = 14 */
(PID.TID 0000.0001)                 2.275800000000000E+00       /* K = 15 */
(PID.TID 0000.0001)     ;
(PID.TID 0000.0001) PTRACERS_EvPrRn =/* tracer conc. in Evap. & Rain */
(PID.TID 0000.0001)                 0.000000000000000E+00
(PID.TID 0000.0001)     ;
(PID.TID 0000.0001)  -----------------------------------
(PID.TID 0000.0001)  tracer number :    2
(PID.TID 0000.0001) PTRACERS_names = /* Tracer short name */
(PID.TID 0000.0001)               'Alk'
(PID.TID 0000.0001)     ;
(PID.TID 0000.0001) PTRACERS_long_names = /* Tracer long name */
(PID.TID 0000.0001)               'Alkalinity (Alk) [mol eq/m^3]'
(PID.TID 0000.0001)     ;
(PID.TID 0000.0001) PTRACERS_ioLabel = /* tracer IO Label */
(PID.TID 0000.0001)               '02'
(PID.TID 0000.0001)     ;
(PID.TID 0000.0001) PTRACERS_advScheme = /* Advection Scheme */
(PID.TID 0000.0001)                      77
(PID.TID 0000.0001)     ;
(PID.TID 0000.0001) PTRACERS_SOM_Advection = /* tracer uses SOM advection scheme */
(PID.TID 0000.0001)                   F
(PID.TID 0000.0001)     ;
(PID.TID 0000.0001) PTRACERS_ImplVertAdv = /* implicit vert. advection flag */
(PID.TID 0000.0001)                   F
(PID.TID 0000.0001)     ;
(PID.TID 0000.0001) PTRACERS_MultiDimAdv = /* tracer uses Multi-Dim advection */
(PID.TID 0000.0001)                   T
(PID.TID 0000.0001)     ;
(PID.TID 0000.0001) PTRACERS_AdamsBashGtr = /* apply AB on tracer tendency */
(PID.TID 0000.0001)                   F
(PID.TID 0000.0001)     ;
(PID.TID 0000.0001) PTRACERS_AdamsBash_Tr = /* apply AB on passive tracer */
(PID.TID 0000.0001)                   F
(PID.TID 0000.0001)     ;
(PID.TID 0000.0001) PTRACERS_diffKh = /* Laplacian Diffusivity */
(PID.TID 0000.0001)                 0.000000000000000E+00
(PID.TID 0000.0001)     ;
(PID.TID 0000.0001) PTRACERS_diffK4 = /* Biharmonic Diffusivity */
(PID.TID 0000.0001)                 0.000000000000000E+00
(PID.TID 0000.0001)     ;
(PID.TID 0000.0001) PTRACERS_diffKrNr = /* Vertical Diffusivity */
(PID.TID 0000.0001)    15 @  3.000000000000000E-05              /* K =  1: 15 */
(PID.TID 0000.0001)     ;
(PID.TID 0000.0001) PTRACERS_useGMRedi = /* apply GM-Redi */
(PID.TID 0000.0001)                   T
(PID.TID 0000.0001)     ;
(PID.TID 0000.0001) PTRACERS_useDWNSLP = /* apply DOWN-SLOPE Flow */
(PID.TID 0000.0001)                   F
(PID.TID 0000.0001)     ;
(PID.TID 0000.0001) PTRACERS_useKPP = /* apply KPP scheme */
(PID.TID 0000.0001)                   F
(PID.TID 0000.0001)     ;
(PID.TID 0000.0001) PTRACERS_ref = /* Reference vertical profile */
(PID.TID 0000.0001)                 2.308600000000000E+00,      /* K =  1 */
(PID.TID 0000.0001)                 2.314900000000000E+00,      /* K =  2 */
(PID.TID 0000.0001)                 2.316400000000000E+00,      /* K =  3 */
(PID.TID 0000.0001)                 2.311200000000000E+00,      /* K =  4 */
(PID.TID 0000.0001)                 2.309800000000000E+00,      /* K =  5 */
(PID.TID 0000.0001)                 2.316000000000000E+00,      /* K =  6 */
(PID.TID 0000.0001)                 2.331300000000000E+00,      /* K =  7 */
(PID.TID 0000.0001)                 2.351700000000000E+00,      /* K =  8 */
(PID.TID 0000.0001)                 2.366700000000000E+00,      /* K =  9 */
(PID.TID 0000.0001)                 2.376100000000000E+00,      /* K = 10 */
(PID.TID 0000.0001)                 2.383200000000000E+00,      /* K = 11 */
(PID.TID 0000.0001)                 2.386200000000000E+00,      /* K = 12 */
(PID.TID 0000.0001)                 2.388100000000000E+00,      /* K = 13 */
(PID.TID 0000.0001)                 2.386300000000000E+00,      /* K = 14 */
(PID.TID 0000.0001)                 2.386700000000000E+00       /* K = 15 */
(PID.TID 0000.0001)     ;
(PID.TID 0000.0001) PTRACERS_EvPrRn =/* tracer conc. in Evap. & Rain */
(PID.TID 0000.0001)                 0.000000000000000E+00
(PID.TID 0000.0001)     ;
(PID.TID 0000.0001)  -----------------------------------
(PID.TID 0000.0001)  tracer number :    3
(PID.TID 0000.0001) PTRACERS_names = /* Tracer short name */
(PID.TID 0000.0001)               'PO4'
(PID.TID 0000.0001)     ;
(PID.TID 0000.0001) PTRACERS_long_names = /* Tracer long name */
(PID.TID 0000.0001)               'Phosphate (PO4) [mol P/m^3]'
(PID.TID 0000.0001)     ;
(PID.TID 0000.0001) PTRACERS_ioLabel = /* tracer IO Label */
(PID.TID 0000.0001)               '03'
(PID.TID 0000.0001)     ;
(PID.TID 0000.0001) PTRACERS_advScheme = /* Advection Scheme */
(PID.TID 0000.0001)                      77
(PID.TID 0000.0001)     ;
(PID.TID 0000.0001) PTRACERS_SOM_Advection = /* tracer uses SOM advection scheme */
(PID.TID 0000.0001)                   F
(PID.TID 0000.0001)     ;
(PID.TID 0000.0001) PTRACERS_ImplVertAdv = /* implicit vert. advection flag */
(PID.TID 0000.0001)                   F
(PID.TID 0000.0001)     ;
(PID.TID 0000.0001) PTRACERS_MultiDimAdv = /* tracer uses Multi-Dim advection */
(PID.TID 0000.0001)                   T
(PID.TID 0000.0001)     ;
(PID.TID 0000.0001) PTRACERS_AdamsBashGtr = /* apply AB on tracer tendency */
(PID.TID 0000.0001)                   F
(PID.TID 0000.0001)     ;
(PID.TID 0000.0001) PTRACERS_AdamsBash_Tr = /* apply AB on passive tracer */
(PID.TID 0000.0001)                   F
(PID.TID 0000.0001)     ;
(PID.TID 0000.0001) PTRACERS_diffKh = /* Laplacian Diffusivity */
(PID.TID 0000.0001)                 0.000000000000000E+00
(PID.TID 0000.0001)     ;
(PID.TID 0000.0001) PTRACERS_diffK4 = /* Biharmonic Diffusivity */
(PID.TID 0000.0001)                 0.000000000000000E+00
(PID.TID 0000.0001)     ;
(PID.TID 0000.0001) PTRACERS_diffKrNr = /* Vertical Diffusivity */
(PID.TID 0000.0001)    15 @  3.000000000000000E-05              /* K =  1: 15 */
(PID.TID 0000.0001)     ;
(PID.TID 0000.0001) PTRACERS_useGMRedi = /* apply GM-Redi */
(PID.TID 0000.0001)                   T
(PID.TID 0000.0001)     ;
(PID.TID 0000.0001) PTRACERS_useDWNSLP = /* apply DOWN-SLOPE Flow */
(PID.TID 0000.0001)                   F
(PID.TID 0000.0001)     ;
(PID.TID 0000.0001) PTRACERS_useKPP = /* apply KPP scheme */
(PID.TID 0000.0001)                   F
(PID.TID 0000.0001)     ;
(PID.TID 0000.0001) PTRACERS_ref = /* Reference vertical profile */
(PID.TID 0000.0001)                 5.438000000000000E-04,      /* K =  1 */
(PID.TID 0000.0001)                 7.821000000000000E-04,      /* K =  2 */
(PID.TID 0000.0001)                 1.133500000000000E-03,      /* K =  3 */
(PID.TID 0000.0001)                 1.491300000000000E-03,      /* K =  4 */
(PID.TID 0000.0001)                 1.860600000000000E-03,      /* K =  5 */
(PID.TID 0000.0001)                 2.198600000000000E-03,      /* K =  6 */
(PID.TID 0000.0001)                 2.396600000000000E-03,      /* K =  7 */
(PID.TID 0000.0001)                 2.418700000000000E-03,      /* K =  8 */
(PID.TID 0000.0001)                 2.404600000000000E-03,      /* K =  9 */
(PID.TID 0000.0001)                 2.329100000000000E-03,      /* K = 10 */
(PID.TID 0000.0001)                 2.292200000000000E-03,      /* K = 11 */
(PID.TID 0000.0001)                 2.288600000000000E-03,      /* K = 12 */
(PID.TID 0000.0001)                 2.260800000000000E-03,      /* K = 13 */
(PID.TID 0000.0001)                 2.235600000000000E-03,      /* K = 14 */
(PID.TID 0000.0001)                 2.229600000000000E-03       /* K = 15 */
(PID.TID 0000.0001)     ;
(PID.TID 0000.0001) PTRACERS_EvPrRn =/* tracer conc. in Evap. & Rain */
(PID.TID 0000.0001)                 1.234567000000000E+05
(PID.TID 0000.0001)     ;
(PID.TID 0000.0001)  -----------------------------------
(PID.TID 0000.0001)  tracer number :    4
(PID.TID 0000.0001) PTRACERS_names = /* Tracer short name */
(PID.TID 0000.0001)               'DOP'
(PID.TID 0000.0001)     ;
(PID.TID 0000.0001) PTRACERS_long_names = /* Tracer long name */
(PID.TID 0000.0001)               'Dissolved Organic Phosphorus (DOP) [mol P/m^3]'
(PID.TID 0000.0001)     ;
(PID.TID 0000.0001) PTRACERS_ioLabel = /* tracer IO Label */
(PID.TID 0000.0001)               '04'
(PID.TID 0000.0001)     ;
(PID.TID 0000.0001) PTRACERS_advScheme = /* Advection Scheme */
(PID.TID 0000.0001)                      77
(PID.TID 0000.0001)     ;
(PID.TID 0000.0001) PTRACERS_SOM_Advection = /* tracer uses SOM advection scheme */
(PID.TID 0000.0001)                   F
(PID.TID 0000.0001)     ;
(PID.TID 0000.0001) PTRACERS_ImplVertAdv = /* implicit vert. advection flag */
(PID.TID 0000.0001)                   F
(PID.TID 0000.0001)     ;
(PID.TID 0000.0001) PTRACERS_MultiDimAdv = /* tracer uses Multi-Dim advection */
(PID.TID 0000.0001)                   T
(PID.TID 0000.0001)     ;
(PID.TID 0000.0001) PTRACERS_AdamsBashGtr = /* apply AB on tracer tendency */
(PID.TID 0000.0001)                   F
(PID.TID 0000.0001)     ;
(PID.TID 0000.0001) PTRACERS_AdamsBash_Tr = /* apply AB on passive tracer */
(PID.TID 0000.0001)                   F
(PID.TID 0000.0001)     ;
(PID.TID 0000.0001) PTRACERS_diffKh = /* Laplacian Diffusivity */
(PID.TID 0000.0001)                 0.000000000000000E+00
(PID.TID 0000.0001)     ;
(PID.TID 0000.0001) PTRACERS_diffK4 = /* Biharmonic Diffusivity */
(PID.TID 0000.0001)                 0.000000000000000E+00
(PID.TID 0000.0001)     ;
(PID.TID 0000.0001) PTRACERS_diffKrNr = /* Vertical Diffusivity */
(PID.TID 0000.0001)    15 @  3.000000000000000E-05              /* K =  1: 15 */
(PID.TID 0000.0001)     ;
(PID.TID 0000.0001) PTRACERS_useGMRedi = /* apply GM-Redi */
(PID.TID 0000.0001)                   T
(PID.TID 0000.0001)     ;
(PID.TID 0000.0001) PTRACERS_useDWNSLP = /* apply DOWN-SLOPE Flow */
(PID.TID 0000.0001)                   F
(PID.TID 0000.0001)     ;
(PID.TID 0000.0001) PTRACERS_useKPP = /* apply KPP scheme */
(PID.TID 0000.0001)                   F
(PID.TID 0000.0001)     ;
(PID.TID 0000.0001) PTRACERS_ref = /* Reference vertical profile */
(PID.TID 0000.0001)    15 @  0.000000000000000E+00              /* K =  1: 15 */
(PID.TID 0000.0001)     ;
(PID.TID 0000.0001) PTRACERS_EvPrRn =/* tracer conc. in Evap. & Rain */
(PID.TID 0000.0001)                 1.234567000000000E+05
(PID.TID 0000.0001)     ;
(PID.TID 0000.0001)  -----------------------------------
(PID.TID 0000.0001)  tracer number :    5
(PID.TID 0000.0001) PTRACERS_names = /* Tracer short name */
(PID.TID 0000.0001)               'O2'
(PID.TID 0000.0001)     ;
(PID.TID 0000.0001) PTRACERS_long_names = /* Tracer long name */
(PID.TID 0000.0001)               'Dissolved Oxygen (O2) [mol O/m^3]'
(PID.TID 0000.0001)     ;
(PID.TID 0000.0001) PTRACERS_ioLabel = /* tracer IO Label */
(PID.TID 0000.0001)               '05'
(PID.TID 0000.0001)     ;
(PID.TID 0000.0001) PTRACERS_advScheme = /* Advection Scheme */
(PID.TID 0000.0001)                      77
(PID.TID 0000.0001)     ;
(PID.TID 0000.0001) PTRACERS_SOM_Advection = /* tracer uses SOM advection scheme */
(PID.TID 0000.0001)                   F
(PID.TID 0000.0001)     ;
(PID.TID 0000.0001) PTRACERS_ImplVertAdv = /* implicit vert. advection flag */
(PID.TID 0000.0001)                   F
(PID.TID 0000.0001)     ;
(PID.TID 0000.0001) PTRACERS_MultiDimAdv = /* tracer uses Multi-Dim advection */
(PID.TID 0000.0001)                   T
(PID.TID 0000.0001)     ;
(PID.TID 0000.0001) PTRACERS_AdamsBashGtr = /* apply AB on tracer tendency */
(PID.TID 0000.0001)                   F
(PID.TID 0000.0001)     ;
(PID.TID 0000.0001) PTRACERS_AdamsBash_Tr = /* apply AB on passive tracer */
(PID.TID 0000.0001)                   F
(PID.TID 0000.0001)     ;
(PID.TID 0000.0001) PTRACERS_diffKh = /* Laplacian Diffusivity */
(PID.TID 0000.0001)                 0.000000000000000E+00
(PID.TID 0000.0001)     ;
(PID.TID 0000.0001) PTRACERS_diffK4 = /* Biharmonic Diffusivity */
(PID.TID 0000.0001)                 0.000000000000000E+00
(PID.TID 0000.0001)     ;
(PID.TID 0000.0001) PTRACERS_diffKrNr = /* Vertical Diffusivity */
(PID.TID 0000.0001)    15 @  3.000000000000000E-05              /* K =  1: 15 */
(PID.TID 0000.0001)     ;
(PID.TID 0000.0001) PTRACERS_useGMRedi = /* apply GM-Redi */
(PID.TID 0000.0001)                   T
(PID.TID 0000.0001)     ;
(PID.TID 0000.0001) PTRACERS_useDWNSLP = /* apply DOWN-SLOPE Flow */
(PID.TID 0000.0001)                   F
(PID.TID 0000.0001)     ;
(PID.TID 0000.0001) PTRACERS_useKPP = /* apply KPP scheme */
(PID.TID 0000.0001)                   F
(PID.TID 0000.0001)     ;
(PID.TID 0000.0001) PTRACERS_ref = /* Reference vertical profile */
(PID.TID 0000.0001)                 2.457000000000000E-01,      /* K =  1 */
(PID.TID 0000.0001)                 2.336000000000000E-01,      /* K =  2 */
(PID.TID 0000.0001)                 1.975000000000000E-01,      /* K =  3 */
(PID.TID 0000.0001)                 1.729000000000000E-01,      /* K =  4 */
(PID.TID 0000.0001)                 1.591000000000000E-01,      /* K =  5 */
(PID.TID 0000.0001)                 1.503000000000000E-01,      /* K =  6 */
(PID.TID 0000.0001)                 1.424000000000000E-01,      /* K =  7 */
(PID.TID 0000.0001)                 1.445000000000000E-01,      /* K =  8 */
(PID.TID 0000.0001)                 1.549000000000000E-01,      /* K =  9 */
(PID.TID 0000.0001)                 1.661000000000000E-01,      /* K = 10 */
(PID.TID 0000.0001)                 1.774000000000000E-01,      /* K = 11 */
(PID.TID 0000.0001)                 1.863000000000000E-01,      /* K = 12 */
(PID.TID 0000.0001)                 1.925000000000000E-01,      /* K = 13 */
(PID.TID 0000.0001)                 2.021000000000000E-01,      /* K = 14 */
(PID.TID 0000.0001)                 2.051000000000000E-01       /* K = 15 */
(PID.TID 0000.0001)     ;
(PID.TID 0000.0001) PTRACERS_EvPrRn =/* tracer conc. in Evap. & Rain */
(PID.TID 0000.0001)                 1.234567000000000E+05
(PID.TID 0000.0001)     ;
(PID.TID 0000.0001)  -----------------------------------
(PID.TID 0000.0001) GCHEM_CHECK: #define ALLOW_GCHEM
(PID.TID 0000.0001) GAD_CHECK: #define ALLOW_GENERIC_ADVDIFF
(PID.TID 0000.0001) // =======================================================
(PID.TID 0000.0001) // Check Model config. (CONFIG_CHECK):
(PID.TID 0000.0001) // CONFIG_CHECK : Normal End
(PID.TID 0000.0001) // =======================================================
(PID.TID 0000.0001) 
(PID.TID 0000.0001)  MDS_READ_FIELD: opening global file: U_ini.bin
(PID.TID 0000.0001)  MDS_READ_FIELD: opening global file: V_ini.bin
(PID.TID 0000.0001)  MDS_READ_FIELD: opening global file: T_ini.bin
(PID.TID 0000.0001)  MDS_READ_FIELD: opening global file: S_ini.bin
(PID.TID 0000.0001)  MDS_READ_FIELD: opening global file: Eta_ini.bin
(PID.TID 0000.0001) Start initial hydrostatic pressure computation
(PID.TID 0000.0001) Pressure is predetermined for buoyancyRelation OCEANIC
(PID.TID 0000.0001) 
(PID.TID 0000.0001)  MDS_READ_FIELD: opening global file: tren_taux_box.bin
(PID.TID 0000.0001)  MDS_READ_FIELD: opening global file: tren_tauy_box.bin
(PID.TID 0000.0001)  MDS_READ_FIELD: opening global file: shi_qnet_box.bin
(PID.TID 0000.0001)  MDS_READ_FIELD: opening global file: shi_empmr_year_box.bin
(PID.TID 0000.0001)  MDS_READ_FIELD: opening global file: lev_monthly_temp_box.bin
(PID.TID 0000.0001)  MDS_READ_FIELD: opening global file: lev_monthly_salt_box.bin
(PID.TID 0000.0001)  write diagnostics summary to file ioUnit:      6
Iter.Nb:         0 ; Time(s):  0.0000000000000E+00
------------------------------------------------------------------------
2D/3D diagnostics: Number of lists:     2
------------------------------------------------------------------------
listId=    1 ; file name: surfDiag
 nFlds, nActive,       freq     &     phase        , nLev               
   10  |   10  |   2592000.000000         0.000000 |   1
 levels:   1
 diag# | name   |   ipt  |  iMate | kLev|   count |   mate.C|           
    23 |ETAN    |      1 |      0 |   1 |       0 |
    24 |ETANSQ  |      2 |      0 |   1 |       0 |
    25 |DETADT2 |      3 |      0 |   1 |       0 |
    73 |PHIBOT  |      4 |      0 |   1 |       0 |
    74 |PHIBOTSQ|      5 |      0 |   1 |       0 |
   277 |DICTFLX |      6 |      0 |   1 |       0 |
   278 |DICOFLX |      7 |      0 |   1 |       0 |
   279 |DICCFLX |      8 |      0 |   1 |       0 |
   280 |DICPCO2 |      9 |      0 |   1 |       0 |
   281 |DICPHAV |     10 |      0 |   1 |       0 |
------------------------------------------------------------------------
listId=    2 ; file name: dynDiag
 nFlds, nActive,       freq     &     phase        , nLev               
   12  |   12  |   2592000.000000         0.000000 |  15
 levels:   1   2   3   4   5   6   7   8   9  10  11  12  13  14  15
 diag# | name   |   ipt  |  iMate | kLev|   count |   mate.C|           
    46 |VVELMASS|     11 |     26 |  15 |       0 |       0 |
    45 |UVELMASS|     26 |     11 |  15 |       0 |       0 |
    26 |THETA   |     41 |      0 |  15 |       0 |
    27 |SALT    |     56 |      0 |  15 |       0 |
   209 |TRAC01  |     71 |      0 |  15 |       0 |
   222 |TRAC02  |     86 |      0 |  15 |       0 |
   235 |TRAC03  |    101 |      0 |  15 |       0 |
   248 |TRAC04  |    116 |      0 |  15 |       0 |
   261 |TRAC05  |    131 |      0 |  15 |       0 |
   200 |GM_PsiX |    146 |    161 |  15 |       0 |       0 |
   201 |GM_PsiY |    161 |    146 |  15 |       0 |       0 |
    77 |CONVADJ |    176 |      0 |  15 |       0 |
------------------------------------------------------------------------
Global & Regional Statistics diagnostics: Number of lists:     1
------------------------------------------------------------------------
listId=   1 ; file name: dynStDiag
 nFlds, nActive,       freq     &     phase        |                    
   15  |   15  |    432000.000000         0.000000 |
 Regions:   0
 diag# | name   |   ipt  |  iMate |    Volume   |   mate-Vol. |         
    23 |ETAN    |      1 |      0 | 0.00000E+00 |
    25 |DETADT2 |      2 |      0 | 0.00000E+00 |
    26 |THETA   |      3 |      0 | 0.00000E+00 |
    27 |SALT    |     18 |      0 | 0.00000E+00 |
    77 |CONVADJ |     33 |      0 | 0.00000E+00 |
    30 |UVEL    |     48 |      0 | 0.00000E+00 |
    31 |VVEL    |     63 |      0 | 0.00000E+00 |
    32 |WVEL    |     78 |      0 | 0.00000E+00 |
   200 |GM_PsiX |     93 |      0 | 0.00000E+00 |
   201 |GM_PsiY |    108 |      0 | 0.00000E+00 |
   209 |TRAC01  |    123 |      0 | 0.00000E+00 |
   222 |TRAC02  |    138 |      0 | 0.00000E+00 |
   235 |TRAC03  |    153 |      0 | 0.00000E+00 |
   248 |TRAC04  |    168 |      0 | 0.00000E+00 |
   261 |TRAC05  |    183 |      0 | 0.00000E+00 |
------------------------------------------------------------------------
(PID.TID 0000.0001)  MDS_READ_FIELD: opening global file: Trac01_ini.bin
(PID.TID 0000.0001)  MDS_READ_FIELD: opening global file: Trac02_ini.bin
(PID.TID 0000.0001)  MDS_READ_FIELD: opening global file: Trac03_ini.bin
(PID.TID 0000.0001)  MDS_READ_FIELD: opening global file: Trac04_ini.bin
(PID.TID 0000.0001)  MDS_READ_FIELD: opening global file: Trac05_ini.bin
 DIC_SURFFORCING_INIT, it=         0 : Reading new data, i0,i1=   12    1
(PID.TID 0000.0001)  MDS_READ_FIELD: opening global file: sillev1_box.bin
(PID.TID 0000.0001)  MDS_READ_FIELD: opening global file: sillev1_box.bin
 QQ: pCO2 approximation method
 QQ first guess pH   8.1637133788875307        7.1431403160095215        34.126777648925781        2.0606358051300049       9.85530205070972443E-004  4.03098273091018200E-003   2.2758305072784424     
 QQ: pCO2 approximation method
 QQ first guess pH   8.1546759036690801        3.4060642719268799        34.014770507812500        2.1126744747161865       1.39696174301207066E-003  1.10853351652622223E-002   2.2971801757812500     
 QQ: pCO2 approximation method
 QQ first guess pH   8.1582613570988922       0.99534881114959717        33.835666656494141        2.1458561420440674       1.57552247401326895E-003  4.38664574176073074E-002   2.3155810832977295     
 QQ: pCO2 approximation method
 QQ first guess pH   8.1244484992974151        20.386993408203125        35.004978179931641        1.9606319665908813       1.24419326311908662E-004  2.27088015526533127E-003   2.2702202796936035     
 QQ: pCO2 approximation method
 QQ first guess pH   8.1677309914425074        23.352397918701172        36.335987091064453        2.0139851570129395       1.06049788882955909E-004  2.86025227978825569E-003   2.4057466983795166     
 QQ: pCO2 approximation method
 QQ first guess pH   8.1339770997970255        21.511417388916016        36.076831817626953        2.0278112888336182       2.15065476368181407E-004  1.35848834179341793E-003   2.3724699020385742     
 OBCS_FIELDS_LOAD,         0 : iP,iLd,i0,i1=   12    0   12    1 ; Wght=  0.5000000000  0.5000000000
 OBCS_FIELDS_LOAD, it=         0 : Reading new data, i0,i1=   12    1 (prev=   12    0 )
(PID.TID 0000.0001)  MDS_READ_SEC_YZ: opening global file: U_obE.bin
(PID.TID 0000.0001)  MDS_READ_SEC_YZ: opening global file: U_obE.bin
(PID.TID 0000.0001)  MDS_READ_SEC_YZ: opening global file: V_obE.bin
(PID.TID 0000.0001)  MDS_READ_SEC_YZ: opening global file: V_obE.bin
(PID.TID 0000.0001)  MDS_READ_SEC_YZ: opening global file: T_obE.bin
(PID.TID 0000.0001)  MDS_READ_SEC_YZ: opening global file: T_obE.bin
(PID.TID 0000.0001)  MDS_READ_SEC_YZ: opening global file: S_obE.bin
(PID.TID 0000.0001)  MDS_READ_SEC_YZ: opening global file: S_obE.bin
(PID.TID 0000.0001)  MDS_READ_SEC_YZ: opening global file: U_obW.bin
(PID.TID 0000.0001)  MDS_READ_SEC_YZ: opening global file: U_obW.bin
(PID.TID 0000.0001)  MDS_READ_SEC_YZ: opening global file: V_obW.bin
(PID.TID 0000.0001)  MDS_READ_SEC_YZ: opening global file: V_obW.bin
(PID.TID 0000.0001)  MDS_READ_SEC_YZ: opening global file: T_obW.bin
(PID.TID 0000.0001)  MDS_READ_SEC_YZ: opening global file: T_obW.bin
(PID.TID 0000.0001)  MDS_READ_SEC_YZ: opening global file: S_obW.bin
(PID.TID 0000.0001)  MDS_READ_SEC_YZ: opening global file: S_obW.bin
(PID.TID 0000.0001)  MDS_READ_SEC_XZ: opening global file: U_obN.bin
(PID.TID 0000.0001)  MDS_READ_SEC_XZ: opening global file: U_obN.bin
(PID.TID 0000.0001)  MDS_READ_SEC_XZ: opening global file: V_obN.bin
(PID.TID 0000.0001)  MDS_READ_SEC_XZ: opening global file: V_obN.bin
(PID.TID 0000.0001)  MDS_READ_SEC_XZ: opening global file: T_obN.bin
(PID.TID 0000.0001)  MDS_READ_SEC_XZ: opening global file: T_obN.bin
(PID.TID 0000.0001)  MDS_READ_SEC_XZ: opening global file: S_obN.bin
(PID.TID 0000.0001)  MDS_READ_SEC_XZ: opening global file: S_obN.bin
(PID.TID 0000.0001)  MDS_READ_SEC_YZ: opening global file: Trac01_obE.bin
(PID.TID 0000.0001)  MDS_READ_SEC_YZ: opening global file: Trac01_obE.bin
(PID.TID 0000.0001)  MDS_READ_SEC_YZ: opening global file: Trac01_obW.bin
(PID.TID 0000.0001)  MDS_READ_SEC_YZ: opening global file: Trac01_obW.bin
(PID.TID 0000.0001)  MDS_READ_SEC_XZ: opening global file: Trac01_obN.bin
(PID.TID 0000.0001)  MDS_READ_SEC_XZ: opening global file: Trac01_obN.bin
(PID.TID 0000.0001)  MDS_READ_SEC_YZ: opening global file: Trac02_obE.bin
(PID.TID 0000.0001)  MDS_READ_SEC_YZ: opening global file: Trac02_obE.bin
(PID.TID 0000.0001)  MDS_READ_SEC_YZ: opening global file: Trac02_obW.bin
(PID.TID 0000.0001)  MDS_READ_SEC_YZ: opening global file: Trac02_obW.bin
(PID.TID 0000.0001)  MDS_READ_SEC_XZ: opening global file: Trac02_obN.bin
(PID.TID 0000.0001)  MDS_READ_SEC_XZ: opening global file: Trac02_obN.bin
(PID.TID 0000.0001)  MDS_READ_SEC_YZ: opening global file: Trac03_obE.bin
(PID.TID 0000.0001)  MDS_READ_SEC_YZ: opening global file: Trac03_obE.bin
(PID.TID 0000.0001)  MDS_READ_SEC_YZ: opening global file: Trac03_obW.bin
(PID.TID 0000.0001)  MDS_READ_SEC_YZ: opening global file: Trac03_obW.bin
(PID.TID 0000.0001)  MDS_READ_SEC_XZ: opening global file: Trac03_obN.bin
(PID.TID 0000.0001)  MDS_READ_SEC_XZ: opening global file: Trac03_obN.bin
(PID.TID 0000.0001)  MDS_READ_SEC_YZ: opening global file: Trac04_obE.bin
(PID.TID 0000.0001)  MDS_READ_SEC_YZ: opening global file: Trac04_obE.bin
(PID.TID 0000.0001)  MDS_READ_SEC_YZ: opening global file: Trac04_obW.bin
(PID.TID 0000.0001)  MDS_READ_SEC_YZ: opening global file: Trac04_obW.bin
(PID.TID 0000.0001)  MDS_READ_SEC_XZ: opening global file: Trac04_obN.bin
(PID.TID 0000.0001)  MDS_READ_SEC_XZ: opening global file: Trac04_obN.bin
(PID.TID 0000.0001)  MDS_READ_SEC_YZ: opening global file: Trac05_obE.bin
(PID.TID 0000.0001)  MDS_READ_SEC_YZ: opening global file: Trac05_obE.bin
(PID.TID 0000.0001)  MDS_READ_SEC_YZ: opening global file: Trac05_obW.bin
(PID.TID 0000.0001)  MDS_READ_SEC_YZ: opening global file: Trac05_obW.bin
(PID.TID 0000.0001)  MDS_READ_SEC_XZ: opening global file: Trac05_obN.bin
(PID.TID 0000.0001)  MDS_READ_SEC_XZ: opening global file: Trac05_obN.bin
(PID.TID 0000.0001) // =======================================================
(PID.TID 0000.0001) // Model current state
(PID.TID 0000.0001) // =======================================================
(PID.TID 0000.0001) 
(PID.TID 0000.0001) // =======================================================
(PID.TID 0000.0001) // Begin MONITOR dynamic field statistics
(PID.TID 0000.0001) // =======================================================
(PID.TID 0000.0001) %MON time_tsnumber                =                     0
(PID.TID 0000.0001) %MON time_secondsf                =   0.0000000000000E+00
(PID.TID 0000.0001) %MON dynstat_eta_max              =   4.2498448491096E-01
(PID.TID 0000.0001) %MON dynstat_eta_min              =  -1.4817472696304E+00
(PID.TID 0000.0001) %MON dynstat_eta_mean             =  -5.1768973270635E-01
(PID.TID 0000.0001) %MON dynstat_eta_sd               =   5.9968952443660E-01
(PID.TID 0000.0001) %MON dynstat_eta_del2             =   2.3532016988898E-03
(PID.TID 0000.0001) %MON dynstat_uvel_max             =   1.3023830950260E-01
(PID.TID 0000.0001) %MON dynstat_uvel_min             =  -6.0768067836761E-02
(PID.TID 0000.0001) %MON dynstat_uvel_mean            =   7.3493858379116E-03
(PID.TID 0000.0001) %MON dynstat_uvel_sd              =   1.4643824433314E-02
(PID.TID 0000.0001) %MON dynstat_uvel_del2            =   1.6249141681668E-04
(PID.TID 0000.0001) %MON dynstat_vvel_max             =   1.2960743904114E-01
(PID.TID 0000.0001) %MON dynstat_vvel_min             =  -8.8518343865871E-02
(PID.TID 0000.0001) %MON dynstat_vvel_mean            =   8.9127213327288E-04
(PID.TID 0000.0001) %MON dynstat_vvel_sd              =   8.4376087770051E-03
(PID.TID 0000.0001) %MON dynstat_vvel_del2            =   1.0650506343562E-04
(PID.TID 0000.0001) %MON dynstat_wvel_max             =   5.5220275294497E-05
(PID.TID 0000.0001) %MON dynstat_wvel_min             =  -1.4137995947489E-04
(PID.TID 0000.0001) %MON dynstat_wvel_mean            =  -2.4324096431404E-07
(PID.TID 0000.0001) %MON dynstat_wvel_sd              =   5.5064315434168E-06
(PID.TID 0000.0001) %MON dynstat_wvel_del2            =   1.4504545477429E-07
(PID.TID 0000.0001) %MON dynstat_theta_max            =   2.4157361984253E+01
(PID.TID 0000.0001) %MON dynstat_theta_min            =  -2.8958356380463E+00
(PID.TID 0000.0001) %MON dynstat_theta_mean           =   2.3216137302711E+00
(PID.TID 0000.0001) %MON dynstat_theta_sd             =   3.2103641662143E+00
(PID.TID 0000.0001) %MON dynstat_theta_del2           =   6.6465388359911E-03
(PID.TID 0000.0001) %MON dynstat_salt_max             =   3.6600784301758E+01
(PID.TID 0000.0001) %MON dynstat_salt_min             =   3.3084754943848E+01
(PID.TID 0000.0001) %MON dynstat_salt_mean            =   3.4483933613549E+01
(PID.TID 0000.0001) %MON dynstat_salt_sd              =   1.9644712446743E-01
(PID.TID 0000.0001) %MON dynstat_salt_del2            =   1.1588922083609E-03
(PID.TID 0000.0001) %MON forcing_qnet_max             =   6.9361846923828E+01
(PID.TID 0000.0001) %MON forcing_qnet_min             =  -2.0417861938477E+02
(PID.TID 0000.0001) %MON forcing_qnet_mean            =  -1.1295642419045E+02
(PID.TID 0000.0001) %MON forcing_qnet_sd              =   4.1815497434578E+01
(PID.TID 0000.0001) %MON forcing_qnet_del2            =   8.8869422460177E-01
(PID.TID 0000.0001) %MON forcing_qsw_max              =   0.0000000000000E+00
(PID.TID 0000.0001) %MON forcing_qsw_min              =   0.0000000000000E+00
(PID.TID 0000.0001) %MON forcing_qsw_mean             =   0.0000000000000E+00
(PID.TID 0000.0001) %MON forcing_qsw_sd               =   0.0000000000000E+00
(PID.TID 0000.0001) %MON forcing_qsw_del2             =   0.0000000000000E+00
(PID.TID 0000.0001) %MON forcing_empmr_max            =   2.5141471127199E-05
(PID.TID 0000.0001) %MON forcing_empmr_min            =  -3.9761445691511E-05
(PID.TID 0000.0001) %MON forcing_empmr_mean           =  -9.3236499820974E-06
(PID.TID 0000.0001) %MON forcing_empmr_sd             =   1.0249687273683E-05
(PID.TID 0000.0001) %MON forcing_empmr_del2           =   9.8755541425843E-08
(PID.TID 0000.0001) %MON forcing_fu_max               =   2.1824374794960E-01
(PID.TID 0000.0001) %MON forcing_fu_min               =  -1.0302186757326E-01
(PID.TID 0000.0001) %MON forcing_fu_mean              =   7.3083621898039E-02
(PID.TID 0000.0001) %MON forcing_fu_sd                =   7.2594531176829E-02
(PID.TID 0000.0001) %MON forcing_fu_del2              =   5.9615425353979E-04
(PID.TID 0000.0001) %MON forcing_fv_max               =   1.4191913604736E-01
(PID.TID 0000.0001) %MON forcing_fv_min               =  -7.7472656965256E-02
(PID.TID 0000.0001) %MON forcing_fv_mean              =  -1.7821404000724E-02
(PID.TID 0000.0001) %MON forcing_fv_sd                =   3.3449841576786E-02
(PID.TID 0000.0001) %MON forcing_fv_del2              =   3.7447536985508E-04
(PID.TID 0000.0001) %MON advcfl_uvel_max              =   3.3632667693019E-02
(PID.TID 0000.0001) %MON advcfl_vvel_max              =   1.7906237690509E-02
(PID.TID 0000.0001) %MON advcfl_wvel_max              =   3.3657438911329E-02
(PID.TID 0000.0001) %MON advcfl_W_hf_max              =   1.7963571321516E-02
(PID.TID 0000.0001) %MON pe_b_mean                    =   8.4564277375069E-04
(PID.TID 0000.0001) %MON ke_max                       =   9.2757393409125E-03
(PID.TID 0000.0001) %MON ke_mean                      =   1.6130429888475E-04
(PID.TID 0000.0001) %MON ke_vol                       =   1.2769337095763E+17
(PID.TID 0000.0001) %MON vort_r_min                   =  -4.7830461303030E-07
(PID.TID 0000.0001) %MON vort_r_max                   =   7.0582698239818E-07
(PID.TID 0000.0001) %MON vort_a_mean                  =  -1.0457492699542E-04
(PID.TID 0000.0001) %MON vort_a_sd                    =   2.1292568575566E-05
(PID.TID 0000.0001) %MON vort_p_mean                  =  -1.2574624497018E-04
(PID.TID 0000.0001) %MON vort_p_sd                    =   1.1183795518383E-04
(PID.TID 0000.0001) %MON surfExpan_theta_mean         =  -1.4505528465063E-07
(PID.TID 0000.0001) %MON surfExpan_salt_mean          =   7.1872208131480E-08
(PID.TID 0000.0001) // =======================================================
(PID.TID 0000.0001) // End MONITOR dynamic field statistics
(PID.TID 0000.0001) // =======================================================
(PID.TID 0000.0001) // =======================================================
(PID.TID 0000.0001) // Begin OBCS MONITOR field statistics
(PID.TID 0000.0001) // =======================================================
(PID.TID 0000.0001) %MON obc_E_uVel_max               =   8.4231816232204E-02
(PID.TID 0000.0001) %MON obc_E_uVel_min               =  -6.0768067836761E-02
(PID.TID 0000.0001) %MON obc_E_uVel_mean              =   7.3664911249156E-03
(PID.TID 0000.0001) %MON obc_E_uVel_sd                =   1.4300273749965E-02
(PID.TID 0000.0001) %MON obc_E_uVel_Int               =   1.2629560767914E+08
(PID.TID 0000.0001) %MON obc_W_uVel_max               =   5.9702914208174E-02
(PID.TID 0000.0001) %MON obc_W_uVel_min               =  -2.5726319290698E-02
(PID.TID 0000.0001) %MON obc_W_uVel_mean              =   7.0236617289703E-03
(PID.TID 0000.0001) %MON obc_W_uVel_sd                =   1.1103839461495E-02
(PID.TID 0000.0001) %MON obc_W_uVel_Int               =   1.3126718559515E+08
(PID.TID 0000.0001) %MON obc_N_vVel_max               =   4.7468712553382E-02
(PID.TID 0000.0001) %MON obc_N_vVel_min               =  -7.0454828441143E-02
(PID.TID 0000.0001) %MON obc_N_vVel_mean              =   1.6522467327141E-04
(PID.TID 0000.0001) %MON obc_N_vVel_sd                =   6.4416742406190E-03
(PID.TID 0000.0001) %MON obc_N_vVel_Int               =   4.8301529307681E+06
(PID.TID 0000.0001) %MON obc_E_theta_max              =   1.9184095382690E+01
(PID.TID 0000.0001) %MON obc_E_theta_min              =  -1.6429638266563E+00
(PID.TID 0000.0001) %MON obc_E_theta_mean             =   1.9094777718074E+00
(PID.TID 0000.0001) %MON obc_E_theta_sd               =   2.9652256041640E+00
(PID.TID 0000.0001) %MON obc_W_theta_max              =   2.1404630661011E+01
(PID.TID 0000.0001) %MON obc_W_theta_min              =  -1.4417628645897E+00
(PID.TID 0000.0001) %MON obc_W_theta_mean             =   2.4654016052560E+00
(PID.TID 0000.0001) %MON obc_W_theta_sd               =   2.9592378831378E+00
(PID.TID 0000.0001) %MON obc_N_theta_max              =   2.3972635269165E+01
(PID.TID 0000.0001) %MON obc_N_theta_min              =  -6.3042351603508E-01
(PID.TID 0000.0001) %MON obc_N_theta_mean             =   4.8710207613799E+00
(PID.TID 0000.0001) %MON obc_N_theta_sd               =   4.7009472474846E+00
(PID.TID 0000.0001) // =======================================================
(PID.TID 0000.0001) // End OBCS MONITOR field statistics
(PID.TID 0000.0001) // =======================================================
(PID.TID 0000.0001) // =======================================================
(PID.TID 0000.0001) // Begin MONITOR ptracer field statistics
(PID.TID 0000.0001) // =======================================================
(PID.TID 0000.0001) %MON trcstat_ptracer01_max        =   2.3591387271881E+00
(PID.TID 0000.0001) %MON trcstat_ptracer01_min        =   1.9367703199387E+00
(PID.TID 0000.0001) %MON trcstat_ptracer01_mean       =   2.2425301046135E+00
(PID.TID 0000.0001) %MON trcstat_ptracer01_sd         =   7.5981612504913E-02
(PID.TID 0000.0001) %MON trcstat_ptracer01_del2       =   1.0693771728119E-04
(PID.TID 0000.0001) %MON trcstat_ptracer02_max        =   2.4116826057434E+00
(PID.TID 0000.0001) %MON trcstat_ptracer02_min        =   2.1899123191833E+00
(PID.TID 0000.0001) %MON trcstat_ptracer02_mean       =   2.3520448323130E+00
(PID.TID 0000.0001) %MON trcstat_ptracer02_sd         =   3.5091243992577E-02
(PID.TID 0000.0001) %MON trcstat_ptracer02_del2       =   8.0636971566538E-05
(PID.TID 0000.0001) %MON trcstat_ptracer03_max        =   2.7654629666358E-03
(PID.TID 0000.0001) %MON trcstat_ptracer03_min        =   4.7440538764931E-05
(PID.TID 0000.0001) %MON trcstat_ptracer03_mean       =   2.0556800669777E-03
(PID.TID 0000.0001) %MON trcstat_ptracer03_sd         =   5.0322634216633E-04
(PID.TID 0000.0001) %MON trcstat_ptracer03_del2       =   6.7075508236597E-07
(PID.TID 0000.0001) %MON trcstat_ptracer04_max        =   2.5665847351775E-04
(PID.TID 0000.0001) %MON trcstat_ptracer04_min        =  -7.4560205121088E-07
(PID.TID 0000.0001) %MON trcstat_ptracer04_mean       =   6.2001614686786E-06
(PID.TID 0000.0001) %MON trcstat_ptracer04_sd         =   2.6096018939081E-05
(PID.TID 0000.0001) %MON trcstat_ptracer04_del2       =   1.3468378546213E-07
(PID.TID 0000.0001) %MON trcstat_ptracer05_max        =   3.8357657194138E-01
(PID.TID 0000.0001) %MON trcstat_ptracer05_min        =   8.2342259585857E-02
(PID.TID 0000.0001) %MON trcstat_ptracer05_mean       =   2.1413280166756E-01
(PID.TID 0000.0001) %MON trcstat_ptracer05_sd         =   4.3053560479973E-02
(PID.TID 0000.0001) %MON trcstat_ptracer05_del2       =   1.1918591217244E-04
(PID.TID 0000.0001) // =======================================================
(PID.TID 0000.0001) // End MONITOR ptracers field statistics
(PID.TID 0000.0001) // =======================================================
 EXTERNAL_FIELDS_LOAD,         0 : iP,iLd,i0,i1=   12    0   12    1 ; Wght=  0.5000000000  0.5000000000
 EXTERNAL_FIELDS_LOAD, it=         0 : Reading new data, i0,i1=   12    1 (prev=   12    0 )
(PID.TID 0000.0001)  MDS_READ_FIELD: opening global file: tren_taux_box.bin
(PID.TID 0000.0001)  MDS_READ_FIELD: opening global file: tren_taux_box.bin
(PID.TID 0000.0001)  MDS_READ_FIELD: opening global file: tren_tauy_box.bin
(PID.TID 0000.0001)  MDS_READ_FIELD: opening global file: tren_tauy_box.bin
(PID.TID 0000.0001)  MDS_READ_FIELD: opening global file: shi_qnet_box.bin
(PID.TID 0000.0001)  MDS_READ_FIELD: opening global file: shi_qnet_box.bin
(PID.TID 0000.0001)  MDS_READ_FIELD: opening global file: shi_empmr_year_box.bin
(PID.TID 0000.0001)  MDS_READ_FIELD: opening global file: shi_empmr_year_box.bin
(PID.TID 0000.0001)  MDS_READ_FIELD: opening global file: lev_monthly_temp_box.bin
(PID.TID 0000.0001)  MDS_READ_FIELD: opening global file: lev_monthly_temp_box.bin
(PID.TID 0000.0001)  MDS_READ_FIELD: opening global file: lev_monthly_salt_box.bin
(PID.TID 0000.0001)  MDS_READ_FIELD: opening global file: lev_monthly_salt_box.bin
 DIC_FIELDS_LOAD,         0 : iP,iLd,i0,i1=   12    0   12    1 ; Wght=  0.5000000000  0.5000000000
 DIC_FIELDS_LOAD, it=         0 : Reading new data, i0,i1=   12    1 (prev=   12    0 )
(PID.TID 0000.0001)  MDS_READ_FIELD: opening global file: tren_speed_box.bin
(PID.TID 0000.0001)  MDS_READ_FIELD: opening global file: tren_speed_box.bin
(PID.TID 0000.0001)  MDS_READ_FIELD: opening global file: sillev1_box.bin
(PID.TID 0000.0001)  MDS_READ_FIELD: opening global file: sillev1_box.bin
(PID.TID 0000.0001)  MDS_READ_FIELD: opening global file: fice_box.bin
(PID.TID 0000.0001)  MDS_READ_FIELD: opening global file: fice_box.bin
 OBCS_FIELDS_LOAD,         1 : iP,iLd,i0,i1=   12    1   12    1 ; Wght=  0.4833333333  0.5166666667
(PID.TID 0000.0001) SOLVE_FOR_PRESSURE: putPmEinXvector =    F
 cg2d: Sum(rhs),rhsMax =   3.70300204682829E+01  9.88743731864319E-01
(PID.TID 0000.0001)      cg2d_init_res =   2.37603699273327E-01
(PID.TID 0000.0001)      cg2d_iters(min,last) =      -1      80
(PID.TID 0000.0001)      cg2d_last_res =   7.83460039210268E-14
(PID.TID 0000.0001) // =======================================================
(PID.TID 0000.0001) // Begin MONITOR dynamic field statistics
(PID.TID 0000.0001) // =======================================================
(PID.TID 0000.0001) %MON time_tsnumber                =                     1
(PID.TID 0000.0001) %MON time_secondsf                =   4.3200000000000E+04
(PID.TID 0000.0001) %MON dynstat_eta_max              =   4.5995434788303E-01
(PID.TID 0000.0001) %MON dynstat_eta_min              =  -1.4926906630212E+00
(PID.TID 0000.0001) %MON dynstat_eta_mean             =  -5.1751416804791E-01
(PID.TID 0000.0001) %MON dynstat_eta_sd               =   6.0178255889349E-01
(PID.TID 0000.0001) %MON dynstat_eta_del2             =   2.3589778971511E-03
(PID.TID 0000.0001) %MON dynstat_uvel_max             =   1.3027291294470E-01
(PID.TID 0000.0001) %MON dynstat_uvel_min             =  -6.0691849142313E-02
(PID.TID 0000.0001) %MON dynstat_uvel_mean            =   7.4175285308401E-03
(PID.TID 0000.0001) %MON dynstat_uvel_sd              =   1.4633337899631E-02
(PID.TID 0000.0001) %MON dynstat_uvel_del2            =   1.6238374490497E-04
(PID.TID 0000.0001) %MON dynstat_vvel_max             =   1.2954916558810E-01
(PID.TID 0000.0001) %MON dynstat_vvel_min             =  -8.8515782804455E-02
(PID.TID 0000.0001) %MON dynstat_vvel_mean            =   9.1326993179764E-04
(PID.TID 0000.0001) %MON dynstat_vvel_sd              =   8.4326980060472E-03
(PID.TID 0000.0001) %MON dynstat_vvel_del2            =   1.0638914247425E-04
(PID.TID 0000.0001) %MON dynstat_wvel_max             =   5.5009566978399E-05
(PID.TID 0000.0001) %MON dynstat_wvel_min             =  -1.4162700010206E-04
(PID.TID 0000.0001) %MON dynstat_wvel_mean            =  -2.4323740420733E-07
(PID.TID 0000.0001) %MON dynstat_wvel_sd              =   5.4535039627299E-06
(PID.TID 0000.0001) %MON dynstat_wvel_del2            =   1.4032734702382E-07
(PID.TID 0000.0001) %MON dynstat_theta_max            =   2.4176176055431E+01
(PID.TID 0000.0001) %MON dynstat_theta_min            =  -2.8959442458374E+00
(PID.TID 0000.0001) %MON dynstat_theta_mean           =   2.3219357947834E+00
(PID.TID 0000.0001) %MON dynstat_theta_sd             =   3.2112571801567E+00
(PID.TID 0000.0001) %MON dynstat_theta_del2           =   6.6436082635441E-03
(PID.TID 0000.0001) %MON dynstat_salt_max             =   3.6600983637883E+01
(PID.TID 0000.0001) %MON dynstat_salt_min             =   3.3083605831074E+01
(PID.TID 0000.0001) %MON dynstat_salt_mean            =   3.4483935079098E+01
(PID.TID 0000.0001) %MON dynstat_salt_sd              =   1.9645820244523E-01
(PID.TID 0000.0001) %MON dynstat_salt_del2            =   1.1582977948130E-03
(PID.TID 0000.0001) %MON forcing_qnet_max             =   6.8294754028320E+01
(PID.TID 0000.0001) %MON forcing_qnet_min             =  -2.1320401000977E+02
(PID.TID 0000.0001) %MON forcing_qnet_mean            =  -1.2120328054684E+02
(PID.TID 0000.0001) %MON forcing_qnet_sd              =   4.4775932709347E+01
(PID.TID 0000.0001) %MON forcing_qnet_del2            =   8.3492965265813E-01
(PID.TID 0000.0001) %MON forcing_qsw_max              =   0.0000000000000E+00
(PID.TID 0000.0001) %MON forcing_qsw_min              =   0.0000000000000E+00
(PID.TID 0000.0001) %MON forcing_qsw_mean             =   0.0000000000000E+00
(PID.TID 0000.0001) %MON forcing_qsw_sd               =   0.0000000000000E+00
(PID.TID 0000.0001) %MON forcing_qsw_del2             =   0.0000000000000E+00
(PID.TID 0000.0001) %MON forcing_empmr_max            =   2.5141471127199E-05
(PID.TID 0000.0001) %MON forcing_empmr_min            =  -3.9761445691511E-05
(PID.TID 0000.0001) %MON forcing_empmr_mean           =  -9.3236499820974E-06
(PID.TID 0000.0001) %MON forcing_empmr_sd             =   1.0249687273683E-05
(PID.TID 0000.0001) %MON forcing_empmr_del2           =   9.8755541425843E-08
(PID.TID 0000.0001) %MON forcing_fu_max               =   2.1189042925835E-01
(PID.TID 0000.0001) %MON forcing_fu_min               =  -9.0532809495926E-02
(PID.TID 0000.0001) %MON forcing_fu_mean              =   7.6106089453040E-02
(PID.TID 0000.0001) %MON forcing_fu_sd                =   7.1216399468495E-02
(PID.TID 0000.0001) %MON forcing_fu_del2              =   5.5128220616824E-04
(PID.TID 0000.0001) %MON forcing_fv_max               =   1.5118104964495E-01
(PID.TID 0000.0001) %MON forcing_fv_min               =  -7.6193943619728E-02
(PID.TID 0000.0001) %MON forcing_fv_mean              =  -1.9592570688621E-02
(PID.TID 0000.0001) %MON forcing_fv_sd                =   3.3563926402948E-02
(PID.TID 0000.0001) %MON forcing_fv_del2              =   3.7626012825569E-04
(PID.TID 0000.0001) %MON advcfl_uvel_max              =   3.3641603666416E-02
(PID.TID 0000.0001) %MON advcfl_vvel_max              =   1.7898186776852E-02
(PID.TID 0000.0001) %MON advcfl_wvel_max              =   1.6762428505230E-02
(PID.TID 0000.0001) %MON advcfl_W_hf_max              =   1.7994960012968E-02
(PID.TID 0000.0001) %MON pe_b_mean                    =   8.4878613014088E-04
(PID.TID 0000.0001) %MON ke_max                       =   9.2726630591449E-03
(PID.TID 0000.0001) %MON ke_mean                      =   1.6162367406714E-04
(PID.TID 0000.0001) %MON ke_vol                       =   1.2769337095763E+17
(PID.TID 0000.0001) %MON vort_r_min                   =  -4.7776380617399E-07
(PID.TID 0000.0001) %MON vort_r_max                   =   7.0533584638701E-07
(PID.TID 0000.0001) %MON vort_a_mean                  =  -1.0457492648028E-04
(PID.TID 0000.0001) %MON vort_a_sd                    =   2.1292605380161E-05
(PID.TID 0000.0001) %MON vort_p_mean                  =  -1.2574624435076E-04
(PID.TID 0000.0001) %MON vort_p_sd                    =   1.1183798042838E-04
(PID.TID 0000.0001) %MON surfExpan_theta_mean         =   2.2002699834481E-08
(PID.TID 0000.0001) %MON surfExpan_salt_mean          =   1.0362440405314E-07
(PID.TID 0000.0001) // =======================================================
(PID.TID 0000.0001) // End MONITOR dynamic field statistics
(PID.TID 0000.0001) // =======================================================
(PID.TID 0000.0001) // =======================================================
(PID.TID 0000.0001) // Begin OBCS MONITOR field statistics
(PID.TID 0000.0001) // =======================================================
(PID.TID 0000.0001) %MON obc_E_uVel_max               =   8.4097423652808E-02
(PID.TID 0000.0001) %MON obc_E_uVel_min               =  -6.0691849142313E-02
(PID.TID 0000.0001) %MON obc_E_uVel_mean              =   7.3646583987137E-03
(PID.TID 0000.0001) %MON obc_E_uVel_sd                =   1.4300890782899E-02
(PID.TID 0000.0001) %MON obc_E_uVel_Int               =   1.2626418630559E+08
(PID.TID 0000.0001) %MON obc_W_uVel_max               =   5.9750952695807E-02
(PID.TID 0000.0001) %MON obc_W_uVel_min               =  -2.5728699409713E-02
(PID.TID 0000.0001) %MON obc_W_uVel_mean              =   7.0192873374808E-03
(PID.TID 0000.0001) %MON obc_W_uVel_sd                =   1.1107779277586E-02
(PID.TID 0000.0001) %MON obc_W_uVel_Int               =   1.3118543136471E+08
(PID.TID 0000.0001) %MON obc_N_vVel_max               =   4.7415303376814E-02
(PID.TID 0000.0001) %MON obc_N_vVel_min               =  -7.0506425450246E-02
(PID.TID 0000.0001) %MON obc_N_vVel_mean              =   1.6346447363572E-04
(PID.TID 0000.0001) %MON obc_N_vVel_sd                =   6.4402877553886E-03
(PID.TID 0000.0001) %MON obc_N_vVel_Int               =   4.7786955227386E+06
(PID.TID 0000.0001) %MON obc_E_theta_max              =   1.9205570983887E+01
(PID.TID 0000.0001) %MON obc_E_theta_min              =  -1.6343102912108E+00
(PID.TID 0000.0001) %MON obc_E_theta_mean             =   1.9094666342927E+00
(PID.TID 0000.0001) %MON obc_E_theta_sd               =   2.9656966224417E+00
(PID.TID 0000.0001) %MON obc_W_theta_max              =   2.1424821790059E+01
(PID.TID 0000.0001) %MON obc_W_theta_min              =  -1.4418450812499E+00
(PID.TID 0000.0001) %MON obc_W_theta_mean             =   2.4656188431364E+00
(PID.TID 0000.0001) %MON obc_W_theta_sd               =   2.9597766264317E+00
(PID.TID 0000.0001) %MON obc_N_theta_max              =   2.3993523279826E+01
(PID.TID 0000.0001) %MON obc_N_theta_min              =  -6.3092609544595E-01
(PID.TID 0000.0001) %MON obc_N_theta_mean             =   4.8712326540729E+00
(PID.TID 0000.0001) %MON obc_N_theta_sd               =   4.7018270697657E+00
(PID.TID 0000.0001) // =======================================================
(PID.TID 0000.0001) // End OBCS MONITOR field statistics
(PID.TID 0000.0001) // =======================================================
(PID.TID 0000.0001) // =======================================================
(PID.TID 0000.0001) // Begin MONITOR ptracer field statistics
(PID.TID 0000.0001) // =======================================================
(PID.TID 0000.0001) %MON trcstat_ptracer01_max        =   2.3591394064902E+00
(PID.TID 0000.0001) %MON trcstat_ptracer01_min        =   1.9367506949063E+00
(PID.TID 0000.0001) %MON trcstat_ptracer01_mean       =   2.2425287455141E+00
(PID.TID 0000.0001) %MON trcstat_ptracer01_sd         =   7.5984851020942E-02
(PID.TID 0000.0001) %MON trcstat_ptracer01_del2       =   1.0685652490097E-04
(PID.TID 0000.0001) %MON trcstat_ptracer02_max        =   2.4116828127977E+00
(PID.TID 0000.0001) %MON trcstat_ptracer02_min        =   2.1899459792551E+00
(PID.TID 0000.0001) %MON trcstat_ptracer02_mean       =   2.3520451555304E+00
(PID.TID 0000.0001) %MON trcstat_ptracer02_sd         =   3.5091052371012E-02
(PID.TID 0000.0001) %MON trcstat_ptracer02_del2       =   8.0630463154061E-05
(PID.TID 0000.0001) %MON trcstat_ptracer03_max        =   2.7654670646739E-03
(PID.TID 0000.0001) %MON trcstat_ptracer03_min        =   4.7395120488442E-05
(PID.TID 0000.0001) %MON trcstat_ptracer03_mean       =   2.0556703611282E-03
(PID.TID 0000.0001) %MON trcstat_ptracer03_sd         =   5.0324323744256E-04
(PID.TID 0000.0001) %MON trcstat_ptracer03_del2       =   6.7043921286734E-07
(PID.TID 0000.0001) %MON trcstat_ptracer04_max        =   2.5699611737368E-04
(PID.TID 0000.0001) %MON trcstat_ptracer04_min        =  -7.4705281297197E-07
(PID.TID 0000.0001) %MON trcstat_ptracer04_mean       =   6.2084377839839E-06
(PID.TID 0000.0001) %MON trcstat_ptracer04_sd         =   2.6136202585173E-05
(PID.TID 0000.0001) %MON trcstat_ptracer04_del2       =   1.3456688750793E-07
(PID.TID 0000.0001) %MON trcstat_ptracer05_max        =   3.8361753713501E-01
(PID.TID 0000.0001) %MON trcstat_ptracer05_min        =   8.2383316333612E-02
(PID.TID 0000.0001) %MON trcstat_ptracer05_mean       =   2.1413099534089E-01
(PID.TID 0000.0001) %MON trcstat_ptracer05_sd         =   4.3050993456093E-02
(PID.TID 0000.0001) %MON trcstat_ptracer05_del2       =   1.1897755003580E-04
(PID.TID 0000.0001) // =======================================================
(PID.TID 0000.0001) // End MONITOR ptracers field statistics
(PID.TID 0000.0001) // =======================================================
 EXTERNAL_FIELDS_LOAD,         1 : iP,iLd,i0,i1=   12    1   12    1 ; Wght=  0.4833333333  0.5166666667
 DIC_FIELDS_LOAD,         1 : iP,iLd,i0,i1=   12    1   12    1 ; Wght=  0.4833333333  0.5166666667
 OBCS_FIELDS_LOAD,         2 : iP,iLd,i0,i1=   12    1   12    1 ; Wght=  0.4666666667  0.5333333333
 cg2d: Sum(rhs),rhsMax =   3.70217753957412E+01  9.88625784851344E-01
(PID.TID 0000.0001)      cg2d_init_res =   2.18099076329202E-01
(PID.TID 0000.0001)      cg2d_iters(min,last) =      -1      80
(PID.TID 0000.0001)      cg2d_last_res =   9.55927126738612E-14
(PID.TID 0000.0001) // =======================================================
(PID.TID 0000.0001) // Begin MONITOR dynamic field statistics
(PID.TID 0000.0001) // =======================================================
(PID.TID 0000.0001) %MON time_tsnumber                =                     2
(PID.TID 0000.0001) %MON time_secondsf                =   8.6400000000000E+04
(PID.TID 0000.0001) %MON dynstat_eta_max              =   4.6334347157143E-01
(PID.TID 0000.0001) %MON dynstat_eta_min              =  -1.5054718669164E+00
(PID.TID 0000.0001) %MON dynstat_eta_mean             =  -5.1733721838717E-01
(PID.TID 0000.0001) %MON dynstat_eta_sd               =   6.0496709348125E-01
(PID.TID 0000.0001) %MON dynstat_eta_del2             =   2.3577831149834E-03
(PID.TID 0000.0001) %MON dynstat_uvel_max             =   1.3041106999456E-01
(PID.TID 0000.0001) %MON dynstat_uvel_min             =  -6.0615630447865E-02
(PID.TID 0000.0001) %MON dynstat_uvel_mean            =   7.4725824773712E-03
(PID.TID 0000.0001) %MON dynstat_uvel_sd              =   1.4631652665722E-02
(PID.TID 0000.0001) %MON dynstat_uvel_del2            =   1.6226581855361E-04
(PID.TID 0000.0001) %MON dynstat_vvel_max             =   1.2953153531427E-01
(PID.TID 0000.0001) %MON dynstat_vvel_min             =  -8.8521495760349E-02
(PID.TID 0000.0001) %MON dynstat_vvel_mean            =   9.3671467481626E-04
(PID.TID 0000.0001) %MON dynstat_vvel_sd              =   8.4317722124119E-03
(PID.TID 0000.0001) %MON dynstat_vvel_del2            =   1.0631845421266E-04
(PID.TID 0000.0001) %MON dynstat_wvel_max             =   5.4857585207282E-05
(PID.TID 0000.0001) %MON dynstat_wvel_min             =  -1.4187401954804E-04
(PID.TID 0000.0001) %MON dynstat_wvel_mean            =  -2.4323384410062E-07
(PID.TID 0000.0001) %MON dynstat_wvel_sd              =   5.4672365947538E-06
(PID.TID 0000.0001) %MON dynstat_wvel_del2            =   1.4054166570976E-07
(PID.TID 0000.0001) %MON dynstat_theta_max            =   2.4191250964543E+01
(PID.TID 0000.0001) %MON dynstat_theta_min            =  -2.8960457389717E+00
(PID.TID 0000.0001) %MON dynstat_theta_mean           =   2.3222538696213E+00
(PID.TID 0000.0001) %MON dynstat_theta_sd             =   3.2121304166893E+00
(PID.TID 0000.0001) %MON dynstat_theta_del2           =   6.6406361958254E-03
(PID.TID 0000.0001) %MON dynstat_salt_max             =   3.6601160772400E+01
(PID.TID 0000.0001) %MON dynstat_salt_min             =   3.3082402903474E+01
(PID.TID 0000.0001) %MON dynstat_salt_mean            =   3.4483935951541E+01
(PID.TID 0000.0001) %MON dynstat_salt_sd              =   1.9646577404095E-01
(PID.TID 0000.0001) %MON dynstat_salt_del2            =   1.1576659921708E-03
(PID.TID 0000.0001) %MON forcing_qnet_max             =   6.8330323791504E+01
(PID.TID 0000.0001) %MON forcing_qnet_min             =  -2.1277729593913E+02
(PID.TID 0000.0001) %MON forcing_qnet_mean            =  -1.2092838533496E+02
(PID.TID 0000.0001) %MON forcing_qnet_sd              =   4.4621997369695E+01
(PID.TID 0000.0001) %MON forcing_qnet_del2            =   8.3603312595688E-01
(PID.TID 0000.0001) %MON forcing_qsw_max              =   0.0000000000000E+00
(PID.TID 0000.0001) %MON forcing_qsw_min              =   0.0000000000000E+00
(PID.TID 0000.0001) %MON forcing_qsw_mean             =   0.0000000000000E+00
(PID.TID 0000.0001) %MON forcing_qsw_sd               =   0.0000000000000E+00
(PID.TID 0000.0001) %MON forcing_qsw_del2             =   0.0000000000000E+00
(PID.TID 0000.0001) %MON forcing_empmr_max            =   2.5141471127199E-05
(PID.TID 0000.0001) %MON forcing_empmr_min            =  -3.9761445691511E-05
(PID.TID 0000.0001) %MON forcing_empmr_mean           =  -9.3236499820974E-06
(PID.TID 0000.0001) %MON forcing_empmr_sd             =   1.0249687273683E-05
(PID.TID 0000.0001) %MON forcing_empmr_del2           =   9.8755541425843E-08
(PID.TID 0000.0001) %MON forcing_fu_max               =   2.1201943308115E-01
(PID.TID 0000.0001) %MON forcing_fu_min               =  -9.0949111431837E-02
(PID.TID 0000.0001) %MON forcing_fu_mean              =   7.6005340534540E-02
(PID.TID 0000.0001) %MON forcing_fu_sd                =   7.1251205601334E-02
(PID.TID 0000.0001) %MON forcing_fu_del2              =   5.5216683859400E-04
(PID.TID 0000.0001) %MON forcing_fv_max               =   1.5087231919169E-01
(PID.TID 0000.0001) %MON forcing_fv_min               =  -7.6163741697868E-02
(PID.TID 0000.0001) %MON forcing_fv_mean              =  -1.9533531799024E-02
(PID.TID 0000.0001) %MON forcing_fv_sd                =   3.3549641941976E-02
(PID.TID 0000.0001) %MON forcing_fv_del2              =   3.7565688124801E-04
(PID.TID 0000.0001) %MON advcfl_uvel_max              =   3.3677281265160E-02
(PID.TID 0000.0001) %MON advcfl_vvel_max              =   1.7895751022576E-02
(PID.TID 0000.0001) %MON advcfl_wvel_max              =   1.6791664779384E-02
(PID.TID 0000.0001) %MON advcfl_W_hf_max              =   1.8026346013162E-02
(PID.TID 0000.0001) %MON pe_b_mean                    =   8.5371721839429E-04
(PID.TID 0000.0001) %MON ke_max                       =   9.2836853228384E-03
(PID.TID 0000.0001) %MON ke_mean                      =   1.6201167056061E-04
(PID.TID 0000.0001) %MON ke_vol                       =   1.2769337095763E+17
(PID.TID 0000.0001) %MON vort_r_min                   =  -4.7734233399894E-07
(PID.TID 0000.0001) %MON vort_r_max                   =   7.0506910459598E-07
(PID.TID 0000.0001) %MON vort_a_mean                  =  -1.0457492596515E-04
(PID.TID 0000.0001) %MON vort_a_sd                    =   2.1292637161886E-05
(PID.TID 0000.0001) %MON vort_p_mean                  =  -1.2574624373134E-04
(PID.TID 0000.0001) %MON vort_p_sd                    =   1.1183801627528E-04
(PID.TID 0000.0001) %MON surfExpan_theta_mean         =   2.6874756579136E-07
(PID.TID 0000.0001) %MON surfExpan_salt_mean          =   1.0981311502990E-07
(PID.TID 0000.0001) // =======================================================
(PID.TID 0000.0001) // End MONITOR dynamic field statistics
(PID.TID 0000.0001) // =======================================================
(PID.TID 0000.0001) // =======================================================
(PID.TID 0000.0001) // Begin OBCS MONITOR field statistics
(PID.TID 0000.0001) // =======================================================
(PID.TID 0000.0001) %MON obc_E_uVel_max               =   8.3963031073411E-02
(PID.TID 0000.0001) %MON obc_E_uVel_min               =  -6.0615630447865E-02
(PID.TID 0000.0001) %MON obc_E_uVel_mean              =   7.3628256725119E-03
(PID.TID 0000.0001) %MON obc_E_uVel_sd                =   1.4301519717685E-02
(PID.TID 0000.0001) %MON obc_E_uVel_Int               =   1.2623276493204E+08
(PID.TID 0000.0001) %MON obc_W_uVel_max               =   5.9798991183440E-02
(PID.TID 0000.0001) %MON obc_W_uVel_min               =  -2.5731079528729E-02
(PID.TID 0000.0001) %MON obc_W_uVel_mean              =   7.0149129459912E-03
(PID.TID 0000.0001) %MON obc_W_uVel_sd                =   1.1111732089572E-02
(PID.TID 0000.0001) %MON obc_W_uVel_Int               =   1.3110367713427E+08
(PID.TID 0000.0001) %MON obc_N_vVel_max               =   4.7361894200246E-02
(PID.TID 0000.0001) %MON obc_N_vVel_min               =  -7.0558022459348E-02
(PID.TID 0000.0001) %MON obc_N_vVel_mean              =   1.6170427400003E-04
(PID.TID 0000.0001) %MON obc_N_vVel_sd                =   6.4389177929887E-03
(PID.TID 0000.0001) %MON obc_N_vVel_Int               =   4.7272381147091E+06
(PID.TID 0000.0001) %MON obc_E_theta_max              =   1.9227046585083E+01
(PID.TID 0000.0001) %MON obc_E_theta_min              =  -1.6256567557653E+00
(PID.TID 0000.0001) %MON obc_E_theta_mean             =   1.9094554967779E+00
(PID.TID 0000.0001) %MON obc_E_theta_sd               =   2.9661690420752E+00
(PID.TID 0000.0001) %MON obc_W_theta_max              =   2.1445012919108E+01
(PID.TID 0000.0001) %MON obc_W_theta_min              =  -1.4419272979101E+00
(PID.TID 0000.0001) %MON obc_W_theta_mean             =   2.4658360810169E+00
(PID.TID 0000.0001) %MON obc_W_theta_sd               =   2.9603162977268E+00
(PID.TID 0000.0001) %MON obc_N_theta_max              =   2.4014411290487E+01
(PID.TID 0000.0001) %MON obc_N_theta_min              =  -6.3142867485682E-01
(PID.TID 0000.0001) %MON obc_N_theta_mean             =   4.8714445467659E+00
(PID.TID 0000.0001) %MON obc_N_theta_sd               =   4.7027078335556E+00
(PID.TID 0000.0001) // =======================================================
(PID.TID 0000.0001) // End OBCS MONITOR field statistics
(PID.TID 0000.0001) // =======================================================
(PID.TID 0000.0001) // =======================================================
(PID.TID 0000.0001) // Begin MONITOR ptracer field statistics
(PID.TID 0000.0001) // =======================================================
(PID.TID 0000.0001) %MON trcstat_ptracer01_max        =   2.3591400243172E+00
(PID.TID 0000.0001) %MON trcstat_ptracer01_min        =   1.9367311267288E+00
(PID.TID 0000.0001) %MON trcstat_ptracer01_mean       =   2.2425273773227E+00
(PID.TID 0000.0001) %MON trcstat_ptracer01_sd         =   7.5988104861154E-02
(PID.TID 0000.0001) %MON trcstat_ptracer01_del2       =   1.0677478041339E-04
(PID.TID 0000.0001) %MON trcstat_ptracer02_max        =   2.4116833437261E+00
(PID.TID 0000.0001) %MON trcstat_ptracer02_min        =   2.1899799234254E+00
(PID.TID 0000.0001) %MON trcstat_ptracer02_mean       =   2.3520454507404E+00
(PID.TID 0000.0001) %MON trcstat_ptracer02_sd         =   3.5090868471107E-02
(PID.TID 0000.0001) %MON trcstat_ptracer02_del2       =   8.0625274409969E-05
(PID.TID 0000.0001) %MON trcstat_ptracer03_max        =   2.7654707903160E-03
(PID.TID 0000.0001) %MON trcstat_ptracer03_min        =   4.7350030644480E-05
(PID.TID 0000.0001) %MON trcstat_ptracer03_mean       =   2.0556606504825E-03
(PID.TID 0000.0001) %MON trcstat_ptracer03_sd         =   5.0325999938548E-04
(PID.TID 0000.0001) %MON trcstat_ptracer03_del2       =   6.7007816116348E-07
(PID.TID 0000.0001) %MON trcstat_ptracer04_max        =   2.5734372514985E-04
(PID.TID 0000.0001) %MON trcstat_ptracer04_min        =  -7.5081759287795E-07
(PID.TID 0000.0001) %MON trcstat_ptracer04_mean       =   6.2167069491906E-06
(PID.TID 0000.0001) %MON trcstat_ptracer04_sd         =   2.6176552870363E-05
(PID.TID 0000.0001) %MON trcstat_ptracer04_del2       =   1.3446002024881E-07
(PID.TID 0000.0001) %MON trcstat_ptracer05_max        =   3.8365288067711E-01
(PID.TID 0000.0001) %MON trcstat_ptracer05_min        =   8.2401870719661E-02
(PID.TID 0000.0001) %MON trcstat_ptracer05_mean       =   2.1412919227452E-01
(PID.TID 0000.0001) %MON trcstat_ptracer05_sd         =   4.3048445762024E-02
(PID.TID 0000.0001) %MON trcstat_ptracer05_del2       =   1.1876688770317E-04
(PID.TID 0000.0001) // =======================================================
(PID.TID 0000.0001) // End MONITOR ptracers field statistics
(PID.TID 0000.0001) // =======================================================
 EXTERNAL_FIELDS_LOAD,         2 : iP,iLd,i0,i1=   12    1   12    1 ; Wght=  0.4666666667  0.5333333333
 DIC_FIELDS_LOAD,         2 : iP,iLd,i0,i1=   12    1   12    1 ; Wght=  0.4666666667  0.5333333333
 OBCS_FIELDS_LOAD,         3 : iP,iLd,i0,i1=   12    1   12    1 ; Wght=  0.4500000000  0.5500000000
 cg2d: Sum(rhs),rhsMax =   3.69813004132796E+01  9.89366639092451E-01
(PID.TID 0000.0001)      cg2d_init_res =   5.67526980563392E-02
(PID.TID 0000.0001)      cg2d_iters(min,last) =      -1      79
(PID.TID 0000.0001)      cg2d_last_res =   6.56260092710677E-14
(PID.TID 0000.0001) // =======================================================
(PID.TID 0000.0001) // Begin MONITOR dynamic field statistics
(PID.TID 0000.0001) // =======================================================
(PID.TID 0000.0001) %MON time_tsnumber                =                     3
(PID.TID 0000.0001) %MON time_secondsf                =   1.2960000000000E+05
(PID.TID 0000.0001) %MON dynstat_eta_max              =   4.6213989059194E-01
(PID.TID 0000.0001) %MON dynstat_eta_min              =  -1.5125833035863E+00
(PID.TID 0000.0001) %MON dynstat_eta_mean             =  -5.1715888372412E-01
(PID.TID 0000.0001) %MON dynstat_eta_sd               =   6.0875958600885E-01
(PID.TID 0000.0001) %MON dynstat_eta_del2             =   2.3647144329516E-03
(PID.TID 0000.0001) %MON dynstat_uvel_max             =   1.3062261868045E-01
(PID.TID 0000.0001) %MON dynstat_uvel_min             =  -6.0539411753416E-02
(PID.TID 0000.0001) %MON dynstat_uvel_mean            =   7.5079985726029E-03
(PID.TID 0000.0001) %MON dynstat_uvel_sd              =   1.4636773745285E-02
(PID.TID 0000.0001) %MON dynstat_uvel_del2            =   1.6215293796818E-04
(PID.TID 0000.0001) %MON dynstat_vvel_max             =   1.2955742043983E-01
(PID.TID 0000.0001) %MON dynstat_vvel_min             =  -8.8542959561069E-02
(PID.TID 0000.0001) %MON dynstat_vvel_mean            =   9.5026324011132E-04
(PID.TID 0000.0001) %MON dynstat_vvel_sd              =   8.4359882216886E-03
(PID.TID 0000.0001) %MON dynstat_vvel_del2            =   1.0627935286095E-04
(PID.TID 0000.0001) %MON dynstat_wvel_max             =   5.4890354380162E-05
(PID.TID 0000.0001) %MON dynstat_wvel_min             =  -1.4180007284655E-04
(PID.TID 0000.0001) %MON dynstat_wvel_mean            =  -2.4323028399391E-07
(PID.TID 0000.0001) %MON dynstat_wvel_sd              =   5.4605074086471E-06
(PID.TID 0000.0001) %MON dynstat_wvel_del2            =   1.4055591218982E-07
(PID.TID 0000.0001) %MON dynstat_theta_max            =   2.4207205522541E+01
(PID.TID 0000.0001) %MON dynstat_theta_min            =  -2.8961461882647E+00
(PID.TID 0000.0001) %MON dynstat_theta_mean           =   2.3225679277077E+00
(PID.TID 0000.0001) %MON dynstat_theta_sd             =   3.2129999380289E+00
(PID.TID 0000.0001) %MON dynstat_theta_del2           =   6.6377896898327E-03
(PID.TID 0000.0001) %MON dynstat_salt_max             =   3.6601334730652E+01
(PID.TID 0000.0001) %MON dynstat_salt_min             =   3.3081176678740E+01
(PID.TID 0000.0001) %MON dynstat_salt_mean            =   3.4483936926475E+01
(PID.TID 0000.0001) %MON dynstat_salt_sd              =   1.9647408903632E-01
(PID.TID 0000.0001) %MON dynstat_salt_del2            =   1.1570457958611E-03
(PID.TID 0000.0001) %MON forcing_qnet_max             =   6.8365893554688E+01
(PID.TID 0000.0001) %MON forcing_qnet_min             =  -2.1235058186849E+02
(PID.TID 0000.0001) %MON forcing_qnet_mean            =  -1.2065349012308E+02
(PID.TID 0000.0001) %MON forcing_qnet_sd              =   4.4471574191313E+01
(PID.TID 0000.0001) %MON forcing_qnet_del2            =   8.3718643192961E-01
(PID.TID 0000.0001) %MON forcing_qsw_max              =   0.0000000000000E+00
(PID.TID 0000.0001) %MON forcing_qsw_min              =   0.0000000000000E+00
(PID.TID 0000.0001) %MON forcing_qsw_mean             =   0.0000000000000E+00
(PID.TID 0000.0001) %MON forcing_qsw_sd               =   0.0000000000000E+00
(PID.TID 0000.0001) %MON forcing_qsw_del2             =   0.0000000000000E+00
(PID.TID 0000.0001) %MON forcing_empmr_max            =   2.5141471127199E-05
(PID.TID 0000.0001) %MON forcing_empmr_min            =  -3.9761445691511E-05
(PID.TID 0000.0001) %MON forcing_empmr_mean           =  -9.3236499820974E-06
(PID.TID 0000.0001) %MON forcing_empmr_sd             =   1.0249687273683E-05
(PID.TID 0000.0001) %MON forcing_empmr_del2           =   9.8755541425843E-08
(PID.TID 0000.0001) %MON forcing_fu_max               =   2.1214843690395E-01
(PID.TID 0000.0001) %MON forcing_fu_min               =  -9.1365413367748E-02
(PID.TID 0000.0001) %MON forcing_fu_mean              =   7.5904591616040E-02
(PID.TID 0000.0001) %MON forcing_fu_sd                =   7.1286791719395E-02
(PID.TID 0000.0001) %MON forcing_fu_del2              =   5.5309620030393E-04
(PID.TID 0000.0001) %MON forcing_fv_max               =   1.5056358873844E-01
(PID.TID 0000.0001) %MON forcing_fv_min               =  -7.6133539776007E-02
(PID.TID 0000.0001) %MON forcing_fv_mean              =  -1.9474492909428E-02
(PID.TID 0000.0001) %MON forcing_fv_sd                =   3.3536075112207E-02
(PID.TID 0000.0001) %MON forcing_fv_del2              =   3.7509025945884E-04
(PID.TID 0000.0001) %MON advcfl_uvel_max              =   3.3731911478656E-02
(PID.TID 0000.0001) %MON advcfl_vvel_max              =   1.7899327246398E-02
(PID.TID 0000.0001) %MON advcfl_wvel_max              =   1.6782912731427E-02
(PID.TID 0000.0001) %MON advcfl_W_hf_max              =   1.8016950432267E-02
(PID.TID 0000.0001) %MON pe_b_mean                    =   8.5967060596595E-04
(PID.TID 0000.0001) %MON ke_max                       =   9.3049026000510E-03
(PID.TID 0000.0001) %MON ke_mean                      =   1.6238894530997E-04
(PID.TID 0000.0001) %MON ke_vol                       =   1.2769337095763E+17
(PID.TID 0000.0001) %MON vort_r_min                   =  -4.7703855977354E-07
(PID.TID 0000.0001) %MON vort_r_max                   =   7.0514402478036E-07
(PID.TID 0000.0001) %MON vort_a_mean                  =  -1.0457492545002E-04
(PID.TID 0000.0001) %MON vort_a_sd                    =   2.1292658560979E-05
(PID.TID 0000.0001) %MON vort_p_mean                  =  -1.2574624311192E-04
(PID.TID 0000.0001) %MON vort_p_sd                    =   1.1183803880499E-04
(PID.TID 0000.0001) %MON surfExpan_theta_mean         =   4.3299011362977E-07
(PID.TID 0000.0001) %MON surfExpan_salt_mean          =   1.1235984607564E-07
(PID.TID 0000.0001) // =======================================================
(PID.TID 0000.0001) // End MONITOR dynamic field statistics
(PID.TID 0000.0001) // =======================================================
(PID.TID 0000.0001) // =======================================================
(PID.TID 0000.0001) // Begin OBCS MONITOR field statistics
(PID.TID 0000.0001) // =======================================================
(PID.TID 0000.0001) %MON obc_E_uVel_max               =   8.3828638494015E-02
(PID.TID 0000.0001) %MON obc_E_uVel_min               =  -6.0539411753416E-02
(PID.TID 0000.0001) %MON obc_E_uVel_mean              =   7.3609929463100E-03
(PID.TID 0000.0001) %MON obc_E_uVel_sd                =   1.4302160552751E-02
(PID.TID 0000.0001) %MON obc_E_uVel_Int               =   1.2620134355850E+08
(PID.TID 0000.0001) %MON obc_W_uVel_max               =   5.9847029671073E-02
(PID.TID 0000.0001) %MON obc_W_uVel_min               =  -2.5733459647745E-02
(PID.TID 0000.0001) %MON obc_W_uVel_mean              =   7.0105385545017E-03
(PID.TID 0000.0001) %MON obc_W_uVel_sd                =   1.1115697883587E-02
(PID.TID 0000.0001) %MON obc_W_uVel_Int               =   1.3102192290383E+08
(PID.TID 0000.0001) %MON obc_N_vVel_max               =   4.7308485023677E-02
(PID.TID 0000.0001) %MON obc_N_vVel_min               =  -7.0609619468451E-02
(PID.TID 0000.0001) %MON obc_N_vVel_mean              =   1.5994407436435E-04
(PID.TID 0000.0001) %MON obc_N_vVel_sd                =   6.4375643639680E-03
(PID.TID 0000.0001) %MON obc_N_vVel_Int               =   4.6757807066797E+06
(PID.TID 0000.0001) %MON obc_E_theta_max              =   1.9248522186279E+01
(PID.TID 0000.0001) %MON obc_E_theta_min              =  -1.6170032203197E+00
(PID.TID 0000.0001) %MON obc_E_theta_mean             =   1.9094443592632E+00
(PID.TID 0000.0001) %MON obc_E_theta_sd               =   2.9666428623953E+00
(PID.TID 0000.0001) %MON obc_W_theta_max              =   2.1465204048157E+01
(PID.TID 0000.0001) %MON obc_W_theta_min              =  -1.4420095145702E+00
(PID.TID 0000.0001) %MON obc_W_theta_mean             =   2.4660533188974E+00
(PID.TID 0000.0001) %MON obc_W_theta_sd               =   2.9608568965157E+00
(PID.TID 0000.0001) %MON obc_N_theta_max              =   2.4035299301147E+01
(PID.TID 0000.0001) %MON obc_N_theta_min              =  -6.3193125426769E-01
(PID.TID 0000.0001) %MON obc_N_theta_mean             =   4.8716564394589E+00
(PID.TID 0000.0001) %MON obc_N_theta_sd               =   4.7035895383254E+00
(PID.TID 0000.0001) // =======================================================
(PID.TID 0000.0001) // End OBCS MONITOR field statistics
(PID.TID 0000.0001) // =======================================================
(PID.TID 0000.0001) // =======================================================
(PID.TID 0000.0001) // Begin MONITOR ptracer field statistics
(PID.TID 0000.0001) // =======================================================
(PID.TID 0000.0001) %MON trcstat_ptracer01_max        =   2.3591406098274E+00
(PID.TID 0000.0001) %MON trcstat_ptracer01_min        =   1.9367115796704E+00
(PID.TID 0000.0001) %MON trcstat_ptracer01_mean       =   2.2425260262854E+00
(PID.TID 0000.0001) %MON trcstat_ptracer01_sd         =   7.5991307400193E-02
(PID.TID 0000.0001) %MON trcstat_ptracer01_del2       =   1.0670393063984E-04
(PID.TID 0000.0001) %MON trcstat_ptracer02_max        =   2.4116839442188E+00
(PID.TID 0000.0001) %MON trcstat_ptracer02_min        =   2.1900145684893E+00
(PID.TID 0000.0001) %MON trcstat_ptracer02_mean       =   2.3520457466898E+00
(PID.TID 0000.0001) %MON trcstat_ptracer02_sd         =   3.5090661454472E-02
(PID.TID 0000.0001) %MON trcstat_ptracer02_del2       =   8.0620206158268E-05
(PID.TID 0000.0001) %MON trcstat_ptracer03_max        =   2.7654743173111E-03
(PID.TID 0000.0001) %MON trcstat_ptracer03_min        =   4.7305272401451E-05
(PID.TID 0000.0001) %MON trcstat_ptracer03_mean       =   2.0556511106058E-03
(PID.TID 0000.0001) %MON trcstat_ptracer03_sd         =   5.0327628114959E-04
(PID.TID 0000.0001) %MON trcstat_ptracer03_del2       =   6.6984167017365E-07
(PID.TID 0000.0001) %MON trcstat_ptracer04_max        =   2.5768558511593E-04
(PID.TID 0000.0001) %MON trcstat_ptracer04_min        =  -7.5456580951666E-07
(PID.TID 0000.0001) %MON trcstat_ptracer04_mean       =   6.2249415736646E-06
(PID.TID 0000.0001) %MON trcstat_ptracer04_sd         =   2.6216732268143E-05
(PID.TID 0000.0001) %MON trcstat_ptracer04_del2       =   1.3440585299183E-07
(PID.TID 0000.0001) %MON trcstat_ptracer05_max        =   3.8368924867501E-01
(PID.TID 0000.0001) %MON trcstat_ptracer05_min        =   8.2409943460719E-02
(PID.TID 0000.0001) %MON trcstat_ptracer05_mean       =   2.1412740246260E-01
(PID.TID 0000.0001) %MON trcstat_ptracer05_sd         =   4.3045914540930E-02
(PID.TID 0000.0001) %MON trcstat_ptracer05_del2       =   1.1857802367732E-04
(PID.TID 0000.0001) // =======================================================
(PID.TID 0000.0001) // End MONITOR ptracers field statistics
(PID.TID 0000.0001) // =======================================================
 EXTERNAL_FIELDS_LOAD,         3 : iP,iLd,i0,i1=   12    1   12    1 ; Wght=  0.4500000000  0.5500000000
 DIC_FIELDS_LOAD,         3 : iP,iLd,i0,i1=   12    1   12    1 ; Wght=  0.4500000000  0.5500000000
 OBCS_FIELDS_LOAD,         4 : iP,iLd,i0,i1=   12    1   12    1 ; Wght=  0.4333333333  0.5666666667
 cg2d: Sum(rhs),rhsMax =   3.69444848326899E+01  9.90008392871365E-01
(PID.TID 0000.0001)      cg2d_init_res =   3.68743323780448E-02
(PID.TID 0000.0001)      cg2d_iters(min,last) =      -1      77
(PID.TID 0000.0001)      cg2d_last_res =   9.79870323443345E-14
(PID.TID 0000.0001) // =======================================================
(PID.TID 0000.0001) // Begin MONITOR dynamic field statistics
(PID.TID 0000.0001) // =======================================================
(PID.TID 0000.0001) %MON time_tsnumber                =                     4
(PID.TID 0000.0001) %MON time_secondsf                =   1.7280000000000E+05
(PID.TID 0000.0001) %MON dynstat_eta_max              =   4.6395963974070E-01
(PID.TID 0000.0001) %MON dynstat_eta_min              =  -1.5149075975101E+00
(PID.TID 0000.0001) %MON dynstat_eta_mean             =  -5.1697916405877E-01
(PID.TID 0000.0001) %MON dynstat_eta_sd               =   6.1240461071870E-01
(PID.TID 0000.0001) %MON dynstat_eta_del2             =   2.3695017619383E-03
(PID.TID 0000.0001) %MON dynstat_uvel_max             =   1.3086193662601E-01
(PID.TID 0000.0001) %MON dynstat_uvel_min             =  -6.0463193058968E-02
(PID.TID 0000.0001) %MON dynstat_uvel_mean            =   7.5291434462894E-03
(PID.TID 0000.0001) %MON dynstat_uvel_sd              =   1.4646053100495E-02
(PID.TID 0000.0001) %MON dynstat_uvel_del2            =   1.6204374780074E-04
(PID.TID 0000.0001) %MON dynstat_vvel_max             =   1.2962069131972E-01
(PID.TID 0000.0001) %MON dynstat_vvel_min             =  -8.8554900694421E-02
(PID.TID 0000.0001) %MON dynstat_vvel_mean            =   9.5300989732081E-04
(PID.TID 0000.0001) %MON dynstat_vvel_sd              =   8.4439077426228E-03
(PID.TID 0000.0001) %MON dynstat_vvel_del2            =   1.0624956418925E-04
(PID.TID 0000.0001) %MON dynstat_wvel_max             =   5.5001242850499E-05
(PID.TID 0000.0001) %MON dynstat_wvel_min             =  -1.4149847831267E-04
(PID.TID 0000.0001) %MON dynstat_wvel_mean            =  -2.4322672388720E-07
(PID.TID 0000.0001) %MON dynstat_wvel_sd              =   5.4499461582878E-06
(PID.TID 0000.0001) %MON dynstat_wvel_del2            =   1.4051527256642E-07
(PID.TID 0000.0001) %MON dynstat_theta_max            =   2.4223666545653E+01
(PID.TID 0000.0001) %MON dynstat_theta_min            =  -2.8962364234641E+00
(PID.TID 0000.0001) %MON dynstat_theta_mean           =   2.3228801417064E+00
(PID.TID 0000.0001) %MON dynstat_theta_sd             =   3.2138692979141E+00
(PID.TID 0000.0001) %MON dynstat_theta_del2           =   6.6350188422182E-03
(PID.TID 0000.0001) %MON dynstat_salt_max             =   3.6601515138275E+01
(PID.TID 0000.0001) %MON dynstat_salt_min             =   3.3079951761183E+01
(PID.TID 0000.0001) %MON dynstat_salt_mean            =   3.4483937899956E+01
(PID.TID 0000.0001) %MON dynstat_salt_sd              =   1.9648308320519E-01
(PID.TID 0000.0001) %MON dynstat_salt_del2            =   1.1564384485617E-03
(PID.TID 0000.0001) %MON forcing_qnet_max             =   6.8401463317871E+01
(PID.TID 0000.0001) %MON forcing_qnet_min             =  -2.1192386779785E+02
(PID.TID 0000.0001) %MON forcing_qnet_mean            =  -1.2037859491120E+02
(PID.TID 0000.0001) %MON forcing_qnet_sd              =   4.4324698931511E+01
(PID.TID 0000.0001) %MON forcing_qnet_del2            =   8.3838936492374E-01
(PID.TID 0000.0001) %MON forcing_qsw_max              =   0.0000000000000E+00
(PID.TID 0000.0001) %MON forcing_qsw_min              =   0.0000000000000E+00
(PID.TID 0000.0001) %MON forcing_qsw_mean             =   0.0000000000000E+00
(PID.TID 0000.0001) %MON forcing_qsw_sd               =   0.0000000000000E+00
(PID.TID 0000.0001) %MON forcing_qsw_del2             =   0.0000000000000E+00
(PID.TID 0000.0001) %MON forcing_empmr_max            =   2.5141471127199E-05
(PID.TID 0000.0001) %MON forcing_empmr_min            =  -3.9761445691511E-05
(PID.TID 0000.0001) %MON forcing_empmr_mean           =  -9.3236499820974E-06
(PID.TID 0000.0001) %MON forcing_empmr_sd             =   1.0249687273683E-05
(PID.TID 0000.0001) %MON forcing_empmr_del2           =   9.8755541425843E-08
(PID.TID 0000.0001) %MON forcing_fu_max               =   2.1227744072676E-01
(PID.TID 0000.0001) %MON forcing_fu_min               =  -9.1781715303659E-02
(PID.TID 0000.0001) %MON forcing_fu_mean              =   7.5803842697540E-02
(PID.TID 0000.0001) %MON forcing_fu_sd                =   7.1323156655177E-02
(PID.TID 0000.0001) %MON forcing_fu_del2              =   5.5407006621995E-04
(PID.TID 0000.0001) %MON forcing_fv_max               =   1.5025485828519E-01
(PID.TID 0000.0001) %MON forcing_fv_min               =  -7.6103337854147E-02
(PID.TID 0000.0001) %MON forcing_fv_mean              =  -1.9415454019831E-02
(PID.TID 0000.0001) %MON forcing_fv_sd                =   3.3523226784915E-02
(PID.TID 0000.0001) %MON forcing_fv_del2              =   3.7456042910420E-04
(PID.TID 0000.0001) %MON advcfl_uvel_max              =   3.3793712810127E-02
(PID.TID 0000.0001) %MON advcfl_vvel_max              =   1.7908068591976E-02
(PID.TID 0000.0001) %MON advcfl_wvel_max              =   1.6747217159198E-02
(PID.TID 0000.0001) %MON advcfl_W_hf_max              =   1.7978630185609E-02
(PID.TID 0000.0001) %MON pe_b_mean                    =   8.6541751879117E-04
(PID.TID 0000.0001) %MON ke_max                       =   9.3301988778789E-03
(PID.TID 0000.0001) %MON ke_mean                      =   1.6274233025701E-04
(PID.TID 0000.0001) %MON ke_vol                       =   1.2769337095763E+17
(PID.TID 0000.0001) %MON vort_r_min                   =  -4.7669670741190E-07
(PID.TID 0000.0001) %MON vort_r_max                   =   7.0557709425580E-07
(PID.TID 0000.0001) %MON vort_a_mean                  =  -1.0457492493489E-04
(PID.TID 0000.0001) %MON vort_a_sd                    =   2.1292671158631E-05
(PID.TID 0000.0001) %MON vort_p_mean                  =  -1.2574624249250E-04
(PID.TID 0000.0001) %MON vort_p_sd                    =   1.1183804529477E-04
(PID.TID 0000.0001) %MON surfExpan_theta_mean         =   4.7796200915447E-07
(PID.TID 0000.0001) %MON surfExpan_salt_mean          =   1.2282832566761E-07
(PID.TID 0000.0001) // =======================================================
(PID.TID 0000.0001) // End MONITOR dynamic field statistics
(PID.TID 0000.0001) // =======================================================
(PID.TID 0000.0001) // =======================================================
(PID.TID 0000.0001) // Begin OBCS MONITOR field statistics
(PID.TID 0000.0001) // =======================================================
(PID.TID 0000.0001) %MON obc_E_uVel_max               =   8.3694245914618E-02
(PID.TID 0000.0001) %MON obc_E_uVel_min               =  -6.0463193058968E-02
(PID.TID 0000.0001) %MON obc_E_uVel_mean              =   7.3591602201081E-03
(PID.TID 0000.0001) %MON obc_E_uVel_sd                =   1.4302813286498E-02
(PID.TID 0000.0001) %MON obc_E_uVel_Int               =   1.2616992218495E+08
(PID.TID 0000.0001) %MON obc_W_uVel_max               =   5.9895068158706E-02
(PID.TID 0000.0001) %MON obc_W_uVel_min               =  -2.5735839766761E-02
(PID.TID 0000.0001) %MON obc_W_uVel_mean              =   7.0061641630121E-03
(PID.TID 0000.0001) %MON obc_W_uVel_sd                =   1.1119676645741E-02
(PID.TID 0000.0001) %MON obc_W_uVel_Int               =   1.3094016867339E+08
(PID.TID 0000.0001) %MON obc_N_vVel_max               =   4.7255075847109E-02
(PID.TID 0000.0001) %MON obc_N_vVel_min               =  -7.0661216477553E-02
(PID.TID 0000.0001) %MON obc_N_vVel_mean              =   1.5818387472866E-04
(PID.TID 0000.0001) %MON obc_N_vVel_sd                =   6.4362274787566E-03
(PID.TID 0000.0001) %MON obc_N_vVel_Int               =   4.6243232986502E+06
(PID.TID 0000.0001) %MON obc_E_theta_max              =   1.9269997787476E+01
(PID.TID 0000.0001) %MON obc_E_theta_min              =  -1.6083496848742E+00
(PID.TID 0000.0001) %MON obc_E_theta_mean             =   1.9094332217485E+00
(PID.TID 0000.0001) %MON obc_E_theta_sd               =   2.9671180827308E+00
(PID.TID 0000.0001) %MON obc_W_theta_max              =   2.1485395177205E+01
(PID.TID 0000.0001) %MON obc_W_theta_min              =  -1.4420917312304E+00
(PID.TID 0000.0001) %MON obc_W_theta_mean             =   2.4662705567779E+00
(PID.TID 0000.0001) %MON obc_W_theta_sd               =   2.9613984222904E+00
(PID.TID 0000.0001) %MON obc_N_theta_max              =   2.4056187311808E+01
(PID.TID 0000.0001) %MON obc_N_theta_min              =  -6.3243383367856E-01
(PID.TID 0000.0001) %MON obc_N_theta_mean             =   4.8718683321519E+00
(PID.TID 0000.0001) %MON obc_N_theta_sd               =   4.7044721835460E+00
(PID.TID 0000.0001) // =======================================================
(PID.TID 0000.0001) // End OBCS MONITOR field statistics
(PID.TID 0000.0001) // =======================================================
(PID.TID 0000.0001) // =======================================================
(PID.TID 0000.0001) // Begin MONITOR ptracer field statistics
(PID.TID 0000.0001) // =======================================================
(PID.TID 0000.0001) %MON trcstat_ptracer01_max        =   2.3591411848645E+00
(PID.TID 0000.0001) %MON trcstat_ptracer01_min        =   1.9366920752969E+00
(PID.TID 0000.0001) %MON trcstat_ptracer01_mean       =   2.2425246902381E+00
(PID.TID 0000.0001) %MON trcstat_ptracer01_sd         =   7.5994460240989E-02
(PID.TID 0000.0001) %MON trcstat_ptracer01_del2       =   1.0662883126474E-04
(PID.TID 0000.0001) %MON trcstat_ptracer02_max        =   2.4116845439974E+00
(PID.TID 0000.0001) %MON trcstat_ptracer02_min        =   2.1900506623788E+00
(PID.TID 0000.0001) %MON trcstat_ptracer02_mean       =   2.3520460472547E+00
(PID.TID 0000.0001) %MON trcstat_ptracer02_sd         =   3.5090437532839E-02
(PID.TID 0000.0001) %MON trcstat_ptracer02_del2       =   8.0614771057999E-05
(PID.TID 0000.0001) %MON trcstat_ptracer03_max        =   2.7654777766702E-03
(PID.TID 0000.0001) %MON trcstat_ptracer03_min        =   4.7260824072725E-05
(PID.TID 0000.0001) %MON trcstat_ptracer03_mean       =   2.0556416963466E-03
(PID.TID 0000.0001) %MON trcstat_ptracer03_sd         =   5.0329218068770E-04
(PID.TID 0000.0001) %MON trcstat_ptracer03_del2       =   6.6955247281741E-07
(PID.TID 0000.0001) %MON trcstat_ptracer04_max        =   2.5801936011785E-04
(PID.TID 0000.0001) %MON trcstat_ptracer04_min        =  -7.5838724074807E-07
(PID.TID 0000.0001) %MON trcstat_ptracer04_mean       =   6.2331433985216E-06
(PID.TID 0000.0001) %MON trcstat_ptracer04_sd         =   2.6256782159506E-05
(PID.TID 0000.0001) %MON trcstat_ptracer04_del2       =   1.3433708334944E-07
(PID.TID 0000.0001) %MON trcstat_ptracer05_max        =   3.8372724940548E-01
(PID.TID 0000.0001) %MON trcstat_ptracer05_min        =   8.2416024425651E-02
(PID.TID 0000.0001) %MON trcstat_ptracer05_mean       =   2.1412562207563E-01
(PID.TID 0000.0001) %MON trcstat_ptracer05_sd         =   4.3043405275289E-02
(PID.TID 0000.0001) %MON trcstat_ptracer05_del2       =   1.1838326778831E-04
(PID.TID 0000.0001) // =======================================================
(PID.TID 0000.0001) // End MONITOR ptracers field statistics
(PID.TID 0000.0001) // =======================================================
 EXTERNAL_FIELDS_LOAD,         4 : iP,iLd,i0,i1=   12    1   12    1 ; Wght=  0.4333333333  0.5666666667
 DIC_FIELDS_LOAD,         4 : iP,iLd,i0,i1=   12    1   12    1 ; Wght=  0.4333333333  0.5666666667
 OBCS_FIELDS_LOAD,         5 : iP,iLd,i0,i1=   12    1   12    1 ; Wght=  0.4166666667  0.5833333333
 cg2d: Sum(rhs),rhsMax =   3.69076054258849E+01  9.90650485227997E-01
(PID.TID 0000.0001)      cg2d_init_res =   2.70765733365449E-02
(PID.TID 0000.0001)      cg2d_iters(min,last) =      -1      77
(PID.TID 0000.0001)      cg2d_last_res =   7.96680707035899E-14
(PID.TID 0000.0001) // =======================================================
(PID.TID 0000.0001) // Begin MONITOR dynamic field statistics
(PID.TID 0000.0001) // =======================================================
(PID.TID 0000.0001) %MON time_tsnumber                =                     5
(PID.TID 0000.0001) %MON time_secondsf                =   2.1600000000000E+05
(PID.TID 0000.0001) %MON dynstat_eta_max              =   4.6742181670393E-01
(PID.TID 0000.0001) %MON dynstat_eta_min              =  -1.5153341969222E+00
(PID.TID 0000.0001) %MON dynstat_eta_mean             =  -5.1679805939112E-01
(PID.TID 0000.0001) %MON dynstat_eta_sd               =   6.1516973521395E-01
(PID.TID 0000.0001) %MON dynstat_eta_del2             =   2.3717076841685E-03
(PID.TID 0000.0001) %MON dynstat_uvel_max             =   1.3110535878860E-01
(PID.TID 0000.0001) %MON dynstat_uvel_min             =  -6.0386974364519E-02
(PID.TID 0000.0001) %MON dynstat_uvel_mean            =   7.5431447413553E-03
(PID.TID 0000.0001) %MON dynstat_uvel_sd              =   1.4657547896250E-02
(PID.TID 0000.0001) %MON dynstat_uvel_del2            =   1.6193726470229E-04
(PID.TID 0000.0001) %MON dynstat_vvel_max             =   1.2970860601231E-01
(PID.TID 0000.0001) %MON dynstat_vvel_min             =  -8.8551055672802E-02
(PID.TID 0000.0001) %MON dynstat_vvel_mean            =   9.4679719200852E-04
(PID.TID 0000.0001) %MON dynstat_vvel_sd              =   8.4539789984646E-03
(PID.TID 0000.0001) %MON dynstat_vvel_del2            =   1.0622004487125E-04
(PID.TID 0000.0001) %MON dynstat_wvel_max             =   5.5082374388112E-05
(PID.TID 0000.0001) %MON dynstat_wvel_min             =  -1.4119944512572E-04
(PID.TID 0000.0001) %MON dynstat_wvel_mean            =  -2.4322316378049E-07
(PID.TID 0000.0001) %MON dynstat_wvel_sd              =   5.4439293150665E-06
(PID.TID 0000.0001) %MON dynstat_wvel_del2            =   1.4050122398173E-07
(PID.TID 0000.0001) %MON dynstat_theta_max            =   2.4240184811830E+01
(PID.TID 0000.0001) %MON dynstat_theta_min            =  -2.8963115492864E+00
(PID.TID 0000.0001) %MON dynstat_theta_mean           =   2.3231921950168E+00
(PID.TID 0000.0001) %MON dynstat_theta_sd             =   3.2147400722502E+00
(PID.TID 0000.0001) %MON dynstat_theta_del2           =   6.6322877540844E-03
(PID.TID 0000.0001) %MON dynstat_salt_max             =   3.6601696154099E+01
(PID.TID 0000.0001) %MON dynstat_salt_min             =   3.3078734354698E+01
(PID.TID 0000.0001) %MON dynstat_salt_mean            =   3.4483938694908E+01
(PID.TID 0000.0001) %MON dynstat_salt_sd              =   1.9649189319730E-01
(PID.TID 0000.0001) %MON dynstat_salt_del2            =   1.1558406489509E-03
(PID.TID 0000.0001) %MON forcing_qnet_max             =   6.8437033081055E+01
(PID.TID 0000.0001) %MON forcing_qnet_min             =  -2.1149715372721E+02
(PID.TID 0000.0001) %MON forcing_qnet_mean            =  -1.2010369969932E+02
(PID.TID 0000.0001) %MON forcing_qnet_sd              =   4.4181406974067E+01
(PID.TID 0000.0001) %MON forcing_qnet_del2            =   8.3964171164123E-01
(PID.TID 0000.0001) %MON forcing_qsw_max              =   0.0000000000000E+00
(PID.TID 0000.0001) %MON forcing_qsw_min              =   0.0000000000000E+00
(PID.TID 0000.0001) %MON forcing_qsw_mean             =   0.0000000000000E+00
(PID.TID 0000.0001) %MON forcing_qsw_sd               =   0.0000000000000E+00
(PID.TID 0000.0001) %MON forcing_qsw_del2             =   0.0000000000000E+00
(PID.TID 0000.0001) %MON forcing_empmr_max            =   2.5141471127199E-05
(PID.TID 0000.0001) %MON forcing_empmr_min            =  -3.9761445691511E-05
(PID.TID 0000.0001) %MON forcing_empmr_mean           =  -9.3236499820974E-06
(PID.TID 0000.0001) %MON forcing_empmr_sd             =   1.0249687273683E-05
(PID.TID 0000.0001) %MON forcing_empmr_del2           =   9.8755541425843E-08
(PID.TID 0000.0001) %MON forcing_fu_max               =   2.1240644454956E-01
(PID.TID 0000.0001) %MON forcing_fu_min               =  -9.2198017239571E-02
(PID.TID 0000.0001) %MON forcing_fu_mean              =   7.5703093779040E-02
(PID.TID 0000.0001) %MON forcing_fu_sd                =   7.1360299218031E-02
(PID.TID 0000.0001) %MON forcing_fu_del2              =   5.5508820210295E-04
(PID.TID 0000.0001) %MON forcing_fv_max               =   1.4994612783194E-01
(PID.TID 0000.0001) %MON forcing_fv_min               =  -7.6073135932287E-02
(PID.TID 0000.0001) %MON forcing_fv_mean              =  -1.9356415130235E-02
(PID.TID 0000.0001) %MON forcing_fv_sd                =   3.3511097786534E-02
(PID.TID 0000.0001) %MON forcing_fv_del2              =   3.7406754651863E-04
(PID.TID 0000.0001) %MON advcfl_uvel_max              =   3.3856574012295E-02
(PID.TID 0000.0001) %MON advcfl_vvel_max              =   1.7920214664715E-02
(PID.TID 0000.0001) %MON advcfl_wvel_max              =   1.6711824738167E-02
(PID.TID 0000.0001) %MON advcfl_W_hf_max              =   1.7940635380680E-02
(PID.TID 0000.0001) %MON pe_b_mean                    =   8.6973873149404E-04
(PID.TID 0000.0001) %MON ke_max                       =   9.3563820626242E-03
(PID.TID 0000.0001) %MON ke_mean                      =   1.6308471162421E-04
(PID.TID 0000.0001) %MON ke_vol                       =   1.2769337095763E+17
(PID.TID 0000.0001) %MON vort_r_min                   =  -4.7629354144136E-07
(PID.TID 0000.0001) %MON vort_r_max                   =   7.0627187721181E-07
(PID.TID 0000.0001) %MON vort_a_mean                  =  -1.0457492441976E-04
(PID.TID 0000.0001) %MON vort_a_sd                    =   2.1292678749744E-05
(PID.TID 0000.0001) %MON vort_p_mean                  =  -1.2574624187308E-04
(PID.TID 0000.0001) %MON vort_p_sd                    =   1.1183804115107E-04
(PID.TID 0000.0001) %MON surfExpan_theta_mean         =   4.0468429483677E-07
(PID.TID 0000.0001) %MON surfExpan_salt_mean          =   1.3657719718630E-07
(PID.TID 0000.0001) // =======================================================
(PID.TID 0000.0001) // End MONITOR dynamic field statistics
(PID.TID 0000.0001) // =======================================================
(PID.TID 0000.0001) // =======================================================
(PID.TID 0000.0001) // Begin OBCS MONITOR field statistics
(PID.TID 0000.0001) // =======================================================
(PID.TID 0000.0001) %MON obc_E_uVel_max               =   8.3559853335222E-02
(PID.TID 0000.0001) %MON obc_E_uVel_min               =  -6.0386974364519E-02
(PID.TID 0000.0001) %MON obc_E_uVel_mean              =   7.3573274939063E-03
(PID.TID 0000.0001) %MON obc_E_uVel_sd                =   1.4303477917298E-02
(PID.TID 0000.0001) %MON obc_E_uVel_Int               =   1.2613850081140E+08
(PID.TID 0000.0001) %MON obc_W_uVel_max               =   5.9943106646339E-02
(PID.TID 0000.0001) %MON obc_W_uVel_min               =  -2.5738219885776E-02
(PID.TID 0000.0001) %MON obc_W_uVel_mean              =   7.0017897715226E-03
(PID.TID 0000.0001) %MON obc_W_uVel_sd                =   1.1123668362120E-02
(PID.TID 0000.0001) %MON obc_W_uVel_Int               =   1.3085841444295E+08
(PID.TID 0000.0001) %MON obc_N_vVel_max               =   4.7201666670541E-02
(PID.TID 0000.0001) %MON obc_N_vVel_min               =  -7.0712813486656E-02
(PID.TID 0000.0001) %MON obc_N_vVel_mean              =   1.5642367509297E-04
(PID.TID 0000.0001) %MON obc_N_vVel_sd                =   6.4349071476655E-03
(PID.TID 0000.0001) %MON obc_N_vVel_Int               =   4.5728658906207E+06
(PID.TID 0000.0001) %MON obc_E_theta_max              =   1.9291473388672E+01
(PID.TID 0000.0001) %MON obc_E_theta_min              =  -1.5996961494287E+00
(PID.TID 0000.0001) %MON obc_E_theta_mean             =   1.9094220842338E+00
(PID.TID 0000.0001) %MON obc_E_theta_sd               =   2.9675947024092E+00
(PID.TID 0000.0001) %MON obc_W_theta_max              =   2.1505586306254E+01
(PID.TID 0000.0001) %MON obc_W_theta_min              =  -1.4421739478906E+00
(PID.TID 0000.0001) %MON obc_W_theta_mean             =   2.4664877946583E+00
(PID.TID 0000.0001) %MON obc_W_theta_sd               =   2.9619408745425E+00
(PID.TID 0000.0001) %MON obc_N_theta_max              =   2.4077075322469E+01
(PID.TID 0000.0001) %MON obc_N_theta_min              =  -6.3293641308943E-01
(PID.TID 0000.0001) %MON obc_N_theta_mean             =   4.8720802248449E+00
(PID.TID 0000.0001) %MON obc_N_theta_sd               =   4.7053557686883E+00
(PID.TID 0000.0001) // =======================================================
(PID.TID 0000.0001) // End OBCS MONITOR field statistics
(PID.TID 0000.0001) // =======================================================
(PID.TID 0000.0001) // =======================================================
(PID.TID 0000.0001) // Begin MONITOR ptracer field statistics
(PID.TID 0000.0001) // =======================================================
(PID.TID 0000.0001) %MON trcstat_ptracer01_max        =   2.3591417563916E+00
(PID.TID 0000.0001) %MON trcstat_ptracer01_min        =   1.9366726095365E+00
(PID.TID 0000.0001) %MON trcstat_ptracer01_mean       =   2.2425233498866E+00
(PID.TID 0000.0001) %MON trcstat_ptracer01_sd         =   7.5997616771279E-02
(PID.TID 0000.0001) %MON trcstat_ptracer01_del2       =   1.0655373942604E-04
(PID.TID 0000.0001) %MON trcstat_ptracer02_max        =   2.4116851531351E+00
(PID.TID 0000.0001) %MON trcstat_ptracer02_min        =   2.1900884869865E+00
(PID.TID 0000.0001) %MON trcstat_ptracer02_mean       =   2.3520463397460E+00
(PID.TID 0000.0001) %MON trcstat_ptracer02_sd         =   3.5090221077120E-02
(PID.TID 0000.0001) %MON trcstat_ptracer02_del2       =   8.0608892347359E-05
(PID.TID 0000.0001) %MON trcstat_ptracer03_max        =   2.7654812103749E-03
(PID.TID 0000.0001) %MON trcstat_ptracer03_min        =   4.7216676461730E-05
(PID.TID 0000.0001) %MON trcstat_ptracer03_mean       =   2.0556322947179E-03
(PID.TID 0000.0001) %MON trcstat_ptracer03_sd         =   5.0330796929866E-04
(PID.TID 0000.0001) %MON trcstat_ptracer03_del2       =   6.6926202826508E-07
(PID.TID 0000.0001) %MON trcstat_ptracer04_max        =   2.5834842094182E-04
(PID.TID 0000.0001) %MON trcstat_ptracer04_min        =  -7.6229478014002E-07
(PID.TID 0000.0001) %MON trcstat_ptracer04_mean       =   6.2413196050617E-06
(PID.TID 0000.0001) %MON trcstat_ptracer04_sd         =   2.6296734510035E-05
(PID.TID 0000.0001) %MON trcstat_ptracer04_del2       =   1.3427222524041E-07
(PID.TID 0000.0001) %MON trcstat_ptracer05_max        =   3.8376464887278E-01
(PID.TID 0000.0001) %MON trcstat_ptracer05_min        =   8.2422348217951E-02
(PID.TID 0000.0001) %MON trcstat_ptracer05_mean       =   2.1412384247877E-01
(PID.TID 0000.0001) %MON trcstat_ptracer05_sd         =   4.3040900792616E-02
(PID.TID 0000.0001) %MON trcstat_ptracer05_del2       =   1.1819074353852E-04
(PID.TID 0000.0001) // =======================================================
(PID.TID 0000.0001) // End MONITOR ptracers field statistics
(PID.TID 0000.0001) // =======================================================
 EXTERNAL_FIELDS_LOAD,         5 : iP,iLd,i0,i1=   12    1   12    1 ; Wght=  0.4166666667  0.5833333333
 DIC_FIELDS_LOAD,         5 : iP,iLd,i0,i1=   12    1   12    1 ; Wght=  0.4166666667  0.5833333333
 OBCS_FIELDS_LOAD,         6 : iP,iLd,i0,i1=   12    1   12    1 ; Wght=  0.4000000000  0.6000000000
 cg2d: Sum(rhs),rhsMax =   3.68604606178159E+01  9.91567272730780E-01
(PID.TID 0000.0001)      cg2d_init_res =   1.48015177649909E-02
(PID.TID 0000.0001)      cg2d_iters(min,last) =      -1      76
(PID.TID 0000.0001)      cg2d_last_res =   7.89128156220992E-14
(PID.TID 0000.0001) // =======================================================
(PID.TID 0000.0001) // Begin MONITOR dynamic field statistics
(PID.TID 0000.0001) // =======================================================
(PID.TID 0000.0001) %MON time_tsnumber                =                     6
(PID.TID 0000.0001) %MON time_secondsf                =   2.5920000000000E+05
(PID.TID 0000.0001) %MON dynstat_eta_max              =   4.6999038601378E-01
(PID.TID 0000.0001) %MON dynstat_eta_min              =  -1.5152481176503E+00
(PID.TID 0000.0001) %MON dynstat_eta_mean             =  -5.1661556972116E-01
(PID.TID 0000.0001) %MON dynstat_eta_sd               =   6.1658103672773E-01
(PID.TID 0000.0001) %MON dynstat_eta_del2             =   2.3736315171177E-03
(PID.TID 0000.0001) %MON dynstat_uvel_max             =   1.3135016104574E-01
(PID.TID 0000.0001) %MON dynstat_uvel_min             =  -6.0310755670071E-02
(PID.TID 0000.0001) %MON dynstat_uvel_mean            =   7.5556985596957E-03
(PID.TID 0000.0001) %MON dynstat_uvel_sd              =   1.4669695779405E-02
(PID.TID 0000.0001) %MON dynstat_uvel_del2            =   1.6183624438474E-04
(PID.TID 0000.0001) %MON dynstat_vvel_max             =   1.2980890775924E-01
(PID.TID 0000.0001) %MON dynstat_vvel_min             =  -8.8535428945469E-02
(PID.TID 0000.0001) %MON dynstat_vvel_mean            =   9.3568261909357E-04
(PID.TID 0000.0001) %MON dynstat_vvel_sd              =   8.4651885756853E-03
(PID.TID 0000.0001) %MON dynstat_vvel_del2            =   1.0619049059375E-04
(PID.TID 0000.0001) %MON dynstat_wvel_max             =   5.5109426798617E-05
(PID.TID 0000.0001) %MON dynstat_wvel_min             =  -1.4100108171507E-04
(PID.TID 0000.0001) %MON dynstat_wvel_mean            =  -2.4321960367378E-07
(PID.TID 0000.0001) %MON dynstat_wvel_sd              =   5.4438789134142E-06
(PID.TID 0000.0001) %MON dynstat_wvel_del2            =   1.4054669441006E-07
(PID.TID 0000.0001) %MON dynstat_theta_max            =   2.4256673239195E+01
(PID.TID 0000.0001) %MON dynstat_theta_min            =  -2.8963725482635E+00
(PID.TID 0000.0001) %MON dynstat_theta_mean           =   2.3235054855065E+00
(PID.TID 0000.0001) %MON dynstat_theta_sd             =   3.2156151642625E+00
(PID.TID 0000.0001) %MON dynstat_theta_del2           =   6.6295982957714E-03
(PID.TID 0000.0001) %MON dynstat_salt_max             =   3.6601874127639E+01
(PID.TID 0000.0001) %MON dynstat_salt_min             =   3.3077503206939E+01
(PID.TID 0000.0001) %MON dynstat_salt_mean            =   3.4483939305470E+01
(PID.TID 0000.0001) %MON dynstat_salt_sd              =   1.9650016219742E-01
(PID.TID 0000.0001) %MON dynstat_salt_del2            =   1.1552488206347E-03
(PID.TID 0000.0001) %MON forcing_qnet_max             =   6.8472602844238E+01
(PID.TID 0000.0001) %MON forcing_qnet_min             =  -2.1107043965658E+02
(PID.TID 0000.0001) %MON forcing_qnet_mean            =  -1.1982880448744E+02
(PID.TID 0000.0001) %MON forcing_qnet_sd              =   4.4041733294347E+01
(PID.TID 0000.0001) %MON forcing_qnet_del2            =   8.4094325131889E-01
(PID.TID 0000.0001) %MON forcing_qsw_max              =   0.0000000000000E+00
(PID.TID 0000.0001) %MON forcing_qsw_min              =   0.0000000000000E+00
(PID.TID 0000.0001) %MON forcing_qsw_mean             =   0.0000000000000E+00
(PID.TID 0000.0001) %MON forcing_qsw_sd               =   0.0000000000000E+00
(PID.TID 0000.0001) %MON forcing_qsw_del2             =   0.0000000000000E+00
(PID.TID 0000.0001) %MON forcing_empmr_max            =   2.5141471127199E-05
(PID.TID 0000.0001) %MON forcing_empmr_min            =  -3.9761445691511E-05
(PID.TID 0000.0001) %MON forcing_empmr_mean           =  -9.3236499820974E-06
(PID.TID 0000.0001) %MON forcing_empmr_sd             =   1.0249687273683E-05
(PID.TID 0000.0001) %MON forcing_empmr_del2           =   9.8755541425843E-08
(PID.TID 0000.0001) %MON forcing_fu_max               =   2.1253544837236E-01
(PID.TID 0000.0001) %MON forcing_fu_min               =  -9.2614319175482E-02
(PID.TID 0000.0001) %MON forcing_fu_mean              =   7.5602344860540E-02
(PID.TID 0000.0001) %MON forcing_fu_sd                =   7.1398218194354E-02
(PID.TID 0000.0001) %MON forcing_fu_del2              =   5.5615036481995E-04
(PID.TID 0000.0001) %MON forcing_fv_max               =   1.4963739737868E-01
(PID.TID 0000.0001) %MON forcing_fv_min               =  -7.6042934010426E-02
(PID.TID 0000.0001) %MON forcing_fv_mean              =  -1.9297376240638E-02
(PID.TID 0000.0001) %MON forcing_fv_sd                =   3.3499688898391E-02
(PID.TID 0000.0001) %MON forcing_fv_del2              =   3.7361175793077E-04
(PID.TID 0000.0001) %MON advcfl_uvel_max              =   3.3919791609302E-02
(PID.TID 0000.0001) %MON advcfl_vvel_max              =   1.7934072101715E-02
(PID.TID 0000.0001) %MON advcfl_wvel_max              =   1.6688347205729E-02
(PID.TID 0000.0001) %MON advcfl_W_hf_max              =   1.7915431559091E-02
(PID.TID 0000.0001) %MON pe_b_mean                    =   8.7182684647676E-04
(PID.TID 0000.0001) %MON ke_max                       =   9.3830442426113E-03
(PID.TID 0000.0001) %MON ke_mean                      =   1.6343104906184E-04
(PID.TID 0000.0001) %MON ke_vol                       =   1.2769337095763E+17
(PID.TID 0000.0001) %MON vort_r_min                   =  -4.7585079446336E-07
(PID.TID 0000.0001) %MON vort_r_max                   =   7.0706927681086E-07
(PID.TID 0000.0001) %MON vort_a_mean                  =  -1.0457492390463E-04
(PID.TID 0000.0001) %MON vort_a_sd                    =   2.1292685036605E-05
(PID.TID 0000.0001) %MON vort_p_mean                  =  -1.2574624125366E-04
(PID.TID 0000.0001) %MON vort_p_sd                    =   1.1183803238886E-04
(PID.TID 0000.0001) %MON surfExpan_theta_mean         =   2.5334040790038E-07
(PID.TID 0000.0001) %MON surfExpan_salt_mean          =   1.4788626310415E-07
(PID.TID 0000.0001) // =======================================================
(PID.TID 0000.0001) // End MONITOR dynamic field statistics
(PID.TID 0000.0001) // =======================================================
(PID.TID 0000.0001) // =======================================================
(PID.TID 0000.0001) // Begin OBCS MONITOR field statistics
(PID.TID 0000.0001) // =======================================================
(PID.TID 0000.0001) %MON obc_E_uVel_max               =   8.3425460755825E-02
(PID.TID 0000.0001) %MON obc_E_uVel_min               =  -6.0310755670071E-02
(PID.TID 0000.0001) %MON obc_E_uVel_mean              =   7.3554947677044E-03
(PID.TID 0000.0001) %MON obc_E_uVel_sd                =   1.4304154443492E-02
(PID.TID 0000.0001) %MON obc_E_uVel_Int               =   1.2610707943785E+08
(PID.TID 0000.0001) %MON obc_W_uVel_max               =   5.9991145133972E-02
(PID.TID 0000.0001) %MON obc_W_uVel_min               =  -2.5740600004792E-02
(PID.TID 0000.0001) %MON obc_W_uVel_mean              =   6.9974153800331E-03
(PID.TID 0000.0001) %MON obc_W_uVel_sd                =   1.1127673018781E-02
(PID.TID 0000.0001) %MON obc_W_uVel_Int               =   1.3077666021251E+08
(PID.TID 0000.0001) %MON obc_N_vVel_max               =   4.7148257493973E-02
(PID.TID 0000.0001) %MON obc_N_vVel_min               =  -7.0764410495758E-02
(PID.TID 0000.0001) %MON obc_N_vVel_mean              =   1.5466347545728E-04
(PID.TID 0000.0001) %MON obc_N_vVel_sd                =   6.4336033808868E-03
(PID.TID 0000.0001) %MON obc_N_vVel_Int               =   4.5214084825912E+06
(PID.TID 0000.0001) %MON obc_E_theta_max              =   1.9312948989868E+01
(PID.TID 0000.0001) %MON obc_E_theta_min              =  -1.5910426139832E+00
(PID.TID 0000.0001) %MON obc_E_theta_mean             =   1.9094109467191E+00
(PID.TID 0000.0001) %MON obc_E_theta_sd               =   2.9680727207563E+00
(PID.TID 0000.0001) %MON obc_W_theta_max              =   2.1525777435303E+01
(PID.TID 0000.0001) %MON obc_W_theta_min              =  -1.4422561645508E+00
(PID.TID 0000.0001) %MON obc_W_theta_mean             =   2.4667050325388E+00
(PID.TID 0000.0001) %MON obc_W_theta_sd               =   2.9624842527631E+00
(PID.TID 0000.0001) %MON obc_N_theta_max              =   2.4097963333130E+01
(PID.TID 0000.0001) %MON obc_N_theta_min              =  -6.3343899250031E-01
(PID.TID 0000.0001) %MON obc_N_theta_mean             =   4.8722921175379E+00
(PID.TID 0000.0001) %MON obc_N_theta_sd               =   4.7062402932228E+00
(PID.TID 0000.0001) // =======================================================
(PID.TID 0000.0001) // End OBCS MONITOR field statistics
(PID.TID 0000.0001) // =======================================================
(PID.TID 0000.0001) // =======================================================
(PID.TID 0000.0001) // Begin MONITOR ptracer field statistics
(PID.TID 0000.0001) // =======================================================
(PID.TID 0000.0001) %MON trcstat_ptracer01_max        =   2.3591423270171E+00
(PID.TID 0000.0001) %MON trcstat_ptracer01_min        =   1.9366531841830E+00
(PID.TID 0000.0001) %MON trcstat_ptracer01_mean       =   2.2425219891098E+00
(PID.TID 0000.0001) %MON trcstat_ptracer01_sd         =   7.6000825702899E-02
(PID.TID 0000.0001) %MON trcstat_ptracer01_del2       =   1.0647897467383E-04
(PID.TID 0000.0001) %MON trcstat_ptracer02_max        =   2.4116857829109E+00
(PID.TID 0000.0001) %MON trcstat_ptracer02_min        =   2.1901274555592E+00
(PID.TID 0000.0001) %MON trcstat_ptracer02_mean       =   2.3520466131658E+00
(PID.TID 0000.0001) %MON trcstat_ptracer02_sd         =   3.5090031711922E-02
(PID.TID 0000.0001) %MON trcstat_ptracer02_del2       =   8.0602607409021E-05
(PID.TID 0000.0001) %MON trcstat_ptracer03_max        =   2.7654846341588E-03
(PID.TID 0000.0001) %MON trcstat_ptracer03_min        =   4.7172826999541E-05
(PID.TID 0000.0001) %MON trcstat_ptracer03_mean       =   2.0556228024326E-03
(PID.TID 0000.0001) %MON trcstat_ptracer03_sd         =   5.0332391962271E-04
(PID.TID 0000.0001) %MON trcstat_ptracer03_del2       =   6.6897035785438E-07
(PID.TID 0000.0001) %MON trcstat_ptracer04_max        =   2.5867373024591E-04
(PID.TID 0000.0001) %MON trcstat_ptracer04_min        =  -7.6625129981406E-07
(PID.TID 0000.0001) %MON trcstat_ptracer04_mean       =   6.2494700959211E-06
(PID.TID 0000.0001) %MON trcstat_ptracer04_sd         =   2.6336582712857E-05
(PID.TID 0000.0001) %MON trcstat_ptracer04_del2       =   1.3421065392920E-07
(PID.TID 0000.0001) %MON trcstat_ptracer05_max        =   3.8380040823710E-01
(PID.TID 0000.0001) %MON trcstat_ptracer05_min        =   8.2429655708252E-02
(PID.TID 0000.0001) %MON trcstat_ptracer05_mean       =   2.1412205397569E-01
(PID.TID 0000.0001) %MON trcstat_ptracer05_sd         =   4.3038381157008E-02
(PID.TID 0000.0001) %MON trcstat_ptracer05_del2       =   1.1800080654530E-04
(PID.TID 0000.0001) // =======================================================
(PID.TID 0000.0001) // End MONITOR ptracers field statistics
(PID.TID 0000.0001) // =======================================================
 EXTERNAL_FIELDS_LOAD,         6 : iP,iLd,i0,i1=   12    1   12    1 ; Wght=  0.4000000000  0.6000000000
 DIC_FIELDS_LOAD,         6 : iP,iLd,i0,i1=   12    1   12    1 ; Wght=  0.4000000000  0.6000000000
 OBCS_FIELDS_LOAD,         7 : iP,iLd,i0,i1=   12    1   12    1 ; Wght=  0.3833333333  0.6166666667
 cg2d: Sum(rhs),rhsMax =   3.68074301550214E+01  9.92642448786730E-01
(PID.TID 0000.0001)      cg2d_init_res =   9.67818023167619E-03
(PID.TID 0000.0001)      cg2d_iters(min,last) =      -1      76
(PID.TID 0000.0001)      cg2d_last_res =   5.61356601344656E-14
(PID.TID 0000.0001) // =======================================================
(PID.TID 0000.0001) // Begin MONITOR dynamic field statistics
(PID.TID 0000.0001) // =======================================================
(PID.TID 0000.0001) %MON time_tsnumber                =                     7
(PID.TID 0000.0001) %MON time_secondsf                =   3.0240000000000E+05
(PID.TID 0000.0001) %MON dynstat_eta_max              =   4.7008106519611E-01
(PID.TID 0000.0001) %MON dynstat_eta_min              =  -1.5146775749598E+00
(PID.TID 0000.0001) %MON dynstat_eta_mean             =  -5.1643169504890E-01
(PID.TID 0000.0001) %MON dynstat_eta_sd               =   6.1656733459346E-01
(PID.TID 0000.0001) %MON dynstat_eta_del2             =   2.3756765429368E-03
(PID.TID 0000.0001) %MON dynstat_uvel_max             =   1.3159765754242E-01
(PID.TID 0000.0001) %MON dynstat_uvel_min             =  -6.0234536975622E-02
(PID.TID 0000.0001) %MON dynstat_uvel_mean            =   7.5695103794253E-03
(PID.TID 0000.0001) %MON dynstat_uvel_sd              =   1.4681330089115E-02
(PID.TID 0000.0001) %MON dynstat_uvel_del2            =   1.6174305717656E-04
(PID.TID 0000.0001) %MON dynstat_vvel_max             =   1.2991340263215E-01
(PID.TID 0000.0001) %MON dynstat_vvel_min             =  -8.8511799774139E-02
(PID.TID 0000.0001) %MON dynstat_vvel_mean            =   9.2437862859792E-04
(PID.TID 0000.0001) %MON dynstat_vvel_sd              =   8.4766780757673E-03
(PID.TID 0000.0001) %MON dynstat_vvel_del2            =   1.0616134270546E-04
(PID.TID 0000.0001) %MON dynstat_wvel_max             =   5.5103833278779E-05
(PID.TID 0000.0001) %MON dynstat_wvel_min             =  -1.4087470086020E-04
(PID.TID 0000.0001) %MON dynstat_wvel_mean            =  -2.4321604356707E-07
(PID.TID 0000.0001) %MON dynstat_wvel_sd              =   5.4473953131716E-06
(PID.TID 0000.0001) %MON dynstat_wvel_del2            =   1.4063565223416E-07
(PID.TID 0000.0001) %MON dynstat_theta_max            =   2.4273136344714E+01
(PID.TID 0000.0001) %MON dynstat_theta_min            =  -2.8964216396834E+00
(PID.TID 0000.0001) %MON dynstat_theta_mean           =   2.3238206533726E+00
(PID.TID 0000.0001) %MON dynstat_theta_sd             =   3.2164965291096E+00
(PID.TID 0000.0001) %MON dynstat_theta_del2           =   6.6269562665548E-03
(PID.TID 0000.0001) %MON dynstat_salt_max             =   3.6602048807536E+01
(PID.TID 0000.0001) %MON dynstat_salt_min             =   3.3076225669671E+01
(PID.TID 0000.0001) %MON dynstat_salt_mean            =   3.4483939801185E+01
(PID.TID 0000.0001) %MON dynstat_salt_sd              =   1.9650792897861E-01
(PID.TID 0000.0001) %MON dynstat_salt_del2            =   1.1546602343412E-03
(PID.TID 0000.0001) %MON forcing_qnet_max             =   6.8508172607422E+01
(PID.TID 0000.0001) %MON forcing_qnet_min             =  -2.1064372558594E+02
(PID.TID 0000.0001) %MON forcing_qnet_mean            =  -1.1955390927556E+02
(PID.TID 0000.0001) %MON forcing_qnet_sd              =   4.3905712423966E+01
(PID.TID 0000.0001) %MON forcing_qnet_del2            =   8.4229375591307E-01
(PID.TID 0000.0001) %MON forcing_qsw_max              =   0.0000000000000E+00
(PID.TID 0000.0001) %MON forcing_qsw_min              =   0.0000000000000E+00
(PID.TID 0000.0001) %MON forcing_qsw_mean             =   0.0000000000000E+00
(PID.TID 0000.0001) %MON forcing_qsw_sd               =   0.0000000000000E+00
(PID.TID 0000.0001) %MON forcing_qsw_del2             =   0.0000000000000E+00
(PID.TID 0000.0001) %MON forcing_empmr_max            =   2.5141471127199E-05
(PID.TID 0000.0001) %MON forcing_empmr_min            =  -3.9761445691511E-05
(PID.TID 0000.0001) %MON forcing_empmr_mean           =  -9.3236499820974E-06
(PID.TID 0000.0001) %MON forcing_empmr_sd             =   1.0249687273683E-05
(PID.TID 0000.0001) %MON forcing_empmr_del2           =   9.8755541425843E-08
(PID.TID 0000.0001) %MON forcing_fu_max               =   2.1268687546253E-01
(PID.TID 0000.0001) %MON forcing_fu_min               =  -9.3030621111393E-02
(PID.TID 0000.0001) %MON forcing_fu_mean              =   7.5501595942040E-02
(PID.TID 0000.0001) %MON forcing_fu_sd                =   7.1436912347776E-02
(PID.TID 0000.0001) %MON forcing_fu_del2              =   5.5725630261794E-04
(PID.TID 0000.0001) %MON forcing_fv_max               =   1.4932866692543E-01
(PID.TID 0000.0001) %MON forcing_fv_min               =  -7.6012732088566E-02
(PID.TID 0000.0001) %MON forcing_fv_mean              =  -1.9238337351042E-02
(PID.TID 0000.0001) %MON forcing_fv_sd                =   3.3489000856457E-02
(PID.TID 0000.0001) %MON forcing_fv_del2              =   3.7319319925167E-04
(PID.TID 0000.0001) %MON advcfl_uvel_max              =   3.3983704965208E-02
(PID.TID 0000.0001) %MON advcfl_vvel_max              =   1.7948508850451E-02
(PID.TID 0000.0001) %MON advcfl_wvel_max              =   1.6673389252495E-02
(PID.TID 0000.0001) %MON advcfl_W_hf_max              =   1.7899373756355E-02
(PID.TID 0000.0001) %MON pe_b_mean                    =   8.7154814810678E-04
(PID.TID 0000.0001) %MON ke_max                       =   9.4102991907659E-03
(PID.TID 0000.0001) %MON ke_mean                      =   1.6378194905914E-04
(PID.TID 0000.0001) %MON ke_vol                       =   1.2769337095763E+17
(PID.TID 0000.0001) %MON vort_r_min                   =  -4.7538312146136E-07
(PID.TID 0000.0001) %MON vort_r_max                   =   7.0780499724176E-07
(PID.TID 0000.0001) %MON vort_a_mean                  =  -1.0457492338949E-04
(PID.TID 0000.0001) %MON vort_a_sd                    =   2.1292692094140E-05
(PID.TID 0000.0001) %MON vort_p_mean                  =  -1.2574624063424E-04
(PID.TID 0000.0001) %MON vort_p_sd                    =   1.1183802341423E-04
(PID.TID 0000.0001) %MON surfExpan_theta_mean         =   8.7499050927880E-08
(PID.TID 0000.0001) %MON surfExpan_salt_mean          =   1.5572833546518E-07
(PID.TID 0000.0001) // =======================================================
(PID.TID 0000.0001) // End MONITOR dynamic field statistics
(PID.TID 0000.0001) // =======================================================
(PID.TID 0000.0001) // =======================================================
(PID.TID 0000.0001) // Begin OBCS MONITOR field statistics
(PID.TID 0000.0001) // =======================================================
(PID.TID 0000.0001) %MON obc_E_uVel_max               =   8.3291068176428E-02
(PID.TID 0000.0001) %MON obc_E_uVel_min               =  -6.0234536975622E-02
(PID.TID 0000.0001) %MON obc_E_uVel_mean              =   7.3536620415026E-03
(PID.TID 0000.0001) %MON obc_E_uVel_sd                =   1.4304842863392E-02
(PID.TID 0000.0001) %MON obc_E_uVel_Int               =   1.2607565806430E+08
(PID.TID 0000.0001) %MON obc_W_uVel_max               =   6.0039183621605E-02
(PID.TID 0000.0001) %MON obc_W_uVel_min               =  -2.5742980123808E-02
(PID.TID 0000.0001) %MON obc_W_uVel_mean              =   6.9930409885435E-03
(PID.TID 0000.0001) %MON obc_W_uVel_sd                =   1.1131690601760E-02
(PID.TID 0000.0001) %MON obc_W_uVel_Int               =   1.3069490598207E+08
(PID.TID 0000.0001) %MON obc_N_vVel_max               =   4.7094848317405E-02
(PID.TID 0000.0001) %MON obc_N_vVel_min               =  -7.0816007504861E-02
(PID.TID 0000.0001) %MON obc_N_vVel_mean              =   1.5290327582159E-04
(PID.TID 0000.0001) %MON obc_N_vVel_sd                =   6.4323161884926E-03
(PID.TID 0000.0001) %MON obc_N_vVel_Int               =   4.4699510745618E+06
(PID.TID 0000.0001) %MON obc_E_theta_max              =   1.9334424591064E+01
(PID.TID 0000.0001) %MON obc_E_theta_min              =  -1.5823890785376E+00
(PID.TID 0000.0001) %MON obc_E_theta_mean             =   1.9093998092044E+00
(PID.TID 0000.0001) %MON obc_E_theta_sd               =   2.9685521370964E+00
(PID.TID 0000.0001) %MON obc_W_theta_max              =   2.1545968564351E+01
(PID.TID 0000.0001) %MON obc_W_theta_min              =  -1.4423383812110E+00
(PID.TID 0000.0001) %MON obc_W_theta_mean             =   2.4669222704193E+00
(PID.TID 0000.0001) %MON obc_W_theta_sd               =   2.9630285564427E+00
(PID.TID 0000.0001) %MON obc_N_theta_max              =   2.4118851343791E+01
(PID.TID 0000.0001) %MON obc_N_theta_min              =  -6.3394157191118E-01
(PID.TID 0000.0001) %MON obc_N_theta_mean             =   4.8725040102309E+00
(PID.TID 0000.0001) %MON obc_N_theta_sd               =   4.7071257566199E+00
(PID.TID 0000.0001) // =======================================================
(PID.TID 0000.0001) // End OBCS MONITOR field statistics
(PID.TID 0000.0001) // =======================================================
(PID.TID 0000.0001) // =======================================================
(PID.TID 0000.0001) // Begin MONITOR ptracer field statistics
(PID.TID 0000.0001) // =======================================================
(PID.TID 0000.0001) %MON trcstat_ptracer01_max        =   2.3591428981781E+00
(PID.TID 0000.0001) %MON trcstat_ptracer01_min        =   1.9366337958079E+00
(PID.TID 0000.0001) %MON trcstat_ptracer01_mean       =   2.2425205995893E+00
(PID.TID 0000.0001) %MON trcstat_ptracer01_sd         =   7.6004112962585E-02
(PID.TID 0000.0001) %MON trcstat_ptracer01_del2       =   1.0639963971459E-04
(PID.TID 0000.0001) %MON trcstat_ptracer02_max        =   2.4116864372710E+00
(PID.TID 0000.0001) %MON trcstat_ptracer02_min        =   2.1901664360926E+00
(PID.TID 0000.0001) %MON trcstat_ptracer02_mean       =   2.3520468641210E+00
(PID.TID 0000.0001) %MON trcstat_ptracer02_sd         =   3.5089877055529E-02
(PID.TID 0000.0001) %MON trcstat_ptracer02_del2       =   8.0595958758317E-05
(PID.TID 0000.0001) %MON trcstat_ptracer03_max        =   2.7654880567485E-03
(PID.TID 0000.0001) %MON trcstat_ptracer03_min        =   4.7129273142016E-05
(PID.TID 0000.0001) %MON trcstat_ptracer03_mean       =   2.0556131589714E-03
(PID.TID 0000.0001) %MON trcstat_ptracer03_sd         =   5.0334020349478E-04
(PID.TID 0000.0001) %MON trcstat_ptracer03_del2       =   6.6861700568416E-07
(PID.TID 0000.0001) %MON trcstat_ptracer04_max        =   2.5899480803230E-04
(PID.TID 0000.0001) %MON trcstat_ptracer04_min        =  -7.7022530970579E-07
(PID.TID 0000.0001) %MON trcstat_ptracer04_mean       =   6.2575902640001E-06
(PID.TID 0000.0001) %MON trcstat_ptracer04_sd         =   2.6376303058419E-05
(PID.TID 0000.0001) %MON trcstat_ptracer04_del2       =   1.3412930754338E-07
(PID.TID 0000.0001) %MON trcstat_ptracer05_max        =   3.8383443643592E-01
(PID.TID 0000.0001) %MON trcstat_ptracer05_min        =   8.2438590483755E-02
(PID.TID 0000.0001) %MON trcstat_ptracer05_mean       =   2.1412024990320E-01
(PID.TID 0000.0001) %MON trcstat_ptracer05_sd         =   4.3035833871360E-02
(PID.TID 0000.0001) %MON trcstat_ptracer05_del2       =   1.1780447975458E-04
(PID.TID 0000.0001) // =======================================================
(PID.TID 0000.0001) // End MONITOR ptracers field statistics
(PID.TID 0000.0001) // =======================================================
 EXTERNAL_FIELDS_LOAD,         7 : iP,iLd,i0,i1=   12    1   12    1 ; Wght=  0.3833333333  0.6166666667
 DIC_FIELDS_LOAD,         7 : iP,iLd,i0,i1=   12    1   12    1 ; Wght=  0.3833333333  0.6166666667
 OBCS_FIELDS_LOAD,         8 : iP,iLd,i0,i1=   12    1   12    1 ; Wght=  0.3666666667  0.6333333333
 cg2d: Sum(rhs),rhsMax =   3.67609180744363E+01  9.93541857101000E-01
(PID.TID 0000.0001)      cg2d_init_res =   1.38807595303725E-02
(PID.TID 0000.0001)      cg2d_iters(min,last) =      -1      76
(PID.TID 0000.0001)      cg2d_last_res =   7.28273105043483E-14
(PID.TID 0000.0001) // =======================================================
(PID.TID 0000.0001) // Begin MONITOR dynamic field statistics
(PID.TID 0000.0001) // =======================================================
(PID.TID 0000.0001) %MON time_tsnumber                =                     8
(PID.TID 0000.0001) %MON time_secondsf                =   3.4560000000000E+05
(PID.TID 0000.0001) %MON dynstat_eta_max              =   4.6723536497607E-01
(PID.TID 0000.0001) %MON dynstat_eta_min              =  -1.5132080757543E+00
(PID.TID 0000.0001) %MON dynstat_eta_mean             =  -5.1624643537434E-01
(PID.TID 0000.0001) %MON dynstat_eta_sd               =   6.1540913193987E-01
(PID.TID 0000.0001) %MON dynstat_eta_del2             =   2.3769577727386E-03
(PID.TID 0000.0001) %MON dynstat_uvel_max             =   1.3184375173849E-01
(PID.TID 0000.0001) %MON dynstat_uvel_min             =  -6.0158318281174E-02
(PID.TID 0000.0001) %MON dynstat_uvel_mean            =   7.5844790515267E-03
(PID.TID 0000.0001) %MON dynstat_uvel_sd              =   1.4691681115239E-02
(PID.TID 0000.0001) %MON dynstat_uvel_del2            =   1.6165719148398E-04
(PID.TID 0000.0001) %MON dynstat_vvel_max             =   1.3001700092231E-01
(PID.TID 0000.0001) %MON dynstat_vvel_min             =  -8.8481552609680E-02
(PID.TID 0000.0001) %MON dynstat_vvel_mean            =   9.1626110527409E-04
(PID.TID 0000.0001) %MON dynstat_vvel_sd              =   8.4875135541304E-03
(PID.TID 0000.0001) %MON dynstat_vvel_del2            =   1.0613049146976E-04
(PID.TID 0000.0001) %MON dynstat_wvel_max             =   5.5090002988363E-05
(PID.TID 0000.0001) %MON dynstat_wvel_min             =  -1.4076607694850E-04
(PID.TID 0000.0001) %MON dynstat_wvel_mean            =  -2.4321248346036E-07
(PID.TID 0000.0001) %MON dynstat_wvel_sd              =   5.4515180270606E-06
(PID.TID 0000.0001) %MON dynstat_wvel_del2            =   1.4073681914374E-07
(PID.TID 0000.0001) %MON dynstat_theta_max            =   2.4289604917873E+01
(PID.TID 0000.0001) %MON dynstat_theta_min            =  -2.8964598657543E+00
(PID.TID 0000.0001) %MON dynstat_theta_mean           =   2.3241374181710E+00
(PID.TID 0000.0001) %MON dynstat_theta_sd             =   3.2173838587216E+00
(PID.TID 0000.0001) %MON dynstat_theta_del2           =   6.6243773847626E-03
(PID.TID 0000.0001) %MON dynstat_salt_max             =   3.6602221012721E+01
(PID.TID 0000.0001) %MON dynstat_salt_min             =   3.3074878196556E+01
(PID.TID 0000.0001) %MON dynstat_salt_mean            =   3.4483940230520E+01
(PID.TID 0000.0001) %MON dynstat_salt_sd              =   1.9651534080036E-01
(PID.TID 0000.0001) %MON dynstat_salt_del2            =   1.1540770021512E-03
(PID.TID 0000.0001) %MON forcing_qnet_max             =   6.8543742370605E+01
(PID.TID 0000.0001) %MON forcing_qnet_min             =  -2.1021701151530E+02
(PID.TID 0000.0001) %MON forcing_qnet_mean            =  -1.1927901406368E+02
(PID.TID 0000.0001) %MON forcing_qnet_sd              =   4.3773378415024E+01
(PID.TID 0000.0001) %MON forcing_qnet_del2            =   8.4369299028848E-01
(PID.TID 0000.0001) %MON forcing_qsw_max              =   0.0000000000000E+00
(PID.TID 0000.0001) %MON forcing_qsw_min              =   0.0000000000000E+00
(PID.TID 0000.0001) %MON forcing_qsw_mean             =   0.0000000000000E+00
(PID.TID 0000.0001) %MON forcing_qsw_sd               =   0.0000000000000E+00
(PID.TID 0000.0001) %MON forcing_qsw_del2             =   0.0000000000000E+00
(PID.TID 0000.0001) %MON forcing_empmr_max            =   2.5141471127199E-05
(PID.TID 0000.0001) %MON forcing_empmr_min            =  -3.9761445691511E-05
(PID.TID 0000.0001) %MON forcing_empmr_mean           =  -9.3236499820974E-06
(PID.TID 0000.0001) %MON forcing_empmr_sd             =   1.0249687273683E-05
(PID.TID 0000.0001) %MON forcing_empmr_del2           =   9.8755541425843E-08
(PID.TID 0000.0001) %MON forcing_fu_max               =   2.1288872435689E-01
(PID.TID 0000.0001) %MON forcing_fu_min               =  -9.3446923047304E-02
(PID.TID 0000.0001) %MON forcing_fu_mean              =   7.5400847023540E-02
(PID.TID 0000.0001) %MON forcing_fu_sd                =   7.1476380419357E-02
(PID.TID 0000.0001) %MON forcing_fu_del2              =   5.5840575540377E-04
(PID.TID 0000.0001) %MON forcing_fv_max               =   1.4901993647218E-01
(PID.TID 0000.0001) %MON forcing_fv_min               =  -7.6058066760500E-02
(PID.TID 0000.0001) %MON forcing_fv_mean              =  -1.9179298461445E-02
(PID.TID 0000.0001) %MON forcing_fv_sd                =   3.3479034351115E-02
(PID.TID 0000.0001) %MON forcing_fv_del2              =   3.7281199587619E-04
(PID.TID 0000.0001) %MON advcfl_uvel_max              =   3.4047256191796E-02
(PID.TID 0000.0001) %MON advcfl_vvel_max              =   1.7962821729570E-02
(PID.TID 0000.0001) %MON advcfl_wvel_max              =   1.6660532942946E-02
(PID.TID 0000.0001) %MON advcfl_W_hf_max              =   1.7885572129927E-02
(PID.TID 0000.0001) %MON pe_b_mean                    =   8.6936786355899E-04
(PID.TID 0000.0001) %MON ke_max                       =   9.4375168068003E-03
(PID.TID 0000.0001) %MON ke_mean                      =   1.6412107367389E-04
(PID.TID 0000.0001) %MON ke_vol                       =   1.2769337095763E+17
(PID.TID 0000.0001) %MON vort_r_min                   =  -4.7489606858036E-07
(PID.TID 0000.0001) %MON vort_r_max                   =   7.0834847859320E-07
(PID.TID 0000.0001) %MON vort_a_mean                  =  -1.0457492287436E-04
(PID.TID 0000.0001) %MON vort_a_sd                    =   2.1292700168765E-05
(PID.TID 0000.0001) %MON vort_p_mean                  =  -1.2574624001482E-04
(PID.TID 0000.0001) %MON vort_p_sd                    =   1.1183801666247E-04
(PID.TID 0000.0001) %MON surfExpan_theta_mean         =  -3.7780077551611E-08
(PID.TID 0000.0001) %MON surfExpan_salt_mean          =   1.6198243314544E-07
(PID.TID 0000.0001) // =======================================================
(PID.TID 0000.0001) // End MONITOR dynamic field statistics
(PID.TID 0000.0001) // =======================================================
(PID.TID 0000.0001) // =======================================================
(PID.TID 0000.0001) // Begin OBCS MONITOR field statistics
(PID.TID 0000.0001) // =======================================================
(PID.TID 0000.0001) %MON obc_E_uVel_max               =   8.3156675597032E-02
(PID.TID 0000.0001) %MON obc_E_uVel_min               =  -6.0158318281174E-02
(PID.TID 0000.0001) %MON obc_E_uVel_mean              =   7.3518293153007E-03
(PID.TID 0000.0001) %MON obc_E_uVel_sd                =   1.4305543175280E-02
(PID.TID 0000.0001) %MON obc_E_uVel_Int               =   1.2604423669076E+08
(PID.TID 0000.0001) %MON obc_W_uVel_max               =   6.0087222109238E-02
(PID.TID 0000.0001) %MON obc_W_uVel_min               =  -2.5745360242824E-02
(PID.TID 0000.0001) %MON obc_W_uVel_mean              =   6.9886665970540E-03
(PID.TID 0000.0001) %MON obc_W_uVel_sd                =   1.1135721097065E-02
(PID.TID 0000.0001) %MON obc_W_uVel_Int               =   1.3061315175163E+08
(PID.TID 0000.0001) %MON obc_N_vVel_max               =   4.7041439140836E-02
(PID.TID 0000.0001) %MON obc_N_vVel_min               =  -7.0867604513963E-02
(PID.TID 0000.0001) %MON obc_N_vVel_mean              =   1.5114307618590E-04
(PID.TID 0000.0001) %MON obc_N_vVel_sd                =   6.4310455804353E-03
(PID.TID 0000.0001) %MON obc_N_vVel_Int               =   4.4184936665323E+06
(PID.TID 0000.0001) %MON obc_E_theta_max              =   1.9355900192261E+01
(PID.TID 0000.0001) %MON obc_E_theta_min              =  -1.5737355430921E+00
(PID.TID 0000.0001) %MON obc_E_theta_mean             =   1.9093886716897E+00
(PID.TID 0000.0001) %MON obc_E_theta_sd               =   2.9690329507524E+00
(PID.TID 0000.0001) %MON obc_W_theta_max              =   2.1566159693400E+01
(PID.TID 0000.0001) %MON obc_W_theta_min              =  -1.4424205978711E+00
(PID.TID 0000.0001) %MON obc_W_theta_mean             =   2.4671395082998E+00
(PID.TID 0000.0001) %MON obc_W_theta_sd               =   2.9635737850715E+00
(PID.TID 0000.0001) %MON obc_N_theta_max              =   2.4139739354451E+01
(PID.TID 0000.0001) %MON obc_N_theta_min              =  -6.3444415132205E-01
(PID.TID 0000.0001) %MON obc_N_theta_mean             =   4.8727159029239E+00
(PID.TID 0000.0001) %MON obc_N_theta_sd               =   4.7080121583499E+00
(PID.TID 0000.0001) // =======================================================
(PID.TID 0000.0001) // End OBCS MONITOR field statistics
(PID.TID 0000.0001) // =======================================================
(PID.TID 0000.0001) // =======================================================
(PID.TID 0000.0001) // Begin MONITOR ptracer field statistics
(PID.TID 0000.0001) // =======================================================
(PID.TID 0000.0001) %MON trcstat_ptracer01_max        =   2.3591434698774E+00
(PID.TID 0000.0001) %MON trcstat_ptracer01_min        =   1.9366144421010E+00
(PID.TID 0000.0001) %MON trcstat_ptracer01_mean       =   2.2425191817669E+00
(PID.TID 0000.0001) %MON trcstat_ptracer01_sd         =   7.6007478446124E-02
(PID.TID 0000.0001) %MON trcstat_ptracer01_del2       =   1.0632242553379E-04
(PID.TID 0000.0001) %MON trcstat_ptracer02_max        =   2.4116871152751E+00
(PID.TID 0000.0001) %MON trcstat_ptracer02_min        =   2.1902043877327E+00
(PID.TID 0000.0001) %MON trcstat_ptracer02_mean       =   2.3520470945809E+00
(PID.TID 0000.0001) %MON trcstat_ptracer02_sd         =   3.5089755148295E-02
(PID.TID 0000.0001) %MON trcstat_ptracer02_del2       =   8.0588976916388E-05
(PID.TID 0000.0001) %MON trcstat_ptracer03_max        =   2.7654914783520E-03
(PID.TID 0000.0001) %MON trcstat_ptracer03_min        =   4.7086011373559E-05
(PID.TID 0000.0001) %MON trcstat_ptracer03_mean       =   2.0556033590687E-03
(PID.TID 0000.0001) %MON trcstat_ptracer03_sd         =   5.0335684743620E-04
(PID.TID 0000.0001) %MON trcstat_ptracer03_del2       =   6.6828207742435E-07
(PID.TID 0000.0001) %MON trcstat_ptracer04_max        =   2.5931118414272E-04
(PID.TID 0000.0001) %MON trcstat_ptracer04_min        =  -7.7420934168350E-07
(PID.TID 0000.0001) %MON trcstat_ptracer04_mean       =   6.2656759290506E-06
(PID.TID 0000.0001) %MON trcstat_ptracer04_sd         =   2.6415874771732E-05
(PID.TID 0000.0001) %MON trcstat_ptracer04_del2       =   1.3405812279090E-07
(PID.TID 0000.0001) %MON trcstat_ptracer05_max        =   3.8386684828878E-01
(PID.TID 0000.0001) %MON trcstat_ptracer05_min        =   8.2449250721310E-02
(PID.TID 0000.0001) %MON trcstat_ptracer05_mean       =   2.1411842877034E-01
(PID.TID 0000.0001) %MON trcstat_ptracer05_sd         =   4.3033256739442E-02
(PID.TID 0000.0001) %MON trcstat_ptracer05_del2       =   1.1761424193581E-04
(PID.TID 0000.0001) // =======================================================
(PID.TID 0000.0001) // End MONITOR ptracers field statistics
(PID.TID 0000.0001) // =======================================================
 EXTERNAL_FIELDS_LOAD,         8 : iP,iLd,i0,i1=   12    1   12    1 ; Wght=  0.3666666667  0.6333333333
 DIC_FIELDS_LOAD,         8 : iP,iLd,i0,i1=   12    1   12    1 ; Wght=  0.3666666667  0.6333333333
 OBCS_FIELDS_LOAD,         9 : iP,iLd,i0,i1=   12    1   12    1 ; Wght=  0.3500000000  0.6500000000
 cg2d: Sum(rhs),rhsMax =   3.67312203274166E+01  9.93985653357528E-01
(PID.TID 0000.0001)      cg2d_init_res =   1.78714566347514E-02
(PID.TID 0000.0001)      cg2d_iters(min,last) =      -1      77
(PID.TID 0000.0001)      cg2d_last_res =   7.07449220248937E-14
(PID.TID 0000.0001) // =======================================================
(PID.TID 0000.0001) // Begin MONITOR dynamic field statistics
(PID.TID 0000.0001) // =======================================================
(PID.TID 0000.0001) %MON time_tsnumber                =                     9
(PID.TID 0000.0001) %MON time_secondsf                =   3.8880000000000E+05
(PID.TID 0000.0001) %MON dynstat_eta_max              =   4.6188295381628E-01
(PID.TID 0000.0001) %MON dynstat_eta_min              =  -1.5105381190454E+00
(PID.TID 0000.0001) %MON dynstat_eta_mean             =  -5.1605979069747E-01
(PID.TID 0000.0001) %MON dynstat_eta_sd               =   6.1355378384906E-01
(PID.TID 0000.0001) %MON dynstat_eta_del2             =   2.3768604243972E-03
(PID.TID 0000.0001) %MON dynstat_uvel_max             =   1.3207882409837E-01
(PID.TID 0000.0001) %MON dynstat_uvel_min             =  -6.0082099586725E-02
(PID.TID 0000.0001) %MON dynstat_uvel_mean            =   7.5988230765453E-03
(PID.TID 0000.0001) %MON dynstat_uvel_sd              =   1.4700264721465E-02
(PID.TID 0000.0001) %MON dynstat_uvel_del2            =   1.6157611435575E-04
(PID.TID 0000.0001) %MON dynstat_vvel_max             =   1.3011535745598E-01
(PID.TID 0000.0001) %MON dynstat_vvel_min             =  -8.8444901322574E-02
(PID.TID 0000.0001) %MON dynstat_vvel_mean            =   9.1241750449551E-04
(PID.TID 0000.0001) %MON dynstat_vvel_sd              =   8.4967950695218E-03
(PID.TID 0000.0001) %MON dynstat_vvel_del2            =   1.0609380448029E-04
(PID.TID 0000.0001) %MON dynstat_wvel_max             =   5.5079523696981E-05
(PID.TID 0000.0001) %MON dynstat_wvel_min             =  -1.4064975274829E-04
(PID.TID 0000.0001) %MON dynstat_wvel_mean            =  -2.4320892335365E-07
(PID.TID 0000.0001) %MON dynstat_wvel_sd              =   5.4544864209945E-06
(PID.TID 0000.0001) %MON dynstat_wvel_del2            =   1.4082365022982E-07
(PID.TID 0000.0001) %MON dynstat_theta_max            =   2.4306104930293E+01
(PID.TID 0000.0001) %MON dynstat_theta_min            =  -2.8964871861477E+00
(PID.TID 0000.0001) %MON dynstat_theta_mean           =   2.3244549100803E+00
(PID.TID 0000.0001) %MON dynstat_theta_sd             =   3.2182751879220E+00
(PID.TID 0000.0001) %MON dynstat_theta_del2           =   6.6218581067712E-03
(PID.TID 0000.0001) %MON dynstat_salt_max             =   3.6602391437169E+01
(PID.TID 0000.0001) %MON dynstat_salt_min             =   3.3073456244647E+01
(PID.TID 0000.0001) %MON dynstat_salt_mean            =   3.4483940599069E+01
(PID.TID 0000.0001) %MON dynstat_salt_sd              =   1.9652251996430E-01
(PID.TID 0000.0001) %MON dynstat_salt_del2            =   1.1534995544742E-03
(PID.TID 0000.0001) %MON forcing_qnet_max             =   6.8579312133789E+01
(PID.TID 0000.0001) %MON forcing_qnet_min             =  -2.0979029744466E+02
(PID.TID 0000.0001) %MON forcing_qnet_mean            =  -1.1900411885181E+02
(PID.TID 0000.0001) %MON forcing_qnet_sd              =   4.3644764804007E+01
(PID.TID 0000.0001) %MON forcing_qnet_del2            =   8.4514071241070E-01
(PID.TID 0000.0001) %MON forcing_qsw_max              =   0.0000000000000E+00
(PID.TID 0000.0001) %MON forcing_qsw_min              =   0.0000000000000E+00
(PID.TID 0000.0001) %MON forcing_qsw_mean             =   0.0000000000000E+00
(PID.TID 0000.0001) %MON forcing_qsw_sd               =   0.0000000000000E+00
(PID.TID 0000.0001) %MON forcing_qsw_del2             =   0.0000000000000E+00
(PID.TID 0000.0001) %MON forcing_empmr_max            =   2.5141471127199E-05
(PID.TID 0000.0001) %MON forcing_empmr_min            =  -3.9761445691511E-05
(PID.TID 0000.0001) %MON forcing_empmr_mean           =  -9.3236499820974E-06
(PID.TID 0000.0001) %MON forcing_empmr_sd             =   1.0249687273683E-05
(PID.TID 0000.0001) %MON forcing_empmr_del2           =   9.8755541425843E-08
(PID.TID 0000.0001) %MON forcing_fu_max               =   2.1309057325125E-01
(PID.TID 0000.0001) %MON forcing_fu_min               =  -9.3863224983215E-02
(PID.TID 0000.0001) %MON forcing_fu_mean              =   7.5300098105040E-02
(PID.TID 0000.0001) %MON forcing_fu_sd                =   7.1516621127784E-02
(PID.TID 0000.0001) %MON forcing_fu_del2              =   5.5959845502938E-04
(PID.TID 0000.0001) %MON forcing_fv_max               =   1.4871120601892E-01
(PID.TID 0000.0001) %MON forcing_fv_min               =  -7.6119570682446E-02
(PID.TID 0000.0001) %MON forcing_fv_mean              =  -1.9120259571849E-02
(PID.TID 0000.0001) %MON forcing_fv_sd                =   3.3469790026933E-02
(PID.TID 0000.0001) %MON forcing_fv_del2              =   3.7246826249842E-04
(PID.TID 0000.0001) %MON advcfl_uvel_max              =   3.4107961145615E-02
(PID.TID 0000.0001) %MON advcfl_vvel_max              =   1.7976410420800E-02
(PID.TID 0000.0001) %MON advcfl_wvel_max              =   1.6646765256784E-02
(PID.TID 0000.0001) %MON advcfl_W_hf_max              =   1.7870792113900E-02
(PID.TID 0000.0001) %MON pe_b_mean                    =   8.6603607747074E-04
(PID.TID 0000.0001) %MON ke_max                       =   9.4633213657969E-03
(PID.TID 0000.0001) %MON ke_mean                      =   1.6442186705882E-04
(PID.TID 0000.0001) %MON ke_vol                       =   1.2769337095763E+17
(PID.TID 0000.0001) %MON vort_r_min                   =  -4.7439238151693E-07
(PID.TID 0000.0001) %MON vort_r_max                   =   7.0861943366490E-07
(PID.TID 0000.0001) %MON vort_a_mean                  =  -1.0457492235923E-04
(PID.TID 0000.0001) %MON vort_a_sd                    =   2.1292708323084E-05
(PID.TID 0000.0001) %MON vort_p_mean                  =  -1.2574623939540E-04
(PID.TID 0000.0001) %MON vort_p_sd                    =   1.1183801272312E-04
(PID.TID 0000.0001) %MON surfExpan_theta_mean         =  -9.8017408805907E-08
(PID.TID 0000.0001) %MON surfExpan_salt_mean          =   1.6840134834569E-07
(PID.TID 0000.0001) // =======================================================
(PID.TID 0000.0001) // End MONITOR dynamic field statistics
(PID.TID 0000.0001) // =======================================================
(PID.TID 0000.0001) // =======================================================
(PID.TID 0000.0001) // Begin OBCS MONITOR field statistics
(PID.TID 0000.0001) // =======================================================
(PID.TID 0000.0001) %MON obc_E_uVel_max               =   8.3022283017635E-02
(PID.TID 0000.0001) %MON obc_E_uVel_min               =  -6.0082099586725E-02
(PID.TID 0000.0001) %MON obc_E_uVel_mean              =   7.3499965890989E-03
(PID.TID 0000.0001) %MON obc_E_uVel_sd                =   1.4306255377412E-02
(PID.TID 0000.0001) %MON obc_E_uVel_Int               =   1.2601281531721E+08
(PID.TID 0000.0001) %MON obc_W_uVel_max               =   6.0135260596871E-02
(PID.TID 0000.0001) %MON obc_W_uVel_min               =  -2.5747740361840E-02
(PID.TID 0000.0001) %MON obc_W_uVel_mean              =   6.9842922055644E-03
(PID.TID 0000.0001) %MON obc_W_uVel_sd                =   1.1139764490681E-02
(PID.TID 0000.0001) %MON obc_W_uVel_Int               =   1.3053139752119E+08
(PID.TID 0000.0001) %MON obc_N_vVel_max               =   4.6988029964268E-02
(PID.TID 0000.0001) %MON obc_N_vVel_min               =  -7.0919201523066E-02
(PID.TID 0000.0001) %MON obc_N_vVel_mean              =   1.4938287655021E-04
(PID.TID 0000.0001) %MON obc_N_vVel_sd                =   6.4297915665466E-03
(PID.TID 0000.0001) %MON obc_N_vVel_Int               =   4.3670362585028E+06
(PID.TID 0000.0001) %MON obc_E_theta_max              =   1.9377375793457E+01
(PID.TID 0000.0001) %MON obc_E_theta_min              =  -1.5650820076466E+00
(PID.TID 0000.0001) %MON obc_E_theta_mean             =   1.9093775341749E+00
(PID.TID 0000.0001) %MON obc_E_theta_sd               =   2.9695151610455E+00
(PID.TID 0000.0001) %MON obc_W_theta_max              =   2.1586350822449E+01
(PID.TID 0000.0001) %MON obc_W_theta_min              =  -1.4425028145313E+00
(PID.TID 0000.0001) %MON obc_W_theta_mean             =   2.4673567461802E+00
(PID.TID 0000.0001) %MON obc_W_theta_sd               =   2.9641199381389E+00
(PID.TID 0000.0001) %MON obc_N_theta_max              =   2.4160627365112E+01
(PID.TID 0000.0001) %MON obc_N_theta_min              =  -6.3494673073292E-01
(PID.TID 0000.0001) %MON obc_N_theta_mean             =   4.8729277956169E+00
(PID.TID 0000.0001) %MON obc_N_theta_sd               =   4.7088994978830E+00
(PID.TID 0000.0001) // =======================================================
(PID.TID 0000.0001) // End OBCS MONITOR field statistics
(PID.TID 0000.0001) // =======================================================
(PID.TID 0000.0001) // =======================================================
(PID.TID 0000.0001) // Begin MONITOR ptracer field statistics
(PID.TID 0000.0001) // =======================================================
(PID.TID 0000.0001) %MON trcstat_ptracer01_max        =   2.3591440409050E+00
(PID.TID 0000.0001) %MON trcstat_ptracer01_min        =   1.9365951204836E+00
(PID.TID 0000.0001) %MON trcstat_ptracer01_mean       =   2.2425177418510E+00
(PID.TID 0000.0001) %MON trcstat_ptracer01_sd         =   7.6010904907189E-02
(PID.TID 0000.0001) %MON trcstat_ptracer01_del2       =   1.0624655396192E-04
(PID.TID 0000.0001) %MON trcstat_ptracer02_max        =   2.4116878145545E+00
(PID.TID 0000.0001) %MON trcstat_ptracer02_min        =   2.1902408235866E+00
(PID.TID 0000.0001) %MON trcstat_ptracer02_mean       =   2.3520473085618E+00
(PID.TID 0000.0001) %MON trcstat_ptracer02_sd         =   3.5089659149330E-02
(PID.TID 0000.0001) %MON trcstat_ptracer02_del2       =   8.0581703628719E-05
(PID.TID 0000.0001) %MON trcstat_ptracer03_max        =   2.7654948919494E-03
(PID.TID 0000.0001) %MON trcstat_ptracer03_min        =   4.7043037965988E-05
(PID.TID 0000.0001) %MON trcstat_ptracer03_mean       =   2.0555934422713E-03
(PID.TID 0000.0001) %MON trcstat_ptracer03_sd         =   5.0337375684901E-04
(PID.TID 0000.0001) %MON trcstat_ptracer03_del2       =   6.6795591988983E-07
(PID.TID 0000.0001) %MON trcstat_ptracer04_max        =   2.5962277598367E-04
(PID.TID 0000.0001) %MON trcstat_ptracer04_min        =  -7.7821378166286E-07
(PID.TID 0000.0001) %MON trcstat_ptracer04_mean       =   6.2737255897973E-06
(PID.TID 0000.0001) %MON trcstat_ptracer04_sd         =   2.6455291107743E-05
(PID.TID 0000.0001) %MON trcstat_ptracer04_del2       =   1.3399377651976E-07
(PID.TID 0000.0001) %MON trcstat_ptracer05_max        =   3.8389779926146E-01
(PID.TID 0000.0001) %MON trcstat_ptracer05_min        =   8.2461096381123E-02
(PID.TID 0000.0001) %MON trcstat_ptracer05_mean       =   2.1411659367813E-01
(PID.TID 0000.0001) %MON trcstat_ptracer05_sd         =   4.3030656002462E-02
(PID.TID 0000.0001) %MON trcstat_ptracer05_del2       =   1.1742855155811E-04
(PID.TID 0000.0001) // =======================================================
(PID.TID 0000.0001) // End MONITOR ptracers field statistics
(PID.TID 0000.0001) // =======================================================
 EXTERNAL_FIELDS_LOAD,         9 : iP,iLd,i0,i1=   12    1   12    1 ; Wght=  0.3500000000  0.6500000000
 DIC_FIELDS_LOAD,         9 : iP,iLd,i0,i1=   12    1   12    1 ; Wght=  0.3500000000  0.6500000000
 OBCS_FIELDS_LOAD,        10 : iP,iLd,i0,i1=   12    1   12    1 ; Wght=  0.3333333333  0.6666666667
 cg2d: Sum(rhs),rhsMax =   3.67227792917983E+01  9.93851880945147E-01
(PID.TID 0000.0001)      cg2d_init_res =   2.01899465669666E-02
(PID.TID 0000.0001)      cg2d_iters(min,last) =      -1      76
(PID.TID 0000.0001)      cg2d_last_res =   6.96835802748625E-14
(PID.TID 0000.0001) // =======================================================
(PID.TID 0000.0001) // Begin MONITOR dynamic field statistics
(PID.TID 0000.0001) // =======================================================
(PID.TID 0000.0001) %MON time_tsnumber                =                    10
(PID.TID 0000.0001) %MON time_secondsf                =   4.3200000000000E+05
(PID.TID 0000.0001) %MON dynstat_eta_max              =   4.5495146813191E-01
(PID.TID 0000.0001) %MON dynstat_eta_min              =  -1.5066528418582E+00
(PID.TID 0000.0001) %MON dynstat_eta_mean             =  -5.1587176101829E-01
(PID.TID 0000.0001) %MON dynstat_eta_sd               =   6.1142533727477E-01
(PID.TID 0000.0001) %MON dynstat_eta_del2             =   2.3752778367485E-03
(PID.TID 0000.0001) %MON dynstat_uvel_max             =   1.3229128585363E-01
(PID.TID 0000.0001) %MON dynstat_uvel_min             =  -6.0005880892277E-02
(PID.TID 0000.0001) %MON dynstat_uvel_mean            =   7.6103312429381E-03
(PID.TID 0000.0001) %MON dynstat_uvel_sd              =   1.4706749526433E-02
(PID.TID 0000.0001) %MON dynstat_uvel_del2            =   1.6149725675726E-04
(PID.TID 0000.0001) %MON dynstat_vvel_max             =   1.3020377539174E-01
(PID.TID 0000.0001) %MON dynstat_vvel_min             =  -8.8402110726863E-02
(PID.TID 0000.0001) %MON dynstat_vvel_mean            =   9.1197097927158E-04
(PID.TID 0000.0001) %MON dynstat_vvel_sd              =   8.5038229349660E-03
(PID.TID 0000.0001) %MON dynstat_vvel_del2            =   1.0604696742966E-04
(PID.TID 0000.0001) %MON dynstat_wvel_max             =   5.5072411404939E-05
(PID.TID 0000.0001) %MON dynstat_wvel_min             =  -1.4052859622018E-04
(PID.TID 0000.0001) %MON dynstat_wvel_mean            =  -2.4320536324694E-07
(PID.TID 0000.0001) %MON dynstat_wvel_sd              =   5.4558857007698E-06
(PID.TID 0000.0001) %MON dynstat_wvel_del2            =   1.4087891938885E-07
(PID.TID 0000.0001) %MON dynstat_theta_max            =   2.4322649951257E+01
(PID.TID 0000.0001) %MON dynstat_theta_min            =  -2.8965031130308E+00
(PID.TID 0000.0001) %MON dynstat_theta_mean           =   2.3247721883562E+00
(PID.TID 0000.0001) %MON dynstat_theta_sd             =   3.2191682574255E+00
(PID.TID 0000.0001) %MON dynstat_theta_del2           =   6.6193985504275E-03
(PID.TID 0000.0001) %MON dynstat_salt_max             =   3.6602560423703E+01
(PID.TID 0000.0001) %MON dynstat_salt_min             =   3.3071971867600E+01
(PID.TID 0000.0001) %MON dynstat_salt_mean            =   3.4483940892459E+01
(PID.TID 0000.0001) %MON dynstat_salt_sd              =   1.9652954654874E-01
(PID.TID 0000.0001) %MON dynstat_salt_del2            =   1.1529285753811E-03
(PID.TID 0000.0001) %MON forcing_qnet_max             =   6.8614881896973E+01
(PID.TID 0000.0001) %MON forcing_qnet_min             =  -2.0936358337402E+02
(PID.TID 0000.0001) %MON forcing_qnet_mean            =  -1.1872922363993E+02
(PID.TID 0000.0001) %MON forcing_qnet_sd              =   4.3519904575408E+01
(PID.TID 0000.0001) %MON forcing_qnet_del2            =   8.4663667354220E-01
(PID.TID 0000.0001) %MON forcing_qsw_max              =   0.0000000000000E+00
(PID.TID 0000.0001) %MON forcing_qsw_min              =   0.0000000000000E+00
(PID.TID 0000.0001) %MON forcing_qsw_mean             =   0.0000000000000E+00
(PID.TID 0000.0001) %MON forcing_qsw_sd               =   0.0000000000000E+00
(PID.TID 0000.0001) %MON forcing_qsw_del2             =   0.0000000000000E+00
(PID.TID 0000.0001) %MON forcing_empmr_max            =   2.5141471127199E-05
(PID.TID 0000.0001) %MON forcing_empmr_min            =  -3.9761445691511E-05
(PID.TID 0000.0001) %MON forcing_empmr_mean           =  -9.3236499820974E-06
(PID.TID 0000.0001) %MON forcing_empmr_sd             =   1.0249687273683E-05
(PID.TID 0000.0001) %MON forcing_empmr_del2           =   9.8755541425843E-08
(PID.TID 0000.0001) %MON forcing_fu_max               =   2.1329242214561E-01
(PID.TID 0000.0001) %MON forcing_fu_min               =  -9.4279526919127E-02
(PID.TID 0000.0001) %MON forcing_fu_mean              =   7.5199349186540E-02
(PID.TID 0000.0001) %MON forcing_fu_sd                =   7.1557633169571E-02
(PID.TID 0000.0001) %MON forcing_fu_del2              =   5.6083412558175E-04
(PID.TID 0000.0001) %MON forcing_fv_max               =   1.4840247556567E-01
(PID.TID 0000.0001) %MON forcing_fv_min               =  -7.6181074604392E-02
(PID.TID 0000.0001) %MON forcing_fv_mean              =  -1.9061220682252E-02
(PID.TID 0000.0001) %MON forcing_fv_sd                =   3.3461268482461E-02
(PID.TID 0000.0001) %MON forcing_fv_del2              =   3.7216210294159E-04
(PID.TID 0000.0001) %MON advcfl_uvel_max              =   3.4162827149630E-02
(PID.TID 0000.0001) %MON advcfl_vvel_max              =   1.7988626020348E-02
(PID.TID 0000.0001) %MON advcfl_wvel_max              =   1.6632425634827E-02
(PID.TID 0000.0001) %MON advcfl_W_hf_max              =   1.7855398107976E-02
(PID.TID 0000.0001) %MON pe_b_mean                    =   8.6226167350384E-04
(PID.TID 0000.0001) %MON ke_max                       =   9.4860880054326E-03
(PID.TID 0000.0001) %MON ke_mean                      =   1.6465658681107E-04
(PID.TID 0000.0001) %MON ke_vol                       =   1.2769337095763E+17
(PID.TID 0000.0001) %MON vort_r_min                   =  -4.7387570898136E-07
(PID.TID 0000.0001) %MON vort_r_max                   =   7.0858610076746E-07
(PID.TID 0000.0001) %MON vort_a_mean                  =  -1.0457492184410E-04
(PID.TID 0000.0001) %MON vort_a_sd                    =   2.1292715264401E-05
(PID.TID 0000.0001) %MON vort_p_mean                  =  -1.2574623877598E-04
(PID.TID 0000.0001) %MON vort_p_sd                    =   1.1183801085560E-04
(PID.TID 0000.0001) %MON surfExpan_theta_mean         =  -1.0081652361952E-07
(PID.TID 0000.0001) %MON surfExpan_salt_mean          =   1.7523576523519E-07
(PID.TID 0000.0001) // =======================================================
(PID.TID 0000.0001) // End MONITOR dynamic field statistics
(PID.TID 0000.0001) // =======================================================
(PID.TID 0000.0001) // =======================================================
(PID.TID 0000.0001) // Begin OBCS MONITOR field statistics
(PID.TID 0000.0001) // =======================================================
(PID.TID 0000.0001) %MON obc_E_uVel_max               =   8.2887890438239E-02
(PID.TID 0000.0001) %MON obc_E_uVel_min               =  -6.0005880892277E-02
(PID.TID 0000.0001) %MON obc_E_uVel_mean              =   7.3481638628970E-03
(PID.TID 0000.0001) %MON obc_E_uVel_sd                =   1.4306979468011E-02
(PID.TID 0000.0001) %MON obc_E_uVel_Int               =   1.2598139394366E+08
(PID.TID 0000.0001) %MON obc_W_uVel_max               =   6.0183299084504E-02
(PID.TID 0000.0001) %MON obc_W_uVel_min               =  -2.5750120480855E-02
(PID.TID 0000.0001) %MON obc_W_uVel_mean              =   6.9799178140749E-03
(PID.TID 0000.0001) %MON obc_W_uVel_sd                =   1.1143820768569E-02
(PID.TID 0000.0001) %MON obc_W_uVel_Int               =   1.3044964329075E+08
(PID.TID 0000.0001) %MON obc_N_vVel_max               =   4.6934620787700E-02
(PID.TID 0000.0001) %MON obc_N_vVel_min               =  -7.0970798532168E-02
(PID.TID 0000.0001) %MON obc_N_vVel_mean              =   1.4762267691452E-04
(PID.TID 0000.0001) %MON obc_N_vVel_sd                =   6.4285541565376E-03
(PID.TID 0000.0001) %MON obc_N_vVel_Int               =   4.3155788504734E+06
(PID.TID 0000.0001) %MON obc_E_theta_max              =   1.9398851394653E+01
(PID.TID 0000.0001) %MON obc_E_theta_min              =  -1.5564284722010E+00
(PID.TID 0000.0001) %MON obc_E_theta_mean             =   1.9093663966602E+00
(PID.TID 0000.0001) %MON obc_E_theta_sd               =   2.9699987672955E+00
(PID.TID 0000.0001) %MON obc_W_theta_max              =   2.1606541951497E+01
(PID.TID 0000.0001) %MON obc_W_theta_min              =  -1.4425850311915E+00
(PID.TID 0000.0001) %MON obc_W_theta_mean             =   2.4675739840607E+00
(PID.TID 0000.0001) %MON obc_W_theta_sd               =   2.9646670151341E+00
(PID.TID 0000.0001) %MON obc_N_theta_max              =   2.4181515375773E+01
(PID.TID 0000.0001) %MON obc_N_theta_min              =  -6.3544931014379E-01
(PID.TID 0000.0001) %MON obc_N_theta_mean             =   4.8731396883099E+00
(PID.TID 0000.0001) %MON obc_N_theta_sd               =   4.7097877746890E+00
(PID.TID 0000.0001) // =======================================================
(PID.TID 0000.0001) // End OBCS MONITOR field statistics
(PID.TID 0000.0001) // =======================================================
(PID.TID 0000.0001) // =======================================================
(PID.TID 0000.0001) // Begin MONITOR ptracer field statistics
(PID.TID 0000.0001) // =======================================================
(PID.TID 0000.0001) %MON trcstat_ptracer01_max        =   2.3591446098518E+00
(PID.TID 0000.0001) %MON trcstat_ptracer01_min        =   1.9365758292629E+00
(PID.TID 0000.0001) %MON trcstat_ptracer01_mean       =   2.2425162884091E+00
(PID.TID 0000.0001) %MON trcstat_ptracer01_sd         =   7.6014368575179E-02
(PID.TID 0000.0001) %MON trcstat_ptracer01_del2       =   1.0617168056106E-04
(PID.TID 0000.0001) %MON trcstat_ptracer02_max        =   2.4116885332542E+00
(PID.TID 0000.0001) %MON trcstat_ptracer02_min        =   2.1902759013826E+00
(PID.TID 0000.0001) %MON trcstat_ptracer02_mean       =   2.3520475102802E+00
(PID.TID 0000.0001) %MON trcstat_ptracer02_sd         =   3.5089581130883E-02
(PID.TID 0000.0001) %MON trcstat_ptracer02_del2       =   8.0574140683373E-05
(PID.TID 0000.0001) %MON trcstat_ptracer03_max        =   2.7654982893173E-03
(PID.TID 0000.0001) %MON trcstat_ptracer03_min        =   4.7000349588165E-05
(PID.TID 0000.0001) %MON trcstat_ptracer03_mean       =   2.0555834686070E-03
(PID.TID 0000.0001) %MON trcstat_ptracer03_sd         =   5.0339078388031E-04
(PID.TID 0000.0001) %MON trcstat_ptracer03_del2       =   6.6763473263976E-07
(PID.TID 0000.0001) %MON trcstat_ptracer04_max        =   2.5992982256490E-04
(PID.TID 0000.0001) %MON trcstat_ptracer04_min        =  -7.8225528728406E-07
(PID.TID 0000.0001) %MON trcstat_ptracer04_mean       =   6.2817398117705E-06
(PID.TID 0000.0001) %MON trcstat_ptracer04_sd         =   2.6494556302499E-05
(PID.TID 0000.0001) %MON trcstat_ptracer04_del2       =   1.3393528382358E-07
(PID.TID 0000.0001) %MON trcstat_ptracer05_max        =   3.8392749043023E-01
(PID.TID 0000.0001) %MON trcstat_ptracer05_min        =   8.2473362613114E-02
(PID.TID 0000.0001) %MON trcstat_ptracer05_mean       =   2.1411474981322E-01
(PID.TID 0000.0001) %MON trcstat_ptracer05_sd         =   4.3028041559675E-02
(PID.TID 0000.0001) %MON trcstat_ptracer05_del2       =   1.1724655488839E-04
(PID.TID 0000.0001) // =======================================================
(PID.TID 0000.0001) // End MONITOR ptracers field statistics
(PID.TID 0000.0001) // =======================================================
 Compute Stats, Diag. #     23  ETAN      vol(   0 ): 3.508E+14  Parms: SM      M1      
 Compute Stats, Diag. #     25  DETADT2   vol(   0 ): 3.508E+14  Parms: SM      M1      
 Compute Stats, Diag. #     26  THETA     vol(   0 ): 1.277E+18  Parms: SMR     MR      
 Compute Stats, Diag. #     27  SALT      vol(   0 ): 1.277E+18  Parms: SMR     MR      
 Compute Stats, Diag. #     77  CONVADJ   vol(   0 ): 1.242E+18  Parms: SMR     LR      
 Compute Stats, Diag. #     30  UVEL      vol(   0 ): 1.242E+18  Parms: UUR     MR      
 Compute Stats, Diag. #     31  VVEL      vol(   0 ): 1.225E+18  Parms: VVR     MR      
 Compute Stats, Diag. #     32  WVEL      vol(   0 ): 1.242E+18  Parms: WM      LR      
 Compute Stats, Diag. #    200  GM_PsiX   vol(   0 ): 1.211E+18  Parms: UU      LR      
 Compute Stats, Diag. #    201  GM_PsiY   vol(   0 ): 1.200E+18  Parms: VV      LR      
 Compute Stats, Diag. #    209  TRAC01    vol(   0 ): 1.277E+18  Parms: SMR     MR      
 Compute Stats, Diag. #    222  TRAC02    vol(   0 ): 1.277E+18  Parms: SMR     MR      
 Compute Stats, Diag. #    235  TRAC03    vol(   0 ): 1.277E+18  Parms: SMR     MR      
 Compute Stats, Diag. #    248  TRAC04    vol(   0 ): 1.277E+18  Parms: SMR     MR      
 Compute Stats, Diag. #    261  TRAC05    vol(   0 ): 1.277E+18  Parms: SMR     MR      
(PID.TID 0000.0001) DIAGSTATS_CLOSE_IO: close file: dynStDiag.0000000000.txt , unit=     9
(PID.TID 0000.0001) %CHECKPOINT        10 ckptA
(PID.TID 0000.0001)   Seconds in section "ALL                    [THE_MODEL_MAIN]":
(PID.TID 0000.0001)           User time:   7.1699999999999999
(PID.TID 0000.0001)         System time:  7.00000000000000067E-002
(PID.TID 0000.0001)     Wall clock time:   7.2700099945068359
(PID.TID 0000.0001)          No. starts:           1
(PID.TID 0000.0001)           No. stops:           1
(PID.TID 0000.0001)   Seconds in section "INITIALISE_FIXED       [THE_MODEL_MAIN]":
(PID.TID 0000.0001)           User time:  5.99999999999999978E-002
(PID.TID 0000.0001)         System time:  1.00000000000000002E-002
(PID.TID 0000.0001)     Wall clock time:  7.78889656066894531E-002
(PID.TID 0000.0001)          No. starts:           1
(PID.TID 0000.0001)           No. stops:           1
(PID.TID 0000.0001)   Seconds in section "THE_MAIN_LOOP          [THE_MODEL_MAIN]":
(PID.TID 0000.0001)           User time:   7.1100000000000003
(PID.TID 0000.0001)         System time:  6.00000000000000047E-002
(PID.TID 0000.0001)     Wall clock time:   7.1920828819274902
(PID.TID 0000.0001)          No. starts:           1
(PID.TID 0000.0001)           No. stops:           1
(PID.TID 0000.0001)   Seconds in section "INITIALISE_VARIA    [THE_MAIN_LOOP]":
(PID.TID 0000.0001)           User time:  0.13000000000000000
(PID.TID 0000.0001)         System time:  1.99999999999999969E-002
(PID.TID 0000.0001)     Wall clock time:  0.14281702041625977
(PID.TID 0000.0001)          No. starts:           1
(PID.TID 0000.0001)           No. stops:           1
(PID.TID 0000.0001)   Seconds in section "MAIN LOOP           [THE_MAIN_LOOP]":
(PID.TID 0000.0001)           User time:   6.9799999999999995
(PID.TID 0000.0001)         System time:  4.00000000000000078E-002
(PID.TID 0000.0001)     Wall clock time:   7.0492329597473145
(PID.TID 0000.0001)          No. starts:           1
(PID.TID 0000.0001)           No. stops:           1
(PID.TID 0000.0001)   Seconds in section "MAIN_DO_LOOP        [THE_MAIN_LOOP]":
(PID.TID 0000.0001)           User time:   6.9800000000000013
(PID.TID 0000.0001)         System time:  4.00000000000000078E-002
(PID.TID 0000.0001)     Wall clock time:   7.0491352081298828
(PID.TID 0000.0001)          No. starts:          10
(PID.TID 0000.0001)           No. stops:          10
(PID.TID 0000.0001)   Seconds in section "FORWARD_STEP        [MAIN_DO_LOOP]":
(PID.TID 0000.0001)           User time:   6.9800000000000013
(PID.TID 0000.0001)         System time:  4.00000000000000078E-002
(PID.TID 0000.0001)     Wall clock time:   7.0489561557769775
(PID.TID 0000.0001)          No. starts:          10
(PID.TID 0000.0001)           No. stops:          10
(PID.TID 0000.0001)   Seconds in section "DO_STATEVARS_DIAGS  [FORWARD_STEP]":
(PID.TID 0000.0001)           User time:  0.13999999999999968
(PID.TID 0000.0001)         System time:   0.0000000000000000
(PID.TID 0000.0001)     Wall clock time:  0.16463518142700195
(PID.TID 0000.0001)          No. starts:          20
(PID.TID 0000.0001)           No. stops:          20
(PID.TID 0000.0001)   Seconds in section "LOAD_FIELDS_DRIVER  [FORWARD_STEP]":
(PID.TID 0000.0001)           User time:  1.00000000000006750E-002
(PID.TID 0000.0001)         System time:   0.0000000000000000
(PID.TID 0000.0001)     Wall clock time:  9.27829742431640625E-003
(PID.TID 0000.0001)          No. starts:          10
(PID.TID 0000.0001)           No. stops:          10
(PID.TID 0000.0001)   Seconds in section "EXTERNAL_FLDS_LOAD [LOAD_FLDS_DRIVER]":
(PID.TID 0000.0001)           User time:  1.00000000000006750E-002
(PID.TID 0000.0001)         System time:   0.0000000000000000
(PID.TID 0000.0001)     Wall clock time:  6.05320930480957031E-003
(PID.TID 0000.0001)          No. starts:          10
(PID.TID 0000.0001)           No. stops:          10
(PID.TID 0000.0001)   Seconds in section "DO_ATMOSPHERIC_PHYS [FORWARD_STEP]":
(PID.TID 0000.0001)           User time:   0.0000000000000000
(PID.TID 0000.0001)         System time:   0.0000000000000000
(PID.TID 0000.0001)     Wall clock time:  9.67979431152343750E-005
(PID.TID 0000.0001)          No. starts:          10
(PID.TID 0000.0001)           No. stops:          10
(PID.TID 0000.0001)   Seconds in section "DO_OCEANIC_PHYS     [FORWARD_STEP]":
(PID.TID 0000.0001)           User time:  0.54999999999999982
(PID.TID 0000.0001)         System time:   0.0000000000000000
(PID.TID 0000.0001)     Wall clock time:  0.55464172363281250
(PID.TID 0000.0001)          No. starts:          10
(PID.TID 0000.0001)           No. stops:          10
(PID.TID 0000.0001)   Seconds in section "GCHEM_CALC_TENDENCY [FORWARD_STEP]":
(PID.TID 0000.0001)           User time:   0.0000000000000000
(PID.TID 0000.0001)         System time:   0.0000000000000000
(PID.TID 0000.0001)     Wall clock time:  9.32216644287109375E-005
(PID.TID 0000.0001)          No. starts:          10
(PID.TID 0000.0001)           No. stops:          10
(PID.TID 0000.0001)   Seconds in section "THERMODYNAMICS      [FORWARD_STEP]":
(PID.TID 0000.0001)           User time:   4.3600000000000003
(PID.TID 0000.0001)         System time:   0.0000000000000000
(PID.TID 0000.0001)     Wall clock time:   4.3606963157653809
(PID.TID 0000.0001)          No. starts:          10
(PID.TID 0000.0001)           No. stops:          10
(PID.TID 0000.0001)   Seconds in section "DYNAMICS            [FORWARD_STEP]":
(PID.TID 0000.0001)           User time:  0.88999999999999968
(PID.TID 0000.0001)         System time:   0.0000000000000000
(PID.TID 0000.0001)     Wall clock time:  0.89606475830078125
(PID.TID 0000.0001)          No. starts:          10
(PID.TID 0000.0001)           No. stops:          10
(PID.TID 0000.0001)   Seconds in section "SOLVE_FOR_PRESSURE  [FORWARD_STEP]":
(PID.TID 0000.0001)           User time:  0.33000000000000096
(PID.TID 0000.0001)         System time:   0.0000000000000000
(PID.TID 0000.0001)     Wall clock time:  0.31961464881896973
(PID.TID 0000.0001)          No. starts:          10
(PID.TID 0000.0001)           No. stops:          10
(PID.TID 0000.0001)   Seconds in section "MOM_CORRECTION_STEP [FORWARD_STEP]":
(PID.TID 0000.0001)           User time:  2.99999999999993605E-002
(PID.TID 0000.0001)         System time:   0.0000000000000000
(PID.TID 0000.0001)     Wall clock time:  3.30431461334228516E-002
(PID.TID 0000.0001)          No. starts:          10
(PID.TID 0000.0001)           No. stops:          10
(PID.TID 0000.0001)   Seconds in section "INTEGR_CONTINUITY   [FORWARD_STEP]":
(PID.TID 0000.0001)           User time:  4.99999999999998224E-002
(PID.TID 0000.0001)         System time:   0.0000000000000000
(PID.TID 0000.0001)     Wall clock time:  5.29050827026367188E-002
(PID.TID 0000.0001)          No. starts:          10
(PID.TID 0000.0001)           No. stops:          10
(PID.TID 0000.0001)   Seconds in section "TRC_CORRECTION_STEP [FORWARD_STEP]":
(PID.TID 0000.0001)           User time:   0.0000000000000000
(PID.TID 0000.0001)         System time:   0.0000000000000000
(PID.TID 0000.0001)     Wall clock time:  1.02043151855468750E-004
(PID.TID 0000.0001)          No. starts:          10
(PID.TID 0000.0001)           No. stops:          10
(PID.TID 0000.0001)   Seconds in section "GCHEM_FORCING_SEP  [FORWARD_STEP]":
(PID.TID 0000.0001)           User time:  0.16999999999999993
(PID.TID 0000.0001)         System time:   0.0000000000000000
(PID.TID 0000.0001)     Wall clock time:  0.16498112678527832
(PID.TID 0000.0001)          No. starts:          10
(PID.TID 0000.0001)           No. stops:          10
(PID.TID 0000.0001)   Seconds in section "BLOCKING_EXCHANGES  [FORWARD_STEP]":
(PID.TID 0000.0001)           User time:  8.00000000000000711E-002
(PID.TID 0000.0001)         System time:   0.0000000000000000
(PID.TID 0000.0001)     Wall clock time:  8.62381458282470703E-002
(PID.TID 0000.0001)          No. starts:          10
(PID.TID 0000.0001)           No. stops:          10
(PID.TID 0000.0001)   Seconds in section "MONITOR             [FORWARD_STEP]":
(PID.TID 0000.0001)           User time:  0.23000000000000131
(PID.TID 0000.0001)         System time:   0.0000000000000000
(PID.TID 0000.0001)     Wall clock time:  0.22035908699035645
(PID.TID 0000.0001)          No. starts:          10
(PID.TID 0000.0001)           No. stops:          10
(PID.TID 0000.0001)   Seconds in section "DO_THE_MODEL_IO     [FORWARD_STEP]":
(PID.TID 0000.0001)           User time:  0.12999999999999901
(PID.TID 0000.0001)         System time:  2.00000000000000039E-002
(PID.TID 0000.0001)     Wall clock time:  0.14866018295288086
(PID.TID 0000.0001)          No. starts:          10
(PID.TID 0000.0001)           No. stops:          10
(PID.TID 0000.0001)   Seconds in section "PTRACERS_RESET      [FORWARD_STEP]":
(PID.TID 0000.0001)           User time:   0.0000000000000000
(PID.TID 0000.0001)         System time:   0.0000000000000000
(PID.TID 0000.0001)     Wall clock time:  1.05857849121093750E-004
(PID.TID 0000.0001)          No. starts:          10
(PID.TID 0000.0001)           No. stops:          10
(PID.TID 0000.0001)   Seconds in section "DO_WRITE_PICKUP     [FORWARD_STEP]":
(PID.TID 0000.0001)           User time:  9.99999999999978684E-003
(PID.TID 0000.0001)         System time:  2.00000000000000039E-002
(PID.TID 0000.0001)     Wall clock time:  3.56020927429199219E-002
(PID.TID 0000.0001)          No. starts:          10
(PID.TID 0000.0001)           No. stops:          10
(PID.TID 0000.0001) // ======================================================
(PID.TID 0000.0001) // Tile <-> Tile communication statistics
(PID.TID 0000.0001) // ======================================================
(PID.TID 0000.0001) // o Tile number: 000001
(PID.TID 0000.0001) //         No. X exchanges =              0
(PID.TID 0000.0001) //            Max. X spins =              0
(PID.TID 0000.0001) //            Min. X spins =     1000000000
(PID.TID 0000.0001) //          Total. X spins =              0
(PID.TID 0000.0001) //            Avg. X spins =       0.00E+00
(PID.TID 0000.0001) //         No. Y exchanges =              0
(PID.TID 0000.0001) //            Max. Y spins =              0
(PID.TID 0000.0001) //            Min. Y spins =     1000000000
(PID.TID 0000.0001) //          Total. Y spins =              0
(PID.TID 0000.0001) //            Avg. Y spins =       0.00E+00
(PID.TID 0000.0001) // o Tile number: 000002
(PID.TID 0000.0001) //         No. X exchanges =              0
(PID.TID 0000.0001) //            Max. X spins =              0
(PID.TID 0000.0001) //            Min. X spins =     1000000000
(PID.TID 0000.0001) //          Total. X spins =              0
(PID.TID 0000.0001) //            Avg. X spins =       0.00E+00
(PID.TID 0000.0001) //         No. Y exchanges =              0
(PID.TID 0000.0001) //            Max. Y spins =              0
(PID.TID 0000.0001) //            Min. Y spins =     1000000000
(PID.TID 0000.0001) //          Total. Y spins =              0
(PID.TID 0000.0001) //            Avg. Y spins =       0.00E+00
(PID.TID 0000.0001) // o Tile number: 000003
(PID.TID 0000.0001) //         No. X exchanges =              0
(PID.TID 0000.0001) //            Max. X spins =              0
(PID.TID 0000.0001) //            Min. X spins =     1000000000
(PID.TID 0000.0001) //          Total. X spins =              0
(PID.TID 0000.0001) //            Avg. X spins =       0.00E+00
(PID.TID 0000.0001) //         No. Y exchanges =              0
(PID.TID 0000.0001) //            Max. Y spins =              0
(PID.TID 0000.0001) //            Min. Y spins =     1000000000
(PID.TID 0000.0001) //          Total. Y spins =              0
(PID.TID 0000.0001) //            Avg. Y spins =       0.00E+00
(PID.TID 0000.0001) // o Tile number: 000004
(PID.TID 0000.0001) //         No. X exchanges =              0
(PID.TID 0000.0001) //            Max. X spins =              0
(PID.TID 0000.0001) //            Min. X spins =     1000000000
(PID.TID 0000.0001) //          Total. X spins =              0
(PID.TID 0000.0001) //            Avg. X spins =       0.00E+00
(PID.TID 0000.0001) //         No. Y exchanges =              0
(PID.TID 0000.0001) //            Max. Y spins =              0
(PID.TID 0000.0001) //            Min. Y spins =     1000000000
(PID.TID 0000.0001) //          Total. Y spins =              0
(PID.TID 0000.0001) //            Avg. Y spins =       0.00E+00
(PID.TID 0000.0001) // o Tile number: 000005
(PID.TID 0000.0001) //         No. X exchanges =              0
(PID.TID 0000.0001) //            Max. X spins =              0
(PID.TID 0000.0001) //            Min. X spins =     1000000000
(PID.TID 0000.0001) //          Total. X spins =              0
(PID.TID 0000.0001) //            Avg. X spins =       0.00E+00
(PID.TID 0000.0001) //         No. Y exchanges =              0
(PID.TID 0000.0001) //            Max. Y spins =              0
(PID.TID 0000.0001) //            Min. Y spins =     1000000000
(PID.TID 0000.0001) //          Total. Y spins =              0
(PID.TID 0000.0001) //            Avg. Y spins =       0.00E+00
(PID.TID 0000.0001) // o Tile number: 000006
(PID.TID 0000.0001) //         No. X exchanges =              0
(PID.TID 0000.0001) //            Max. X spins =              0
(PID.TID 0000.0001) //            Min. X spins =     1000000000
(PID.TID 0000.0001) //          Total. X spins =              0
(PID.TID 0000.0001) //            Avg. X spins =       0.00E+00
(PID.TID 0000.0001) //         No. Y exchanges =              0
(PID.TID 0000.0001) //            Max. Y spins =              0
(PID.TID 0000.0001) //            Min. Y spins =     1000000000
(PID.TID 0000.0001) //          Total. Y spins =              0
(PID.TID 0000.0001) //            Avg. Y spins =       0.00E+00
(PID.TID 0000.0001) // o Thread number: 000001
(PID.TID 0000.0001) //            No. barriers =          10628
(PID.TID 0000.0001) //      Max. barrier spins =              1
(PID.TID 0000.0001) //      Min. barrier spins =              1
(PID.TID 0000.0001) //     Total barrier spins =          10628
(PID.TID 0000.0001) //      Avg. barrier spins =       1.00E+00
PROGRAM MAIN: Execution ended Normally
