(PID.TID 0000.0001) 
(PID.TID 0000.0001) // ======================================================
(PID.TID 0000.0001) //                      MITgcm UV
(PID.TID 0000.0001) //                      =========
(PID.TID 0000.0001) // ======================================================
(PID.TID 0000.0001) // execution environment starting up...
(PID.TID 0000.0001) 
(PID.TID 0000.0001) // MITgcmUV version:  checkpoint68l
(PID.TID 0000.0001) // Build user:        mlosch
(PID.TID 0000.0001) // Build host:        bkli04m056
(PID.TID 0000.0001) // Build date:        Thu Sep 14 11:45:34 CEST 2023
(PID.TID 0000.0001) 
(PID.TID 0000.0001) // =======================================================
(PID.TID 0000.0001) // Execution Environment parameter file "eedata"
(PID.TID 0000.0001) // =======================================================
(PID.TID 0000.0001) ># Example "eedata" file
(PID.TID 0000.0001) ># Lines beginning "#" are comments
(PID.TID 0000.0001) ># nTx - No. threads per process in X
(PID.TID 0000.0001) ># nTy - No. threads per process in Y
(PID.TID 0000.0001) > &EEPARMS
(PID.TID 0000.0001) > nTx=1,
(PID.TID 0000.0001) > nTy=1,
(PID.TID 0000.0001) > /
(PID.TID 0000.0001) ># Note: Some systems use & as the
(PID.TID 0000.0001) ># namelist terminator. Other systems
(PID.TID 0000.0001) ># use a / character (as shown here).
(PID.TID 0000.0001) 
(PID.TID 0000.0001) // =======================================================
(PID.TID 0000.0001) // Computational Grid Specification ( see files "SIZE.h" )
(PID.TID 0000.0001) //                                  ( and "eedata"       )
(PID.TID 0000.0001) // =======================================================
(PID.TID 0000.0001)      nPx =    1 ; /* No. processes in X */
(PID.TID 0000.0001)      nPy =    1 ; /* No. processes in Y */
(PID.TID 0000.0001)      nSx =    1 ; /* No. tiles in X per process */
(PID.TID 0000.0001)      nSy =    4 ; /* No. tiles in Y per process */
(PID.TID 0000.0001)      sNx =    1 ; /* Tile size in X */
(PID.TID 0000.0001)      sNy =   14 ; /* Tile size in Y */
(PID.TID 0000.0001)      OLx =    3 ; /* Tile overlap distance in X */
(PID.TID 0000.0001)      OLy =    3 ; /* Tile overlap distance in Y */
(PID.TID 0000.0001)      nTx =    1 ; /* No. threads in X per process */
(PID.TID 0000.0001)      nTy =    1 ; /* No. threads in Y per process */
(PID.TID 0000.0001)       Nr =   15 ; /* No. levels in the vertical   */
(PID.TID 0000.0001)       Nx =    1 ; /* Total domain size in X ( = nPx*nSx*sNx ) */
(PID.TID 0000.0001)       Ny =   56 ; /* Total domain size in Y ( = nPy*nSy*sNy ) */
(PID.TID 0000.0001)   nTiles =    4 ; /* Total no. tiles per process ( = nSx*nSy ) */
(PID.TID 0000.0001)   nProcs =    1 ; /* Total no. processes ( = nPx*nPy ) */
(PID.TID 0000.0001) nThreads =    1 ; /* Total no. threads per process ( = nTx*nTy ) */
(PID.TID 0000.0001) usingMPI =    F ; /* Flag used to control whether MPI is in use */
(PID.TID 0000.0001)                   /*  note: To execute a program with MPI calls */
(PID.TID 0000.0001)                   /*  it must be launched appropriately e.g     */
(PID.TID 0000.0001)                   /*  "mpirun -np 64 ......"                    */
(PID.TID 0000.0001) useCoupler=   F ; /* Flag used to control communications with   */
(PID.TID 0000.0001)                   /*  other model components, through a coupler */
(PID.TID 0000.0001) useNest2W_parent =    F ;/* Control 2-W Nesting comm */
(PID.TID 0000.0001) useNest2W_child  =    F ;/* Control 2-W Nesting comm */
(PID.TID 0000.0001) debugMode =    F ; /* print debug msg. (sequence of S/R calls)  */
(PID.TID 0000.0001) printMapIncludesZeros=    F ; /* print zeros in Std.Output maps */
(PID.TID 0000.0001) maxLengthPrt1D=   65 /* maxLength of 1D array printed to StdOut */
(PID.TID 0000.0001) 
(PID.TID 0000.0001) // ======================================================
(PID.TID 0000.0001) // Mapping of tiles to threads
(PID.TID 0000.0001) // ======================================================
(PID.TID 0000.0001) // -o- Thread   1, tiles (   1:   1,   1:   4)
(PID.TID 0000.0001) 
(PID.TID 0000.0001) // ======================================================
(PID.TID 0000.0001) // Tile <-> Tile connectvity table
(PID.TID 0000.0001) // ======================================================
(PID.TID 0000.0001) // Tile number: 000001 (process no. = 000000)
(PID.TID 0000.0001) //        WEST: Tile = 000001, Process = 000000, Comm = put
(PID.TID 0000.0001) //                bi = 000001, bj = 000001
(PID.TID 0000.0001) //        EAST: Tile = 000001, Process = 000000, Comm = put
(PID.TID 0000.0001) //                bi = 000001, bj = 000001
(PID.TID 0000.0001) //       SOUTH: Tile = 000004, Process = 000000, Comm = put
(PID.TID 0000.0001) //                bi = 000001, bj = 000004
(PID.TID 0000.0001) //       NORTH: Tile = 000002, Process = 000000, Comm = put
(PID.TID 0000.0001) //                bi = 000001, bj = 000002
(PID.TID 0000.0001) // Tile number: 000002 (process no. = 000000)
(PID.TID 0000.0001) //        WEST: Tile = 000002, Process = 000000, Comm = put
(PID.TID 0000.0001) //                bi = 000001, bj = 000002
(PID.TID 0000.0001) //        EAST: Tile = 000002, Process = 000000, Comm = put
(PID.TID 0000.0001) //                bi = 000001, bj = 000002
(PID.TID 0000.0001) //       SOUTH: Tile = 000001, Process = 000000, Comm = put
(PID.TID 0000.0001) //                bi = 000001, bj = 000001
(PID.TID 0000.0001) //       NORTH: Tile = 000003, Process = 000000, Comm = put
(PID.TID 0000.0001) //                bi = 000001, bj = 000003
(PID.TID 0000.0001) // Tile number: 000003 (process no. = 000000)
(PID.TID 0000.0001) //        WEST: Tile = 000003, Process = 000000, Comm = put
(PID.TID 0000.0001) //                bi = 000001, bj = 000003
(PID.TID 0000.0001) //        EAST: Tile = 000003, Process = 000000, Comm = put
(PID.TID 0000.0001) //                bi = 000001, bj = 000003
(PID.TID 0000.0001) //       SOUTH: Tile = 000002, Process = 000000, Comm = put
(PID.TID 0000.0001) //                bi = 000001, bj = 000002
(PID.TID 0000.0001) //       NORTH: Tile = 000004, Process = 000000, Comm = put
(PID.TID 0000.0001) //                bi = 000001, bj = 000004
(PID.TID 0000.0001) // Tile number: 000004 (process no. = 000000)
(PID.TID 0000.0001) //        WEST: Tile = 000004, Process = 000000, Comm = put
(PID.TID 0000.0001) //                bi = 000001, bj = 000004
(PID.TID 0000.0001) //        EAST: Tile = 000004, Process = 000000, Comm = put
(PID.TID 0000.0001) //                bi = 000001, bj = 000004
(PID.TID 0000.0001) //       SOUTH: Tile = 000003, Process = 000000, Comm = put
(PID.TID 0000.0001) //                bi = 000001, bj = 000003
(PID.TID 0000.0001) //       NORTH: Tile = 000001, Process = 000000, Comm = put
(PID.TID 0000.0001) //                bi = 000001, bj = 000001
(PID.TID 0000.0001) 
(PID.TID 0000.0001)  INI_PARMS: opening model parameter file "data"
(PID.TID 0000.0001)  OPEN_COPY_DATA_FILE: opening file data
(PID.TID 0000.0001) // =======================================================
(PID.TID 0000.0001) // Parameter file "data"
(PID.TID 0000.0001) // =======================================================
(PID.TID 0000.0001) ># ====================
(PID.TID 0000.0001) ># | Model parameters |
(PID.TID 0000.0001) ># ====================
(PID.TID 0000.0001) >#
(PID.TID 0000.0001) ># Continuous equation parameters
(PID.TID 0000.0001) > &PARM01
(PID.TID 0000.0001) > tRef= 18.8, 16.3, 13.1, 10.4, 8.1, 6.0, 4.5,
(PID.TID 0000.0001) >      3.4, 2.7, 2.2, 1.8, 1.5, 1.2, 1.0, 0.9,
(PID.TID 0000.0001) > sRef= 15*34.7,
(PID.TID 0000.0001) > cosPower=1.,
(PID.TID 0000.0001) > viscAr=1.E-3,
(PID.TID 0000.0001) > viscAh=12.E5,
(PID.TID 0000.0001) > no_slip_sides=.FALSE.,
(PID.TID 0000.0001) > no_slip_bottom=.TRUE.,
(PID.TID 0000.0001) > bottomDragLinear=1.E-3,
(PID.TID 0000.0001) >#diffK4T=2.E12,
(PID.TID 0000.0001) > diffKhT=0.E3,
(PID.TID 0000.0001) > diffKrNrT=1.E-4, 14*1.E-5,
(PID.TID 0000.0001) > ivdc_kappa=100.,
(PID.TID 0000.0001) > implicitDiffusion=.TRUE.,
(PID.TID 0000.0001) > eosType='LINEAR',
(PID.TID 0000.0001) > tAlpha=2.E-4,
(PID.TID 0000.0001) > sBeta =0.E-4,
(PID.TID 0000.0001) > saltStepping=.FALSE.,
(PID.TID 0000.0001) > gravity=9.81,
(PID.TID 0000.0001) > rhonil=1035.,
(PID.TID 0000.0001) > implicitFreeSurface=.TRUE.,
(PID.TID 0000.0001) > exactConserv=.TRUE.,
(PID.TID 0000.0001) > staggerTimeStep=.TRUE.,
(PID.TID 0000.0001) > useCDscheme=.TRUE.,
(PID.TID 0000.0001) > readBinaryPrec=64,
(PID.TID 0000.0001) > tempAdvScheme=77,
(PID.TID 0000.0001) > usePickupBeforeC54=.TRUE.,
(PID.TID 0000.0001) > /
(PID.TID 0000.0001) >
(PID.TID 0000.0001) ># Elliptic solver parameters
(PID.TID 0000.0001) > &PARM02
(PID.TID 0000.0001) > cg2dMaxIters=1000,
(PID.TID 0000.0001) >#cg2dTargetResidual=1.E-13,
(PID.TID 0000.0001) > cg2dTargetResWunit=1.E-17,
(PID.TID 0000.0001) > /
(PID.TID 0000.0001) >
(PID.TID 0000.0001) ># Time stepping parameters
(PID.TID 0000.0001) > &PARM03
(PID.TID 0000.0001) > niter0=36000,
(PID.TID 0000.0001) > nTimeSteps=20,
(PID.TID 0000.0001) >#endTime=3110400000.,
(PID.TID 0000.0001) > deltaTmom=1200.0,
(PID.TID 0000.0001) > deltaTfreesurf=3600.0,
(PID.TID 0000.0001) > deltaTtracer=86400.0,
(PID.TID 0000.0001) > deltaTClock =86400.0,
(PID.TID 0000.0001) > abEps=0.1,
(PID.TID 0000.0001) > tauCD=321428.,
(PID.TID 0000.0001) > tauThetaClimRelax=2592000.0,
(PID.TID 0000.0001) > pickupStrictlyMatch=.FALSE.,
(PID.TID 0000.0001) > chkptFreq=0.0,
(PID.TID 0000.0001) > pChkptFreq=3110400000.0,
(PID.TID 0000.0001) > taveFreq=1555200000.0,
(PID.TID 0000.0001) > dumpFreq=1555200000.0,
(PID.TID 0000.0001) > diagFreq=1555200000.0,
(PID.TID 0000.0001) >#monitorFreq=31104000.0,
(PID.TID 0000.0001) > monitorFreq=1.0,
(PID.TID 0000.0001) > monitorSelect=2,
(PID.TID 0000.0001) > /
(PID.TID 0000.0001) >
(PID.TID 0000.0001) ># Gridding parameters
(PID.TID 0000.0001) > &PARM04
(PID.TID 0000.0001) > usingSphericalPolarGrid=.TRUE.,
(PID.TID 0000.0001) > delRc= 20.,  60.,  85., 120., 165., 215., 265., 315.,
(PID.TID 0000.0001) >       365., 415., 465., 515., 565., 615., 665., 350.,
(PID.TID 0000.0001) > ygOrigin=-84.,
(PID.TID 0000.0001) > delY=56*3.,
(PID.TID 0000.0001) > delX=1*3.,
(PID.TID 0000.0001) > /
(PID.TID 0000.0001) >
(PID.TID 0000.0001) ># Input datasets
(PID.TID 0000.0001) > &PARM05
(PID.TID 0000.0001) > bathyFile='topo_sl.bin',
(PID.TID 0000.0001) > zonalWindFile='taux_sl.bin',
(PID.TID 0000.0001) > thetaClimFile='sst_sl.bin',
(PID.TID 0000.0001) > /
(PID.TID 0000.0001) 
(PID.TID 0000.0001)  INI_PARMS ; starts to read PARM01
(PID.TID 0000.0001)  INI_PARMS ; read PARM01 : OK
(PID.TID 0000.0001)  INI_PARMS ; starts to read PARM02
(PID.TID 0000.0001)  INI_PARMS ; read PARM02 : OK
(PID.TID 0000.0001)  INI_PARMS ; starts to read PARM03
(PID.TID 0000.0001)  INI_PARMS ; read PARM03 : OK
(PID.TID 0000.0001)  INI_PARMS ; starts to read PARM04
(PID.TID 0000.0001)  INI_PARMS ; read PARM04 : OK
(PID.TID 0000.0001)  INI_PARMS ; starts to read PARM05
(PID.TID 0000.0001)  INI_PARMS ; read PARM05 : OK
(PID.TID 0000.0001)  INI_PARMS: finished reading file "data"
(PID.TID 0000.0001)  PACKAGES_BOOT: opening data.pkg
(PID.TID 0000.0001)  OPEN_COPY_DATA_FILE: opening file data.pkg
(PID.TID 0000.0001) // =======================================================
(PID.TID 0000.0001) // Parameter file "data.pkg"
(PID.TID 0000.0001) // =======================================================
(PID.TID 0000.0001) ># Packages
(PID.TID 0000.0001) > &PACKAGES
(PID.TID 0000.0001) > useGMRedi=.TRUE.,
(PID.TID 0000.0001) > useDiagnostics=.TRUE.,
(PID.TID 0000.0001) > useMNC=.TRUE.,
(PID.TID 0000.0001) > /
(PID.TID 0000.0001) >
(PID.TID 0000.0001) 
(PID.TID 0000.0001)  PACKAGES_BOOT: finished reading data.pkg
(PID.TID 0000.0001)  PACKAGES_BOOT: On/Off package Summary
 --------  pkgs with a standard "usePKG" On/Off switch in "data.pkg":  --------
 pkg/gmredi               compiled   and   used ( useGMRedi                = T )
 pkg/diagnostics          compiled   and   used ( useDiagnostics           = T )
 pkg/mnc                  compiled   and   used ( useMNC                   = T )
 -------- pkgs without standard "usePKG" On/Off switch in "data.pkg":  --------
 pkg/generic_advdiff      compiled   and   used ( useGAD                   = T )
 pkg/mom_common           compiled   and   used ( momStepping              = T )
 pkg/mom_vecinv           compiled but not used ( +vectorInvariantMomentum = F )
 pkg/mom_fluxform         compiled   and   used ( & not vectorInvariantMom = T )
 pkg/cd_code              compiled   and   used ( useCDscheme              = T )
 pkg/monitor              compiled   and   used ( monitorFreq > 0.         = T )
 pkg/timeave              compiled   and   used ( taveFreq > 0.            = T )
 pkg/debug                compiled but not used ( debugMode                = F )
 pkg/rw                   compiled   and   used
 pkg/mdsio                compiled   and   used
(PID.TID 0000.0001)  PACKAGES_BOOT: End of package Summary
(PID.TID 0000.0001) 
(PID.TID 0000.0001)  MNC_READPARMS: opening file 'data.mnc'
(PID.TID 0000.0001)  OPEN_COPY_DATA_FILE: opening file data.mnc
(PID.TID 0000.0001) // =======================================================
(PID.TID 0000.0001) // Parameter file "data.mnc"
(PID.TID 0000.0001) // =======================================================
(PID.TID 0000.0001) ># Example "data.mnc" file
(PID.TID 0000.0001) ># Lines beginning "#" are comments
(PID.TID 0000.0001) > &MNC_01
(PID.TID 0000.0001) ># mnc_echo_gvtypes=.FALSE.,
(PID.TID 0000.0001) ># mnc_use_indir=.FALSE.,
(PID.TID 0000.0001) > mnc_use_outdir=.TRUE.,
(PID.TID 0000.0001) > mnc_outdir_str='mnc_test_',
(PID.TID 0000.0001) >#mnc_outdir_date=.TRUE.,
(PID.TID 0000.0001) > monitor_mnc=.FALSE.,
(PID.TID 0000.0001) >#snapshot_mnc=.FALSE.,
(PID.TID 0000.0001) >#timeave_mnc=.FALSE.,
(PID.TID 0000.0001) > pickup_read_mnc=.FALSE.,
(PID.TID 0000.0001) > pickup_write_mnc=.FALSE.,
(PID.TID 0000.0001) > /
(PID.TID 0000.0001) ># Note: Some systems use & as the
(PID.TID 0000.0001) ># namelist terminator. Other systems
(PID.TID 0000.0001) ># use a / character (as shown here).
(PID.TID 0000.0001) 
(PID.TID 0000.0001)  MNC_READPARMS: finished reading data.mnc
(PID.TID 0000.0001)  GM_READPARMS: opening data.gmredi
(PID.TID 0000.0001)  OPEN_COPY_DATA_FILE: opening file data.gmredi
(PID.TID 0000.0001) // =======================================================
(PID.TID 0000.0001) // Parameter file "data.gmredi"
(PID.TID 0000.0001) // =======================================================
(PID.TID 0000.0001) ># from MOM
(PID.TID 0000.0001) ># GM_background_K: 	isopycnal diffusion coefficien
(PID.TID 0000.0001) ># GM_maxSlope:		max slope of isopycnals
(PID.TID 0000.0001) ># GM_Scrit:		transition for scaling diffusion coefficient
(PID.TID 0000.0001) ># GM_Sd:		half width scaling for diffusion coefficient
(PID.TID 0000.0001) ># real background diff:	horizontal diffusion
(PID.TID 0000.0001) >
(PID.TID 0000.0001) > &GM_PARM01
(PID.TID 0000.0001) >  GM_AdvForm=.TRUE.,
(PID.TID 0000.0001) ># GM_AdvSeparate=.TRUE.,
(PID.TID 0000.0001) ># GM_background_K=1000.,
(PID.TID 0000.0001) >  GM_background_K=10.,
(PID.TID 0000.0001) ># GM_isopycK=1000.,
(PID.TID 0000.0001) ># GM_taper_scheme    = 'clipping',
(PID.TID 0000.0001) >  GM_taper_scheme    = 'linear',
(PID.TID 0000.0001) ># GM_taper_scheme    = 'gkw91',
(PID.TID 0000.0001) ># GM_taper_scheme    = 'ldd97',
(PID.TID 0000.0001) >  GM_Small_Number    = 1.e-18,
(PID.TID 0000.0001) >  GM_maxSlope        = 1.e-2,
(PID.TID 0000.0001) >  GM_Scrit           = 4.e-3,
(PID.TID 0000.0001) >  GM_Sd              = 1.e-3,
(PID.TID 0000.0001) ># GEOM params (lmbda 1.16e-7 s-1 = 100 days-1)
(PID.TID 0000.0001) >  GM_useGEOM         = .TRUE.,
(PID.TID 0000.0001) >  GEOM_lmbda         = 1.16e-7,
(PID.TID 0000.0001) >  GEOM_alpha         = 0.08,
(PID.TID 0000.0001) >  GEOM_minval_K      = 50.,
(PID.TID 0000.0001) >  GEOM_maxval_K      = 2.e+4,
(PID.TID 0000.0001) >  ene_init           = 1.e-2,
(PID.TID 0000.0001) >  ene_kappa          = 500.,
(PID.TID 0000.0001) >  ene_local          = .TRUE.,
(PID.TID 0000.0001) >  vert_struc         = .TRUE.,
(PID.TID 0000.0001) >  GEOM_pickup_write_mdsio = .TRUE.,
(PID.TID 0000.0001) >  GEOM_pickup_read_mdsio  = .TRUE.,
(PID.TID 0000.0001) > /
(PID.TID 0000.0001) 
(PID.TID 0000.0001)  GM_READPARMS: finished reading data.gmredi
GMREDI_READPARAMS: read pickup option on, no init of GEOM_ene_old
(PID.TID 0000.0001)  DIAGNOSTICS_READPARMS: opening data.diagnostics
(PID.TID 0000.0001)  OPEN_COPY_DATA_FILE: opening file data.diagnostics
(PID.TID 0000.0001) // =======================================================
(PID.TID 0000.0001) // Parameter file "data.diagnostics"
(PID.TID 0000.0001) // =======================================================
(PID.TID 0000.0001) ># Diagnostic Package Choices
(PID.TID 0000.0001) >#--------------------
(PID.TID 0000.0001) >#  dumpAtLast (logical): always write output at the end of simulation (default=F)
(PID.TID 0000.0001) >#  diag_mnc   (logical): write to NetCDF files (default=useMNC)
(PID.TID 0000.0001) >#--for each output-stream:
(PID.TID 0000.0001) >#  fileName(n) : prefix of the output file name (max 80c long) for outp.stream n
(PID.TID 0000.0001) >#  frequency(n):< 0 : write snap-shot output every |frequency| seconds
(PID.TID 0000.0001) >#               > 0 : write time-average output every frequency seconds
(PID.TID 0000.0001) >#  timePhase(n)     : write at time = timePhase + multiple of |frequency|
(PID.TID 0000.0001) >#    averagingFreq  : frequency (in s) for periodic averaging interval
(PID.TID 0000.0001) >#    averagingPhase : phase     (in s) for periodic averaging interval
(PID.TID 0000.0001) >#    repeatCycle    : number of averaging intervals in 1 cycle
(PID.TID 0000.0001) >#  levels(:,n) : list of levels to write to file (Notes: declared as REAL)
(PID.TID 0000.0001) >#                when this entry is missing, select all common levels of this list
(PID.TID 0000.0001) >#  fields(:,n) : list of selected diagnostics fields (8.c) in outp.stream n
(PID.TID 0000.0001) >#                (see "available_diagnostics.log" file for the full list of diags)
(PID.TID 0000.0001) >#  missing_value(n) : missing value for real-type fields in output file "n"
(PID.TID 0000.0001) >#  fileFlags(n)     : specific code (8c string) for output file "n"
(PID.TID 0000.0001) >#--------------------
(PID.TID 0000.0001) > &DIAGNOSTICS_LIST
(PID.TID 0000.0001) ># diag_mnc     = .FALSE.,
(PID.TID 0000.0001) >  fields(1:6,1)  = 'ETAN    ','ETANSQ  ','DETADT2 ','PHIBOT  ','PHIBOTSQ',
(PID.TID 0000.0001) >                   'GM_VisbK',
(PID.TID 0000.0001) >   levels(1,1) = 1.,
(PID.TID 0000.0001) >   fileName(1) = 'surfDiag',
(PID.TID 0000.0001) >  fileFlags(1) = 'D       ',
(PID.TID 0000.0001) >  frequency(1) = -864000.,
(PID.TID 0000.0001) ># do not specify levels => all levels are selected
(PID.TID 0000.0001) >  fields(1:12,2) = 'UVEL    ','VVEL    ','WVEL    ','PHIHYD  ',
(PID.TID 0000.0001) >                   'VVELMASS',
(PID.TID 0000.0001) >                   'THETA   ','VTHMASS ','WTHMASS ',
(PID.TID 0000.0001) >#                  'SALT    ','USLTMASS','VSLTMASS','WSLTMASS',
(PID.TID 0000.0001) >                   'THETASQ ','UVELSQ  ',
(PID.TID 0000.0001) >                   'UV_VEL_Z','WU_VEL  ',
(PID.TID 0000.0001) >   fileName(2) = 'dynDiag',
(PID.TID 0000.0001) >  frequency(2) = 1728000.,
(PID.TID 0000.0001) >  fields(1:7,3)  = 'DRHODR  ','RHOAnoma',
(PID.TID 0000.0001) >                   'GM_PsiY ','GM_Kvy  ','GM_Kvz  ','GM_Kwy  ','GM_Kwz  ',
(PID.TID 0000.0001) >  levels(1:12,3) = 2., 3., 4., 5., 6., 7., 8., 9., 10., 11., 12., 13.,
(PID.TID 0000.0001) >   fileName(3) = 'oceDiag',
(PID.TID 0000.0001) >  frequency(3) = 864000.,
(PID.TID 0000.0001) >  fields(1:5,4)  = 'ADVy_TH ','ADVr_TH ',
(PID.TID 0000.0001) >                   'DFyE_TH ','DFrE_TH ',
(PID.TID 0000.0001) >                   'DFrI_TH ',
(PID.TID 0000.0001) >#                  'ADVx_SLT',
(PID.TID 0000.0001) >   fileName(4) = 'flxDiag',
(PID.TID 0000.0001) >  frequency(4) = 1728000.,
(PID.TID 0000.0001) > /
(PID.TID 0000.0001) >
(PID.TID 0000.0001) >#--------------------
(PID.TID 0000.0001) ># Parameter for Diagnostics of per level statistics:
(PID.TID 0000.0001) >#--------------------
(PID.TID 0000.0001) >#  diagSt_mnc (logical): write stat-diags to NetCDF files (default=diag_mnc)
(PID.TID 0000.0001) >#  diagSt_regMaskFile : file containing the region-mask to read-in
(PID.TID 0000.0001) >#  nSetRegMskFile   : number of region-mask sets within the region-mask file
(PID.TID 0000.0001) >#  set_regMask(i)   : region-mask set-index that identifies the region "i"
(PID.TID 0000.0001) >#  val_regMask(i)   : region "i" identifier value in the region mask
(PID.TID 0000.0001) >#--for each output-stream:
(PID.TID 0000.0001) >#  stat_fName(n) : prefix of the output file name (max 80c long) for outp.stream n
(PID.TID 0000.0001) >#  stat_freq(n):< 0 : write snap-shot output every |stat_freq| seconds
(PID.TID 0000.0001) >#               > 0 : write time-average output every stat_freq seconds
(PID.TID 0000.0001) >#  stat_phase(n)    : write at time = stat_phase + multiple of |stat_freq|
(PID.TID 0000.0001) >#  stat_region(:,n) : list of "regions" (default: 1 region only=global)
(PID.TID 0000.0001) >#  stat_fields(:,n) : list of selected diagnostics fields (8.c) in outp.stream n
(PID.TID 0000.0001) >#                (see "available_diagnostics.log" file for the full list of diags)
(PID.TID 0000.0001) >#--------------------
(PID.TID 0000.0001) > &DIAG_STATIS_PARMS
(PID.TID 0000.0001) ># an example just to check the agreement with MONITOR output:
(PID.TID 0000.0001) > stat_fields(1:5,1)  = 'ETAN    ','UVEL    ','VVEL    ','WVEL    ', 'THETA   ',
(PID.TID 0000.0001) >  stat_fName(1) = 'dynStDiag',
(PID.TID 0000.0001) >   stat_freq(1) = -864000.,
(PID.TID 0000.0001) >  stat_phase(1) = 0.,
(PID.TID 0000.0001) > /
(PID.TID 0000.0001) >
(PID.TID 0000.0001) 
(PID.TID 0000.0001) S/R DIAGNOSTICS_READPARMS, read namelist "diagnostics_list": start
(PID.TID 0000.0001) S/R DIAGNOSTICS_READPARMS, read namelist "diagnostics_list": OK
(PID.TID 0000.0001) S/R DIAGNOSTICS_READPARMS, read namelist "DIAG_STATIS_PARMS": start
(PID.TID 0000.0001) S/R DIAGNOSTICS_READPARMS, read namelist "DIAG_STATIS_PARMS": OK
(PID.TID 0000.0001)  DIAGNOSTICS_READPARMS: global parameter summary:
(PID.TID 0000.0001)  dumpAtLast = /* always write time-ave diags at the end */
(PID.TID 0000.0001)                   F
(PID.TID 0000.0001)     ;
(PID.TID 0000.0001)  diag_mnc =   /* write NetCDF output files */
(PID.TID 0000.0001)                   T
(PID.TID 0000.0001)     ;
(PID.TID 0000.0001)  useMissingValue = /* put MissingValue where mask = 0 */
(PID.TID 0000.0001)                   F
(PID.TID 0000.0001)     ;
(PID.TID 0000.0001)  diagCG_maxIters = /* max number of iters in diag_cg2d */
(PID.TID 0000.0001)                    1000
(PID.TID 0000.0001)     ;
(PID.TID 0000.0001)  diagCG_resTarget = /* residual target for diag_cg2d */
(PID.TID 0000.0001)                 1.000000000000000E-07
(PID.TID 0000.0001)     ;
(PID.TID 0000.0001)  diagCG_pcOffDFac = /* preconditioner off-diagonal factor */
(PID.TID 0000.0001)                 9.611687812379854E-01
(PID.TID 0000.0001)     ;
(PID.TID 0000.0001) -----------------------------------------------------
(PID.TID 0000.0001)  DIAGNOSTICS_READPARMS: active diagnostics summary:
(PID.TID 0000.0001) -----------------------------------------------------
(PID.TID 0000.0001) Creating Output Stream: surfDiag
(PID.TID 0000.0001) Output Frequency:    -864000.000000 ; Phase:      432000.000000
(PID.TID 0000.0001)  Averaging Freq.:          0.000000 , Phase:           0.000000 , Cycle:   1
(PID.TID 0000.0001)  missing value: -9.990000000000E+02 ; F-Flags="D       "
(PID.TID 0000.0001)  Levels:       1.
(PID.TID 0000.0001)  Fields:    ETAN     ETANSQ   DETADT2  PHIBOT   PHIBOTSQ GM_VisbK
(PID.TID 0000.0001) Creating Output Stream: dynDiag
(PID.TID 0000.0001) Output Frequency:    1728000.000000 ; Phase:           0.000000
(PID.TID 0000.0001)  Averaging Freq.:    1728000.000000 , Phase:           0.000000 , Cycle:   1
(PID.TID 0000.0001)  missing value: -9.990000000000E+02
(PID.TID 0000.0001)  Levels:    will be set later
(PID.TID 0000.0001)  Fields:    UVEL     VVEL     WVEL     PHIHYD   VVELMASS THETA    VTHMASS  WTHMASS  THETASQ  UVELSQ
(PID.TID 0000.0001)  Fields:    UV_VEL_Z WU_VEL
(PID.TID 0000.0001) Creating Output Stream: oceDiag
(PID.TID 0000.0001) Output Frequency:     864000.000000 ; Phase:           0.000000
(PID.TID 0000.0001)  Averaging Freq.:     864000.000000 , Phase:           0.000000 , Cycle:   1
(PID.TID 0000.0001)  missing value: -9.990000000000E+02
(PID.TID 0000.0001)  Levels:       2.   3.   4.   5.   6.   7.   8.   9.  10.  11.  12.  13.
(PID.TID 0000.0001)  Fields:    DRHODR   RHOAnoma GM_PsiY  GM_Kvy   GM_Kvz   GM_Kwy   GM_Kwz
(PID.TID 0000.0001) Creating Output Stream: flxDiag
(PID.TID 0000.0001) Output Frequency:    1728000.000000 ; Phase:           0.000000
(PID.TID 0000.0001)  Averaging Freq.:    1728000.000000 , Phase:           0.000000 , Cycle:   1
(PID.TID 0000.0001)  missing value: -9.990000000000E+02
(PID.TID 0000.0001)  Levels:    will be set later
(PID.TID 0000.0001)  Fields:    ADVy_TH  ADVr_TH  DFyE_TH  DFrE_TH  DFrI_TH
(PID.TID 0000.0001) -----------------------------------------------------
(PID.TID 0000.0001)  DIAGNOSTICS_READPARMS: statistics diags. summary:
(PID.TID 0000.0001) Creating Stats. Output Stream: dynStDiag
(PID.TID 0000.0001) Output Frequency:    -864000.000000 ; Phase:           0.000000
(PID.TID 0000.0001)  Regions:   0
(PID.TID 0000.0001)  Fields:    ETAN     UVEL     VVEL     WVEL     THETA
(PID.TID 0000.0001) -----------------------------------------------------
(PID.TID 0000.0001) 
(PID.TID 0000.0001) SET_PARMS: done
(PID.TID 0000.0001) Enter INI_VERTICAL_GRID: setInterFDr=    F ; setCenterDr=    T
(PID.TID 0000.0001) %MON XC_max                       =   1.5000000000000E+00
(PID.TID 0000.0001) %MON XC_min                       =   1.5000000000000E+00
(PID.TID 0000.0001) %MON XC_mean                      =   1.5000000000000E+00
(PID.TID 0000.0001) %MON XC_sd                        =   0.0000000000000E+00
(PID.TID 0000.0001) %MON XG_max                       =   0.0000000000000E+00
(PID.TID 0000.0001) %MON XG_min                       =   0.0000000000000E+00
(PID.TID 0000.0001) %MON XG_mean                      =   0.0000000000000E+00
(PID.TID 0000.0001) %MON XG_sd                        =   0.0000000000000E+00
(PID.TID 0000.0001) %MON DXC_max                      =   3.3341812682592E+05
(PID.TID 0000.0001) %MON DXC_min                      =   4.3534716771864E+04
(PID.TID 0000.0001) %MON DXC_mean                     =   2.2627957857351E+05
(PID.TID 0000.0001) %MON DXC_sd                       =   9.1462046601761E+04
(PID.TID 0000.0001) %MON DXF_max                      =   3.3341812682592E+05
(PID.TID 0000.0001) %MON DXF_min                      =   4.3534716771864E+04
(PID.TID 0000.0001) %MON DXF_mean                     =   2.2627957857351E+05
(PID.TID 0000.0001) %MON DXF_sd                       =   9.1462046601761E+04
(PID.TID 0000.0001) %MON DXG_max                      =   3.3353242005612E+05
(PID.TID 0000.0001) %MON DXG_min                      =   3.4863631318407E+04
(PID.TID 0000.0001) %MON DXG_mean                     =   2.2620203821339E+05
(PID.TID 0000.0001) %MON DXG_sd                       =   9.1624145029333E+04
(PID.TID 0000.0001) %MON DXV_max                      =   3.3353242005612E+05
(PID.TID 0000.0001) %MON DXV_min                      =   3.4863631318407E+04
(PID.TID 0000.0001) %MON DXV_mean                     =   2.2620203821339E+05
(PID.TID 0000.0001) %MON DXV_sd                       =   9.1624145029333E+04
(PID.TID 0000.0001) %MON YC_max                       =   8.2500000000000E+01
(PID.TID 0000.0001) %MON YC_min                       =  -8.2500000000000E+01
(PID.TID 0000.0001) %MON YC_mean                      =   0.0000000000000E+00
(PID.TID 0000.0001) %MON YC_sd                        =   4.8489689625734E+01
(PID.TID 0000.0001) %MON YG_max                       =   8.1000000000000E+01
(PID.TID 0000.0001) %MON YG_min                       =  -8.4000000000000E+01
(PID.TID 0000.0001) %MON YG_mean                      =  -1.5000000000000E+00
(PID.TID 0000.0001) %MON YG_sd                        =   4.8489689625734E+01
(PID.TID 0000.0001) %MON DYC_max                      =   3.3353242005612E+05
(PID.TID 0000.0001) %MON DYC_min                      =   3.3353242005612E+05
(PID.TID 0000.0001) %MON DYC_mean                     =   3.3353242005612E+05
(PID.TID 0000.0001) %MON DYC_sd                       =   0.0000000000000E+00
(PID.TID 0000.0001) %MON DYF_max                      =   3.3353242005612E+05
(PID.TID 0000.0001) %MON DYF_min                      =   3.3353242005612E+05
(PID.TID 0000.0001) %MON DYF_mean                     =   3.3353242005612E+05
(PID.TID 0000.0001) %MON DYF_sd                       =   0.0000000000000E+00
(PID.TID 0000.0001) %MON DYG_max                      =   3.3353242005612E+05
(PID.TID 0000.0001) %MON DYG_min                      =   3.3353242005612E+05
(PID.TID 0000.0001) %MON DYG_mean                     =   3.3353242005612E+05
(PID.TID 0000.0001) %MON DYG_sd                       =   0.0000000000000E+00
(PID.TID 0000.0001) %MON DYU_max                      =   3.3353242005612E+05
(PID.TID 0000.0001) %MON DYU_min                      =   3.3353242005612E+05
(PID.TID 0000.0001) %MON DYU_mean                     =   3.3353242005612E+05
(PID.TID 0000.0001) %MON DYU_sd                       =   0.0000000000000E+00
(PID.TID 0000.0001) %MON RA_max                       =   1.1119305196237E+11
(PID.TID 0000.0001) %MON RA_min                       =   1.4518580829015E+10
(PID.TID 0000.0001) %MON RA_mean                      =   7.5462954512622E+10
(PID.TID 0000.0001) %MON RA_sd                        =   3.0502073169179E+10
(PID.TID 0000.0001) %MON RAW_max                      =   1.1119305196237E+11
(PID.TID 0000.0001) %MON RAW_min                      =   1.4518580829015E+10
(PID.TID 0000.0001) %MON RAW_mean                     =   7.5462954512622E+10
(PID.TID 0000.0001) %MON RAW_sd                       =   3.0502073169179E+10
(PID.TID 0000.0001) %MON RAS_max                      =   1.1123116810562E+11
(PID.TID 0000.0001) %MON RAS_min                      =   1.1626823069547E+10
(PID.TID 0000.0001) %MON RAS_mean                     =   7.5437095242840E+10
(PID.TID 0000.0001) %MON RAS_sd                       =   3.0556132074289E+10
(PID.TID 0000.0001) %MON RAZ_max                      =   1.1123116810562E+11
(PID.TID 0000.0001) %MON RAZ_min                      =   1.1626823069547E+10
(PID.TID 0000.0001) %MON RAZ_mean                     =   7.5437095242840E+10
(PID.TID 0000.0001) %MON RAZ_sd                       =   3.0556132074289E+10
(PID.TID 0000.0001) %MON AngleCS_max                  =   1.0000000000000E+00
(PID.TID 0000.0001) %MON AngleCS_min                  =   1.0000000000000E+00
(PID.TID 0000.0001) %MON AngleCS_mean                 =   1.0000000000000E+00
(PID.TID 0000.0001) %MON AngleCS_sd                   =   0.0000000000000E+00
(PID.TID 0000.0001) %MON AngleSN_max                  =   0.0000000000000E+00
(PID.TID 0000.0001) %MON AngleSN_min                  =   0.0000000000000E+00
(PID.TID 0000.0001) %MON AngleSN_mean                 =   0.0000000000000E+00
(PID.TID 0000.0001) %MON AngleSN_sd                   =   0.0000000000000E+00
(PID.TID 0000.0001)  MDS_READ_FIELD: opening global file: topo_sl.bin
(PID.TID 0000.0001) // =======================================================
(PID.TID 0000.0001) // Field Model R_low (ini_masks_etc)
(PID.TID 0000.0001) // CMIN =         -5.200000000000000E+03
(PID.TID 0000.0001) // CMAX =         -5.200000000000000E+03
(PID.TID 0000.0001) // CINT =          0.000000000000000E+00
(PID.TID 0000.0001) // SYMBOLS (CMIN->CMAX): -abcdefghijklmnopqrstuvwxyz+
(PID.TID 0000.0001) //                  0.0: .
(PID.TID 0000.0001) // RANGE I (Lo:Hi:Step):(    -2:     4:     1)
(PID.TID 0000.0001) // RANGE J (Lo:Hi:Step):(    59:    -2:    -1)
(PID.TID 0000.0001) // RANGE K (Lo:Hi:Step):(   1:   1:   1)
(PID.TID 0000.0001) // =======================================================
(PID.TID 0000.0001) // =======================================================
(PID.TID 0000.0001) // END OF FIELD                                          =
(PID.TID 0000.0001) // =======================================================
(PID.TID 0000.0001) 
(PID.TID 0000.0001) // =======================================================
(PID.TID 0000.0001) // Field Model Ro_surf (ini_masks_etc)
(PID.TID 0000.0001) // CMIN =          1.000000000000000E+32
(PID.TID 0000.0001) // CMAX =         -1.000000000000000E+32
(PID.TID 0000.0001) // CINT =          0.000000000000000E+00
(PID.TID 0000.0001) // SYMBOLS (CMIN->CMAX): -abcdefghijklmnopqrstuvwxyz+
(PID.TID 0000.0001) //                  0.0: .
(PID.TID 0000.0001) // RANGE I (Lo:Hi:Step):(    -2:     4:     1)
(PID.TID 0000.0001) // RANGE J (Lo:Hi:Step):(    59:    -2:    -1)
(PID.TID 0000.0001) // RANGE K (Lo:Hi:Step):(   1:   1:   1)
(PID.TID 0000.0001) // =======================================================
(PID.TID 0000.0001) // =======================================================
(PID.TID 0000.0001) // END OF FIELD                                          =
(PID.TID 0000.0001) // =======================================================
(PID.TID 0000.0001) 
(PID.TID 0000.0001) // =======================================================
(PID.TID 0000.0001) // Field hFacC at iteration          0
(PID.TID 0000.0001) // CMIN =          1.000000000000000E+00
(PID.TID 0000.0001) // CMAX =          1.000000000000000E+00
(PID.TID 0000.0001) // CINT =          0.000000000000000E+00
(PID.TID 0000.0001) // SYMBOLS (CMIN->CMAX): -abcdefghijklmnopqrstuvwxyz+
(PID.TID 0000.0001) //                  0.0: .
(PID.TID 0000.0001) // RANGE I (Lo:Hi:Step):(    -2:     4:     1)
(PID.TID 0000.0001) // RANGE J (Lo:Hi:Step):(    59:    -2:    -1)
(PID.TID 0000.0001) // RANGE K (Lo:Hi:Step):(   1:   1:   1)
(PID.TID 0000.0001) // =======================================================
(PID.TID 0000.0001) // =======================================================
(PID.TID 0000.0001) // END OF FIELD                                          =
(PID.TID 0000.0001) // =======================================================
(PID.TID 0000.0001) 
(PID.TID 0000.0001) // =======================================================
(PID.TID 0000.0001) // Field hFacW at iteration          0
(PID.TID 0000.0001) // CMIN =          1.000000000000000E+00
(PID.TID 0000.0001) // CMAX =          1.000000000000000E+00
(PID.TID 0000.0001) // CINT =          0.000000000000000E+00
(PID.TID 0000.0001) // SYMBOLS (CMIN->CMAX): -abcdefghijklmnopqrstuvwxyz+
(PID.TID 0000.0001) //                  0.0: .
(PID.TID 0000.0001) // RANGE I (Lo:Hi:Step):(    -2:     4:     1)
(PID.TID 0000.0001) // RANGE J (Lo:Hi:Step):(    59:    -2:    -1)
(PID.TID 0000.0001) // RANGE K (Lo:Hi:Step):(   1:   1:   1)
(PID.TID 0000.0001) // =======================================================
(PID.TID 0000.0001) // =======================================================
(PID.TID 0000.0001) // END OF FIELD                                          =
(PID.TID 0000.0001) // =======================================================
(PID.TID 0000.0001) 
(PID.TID 0000.0001) // =======================================================
(PID.TID 0000.0001) // Field hFacS at iteration          0
(PID.TID 0000.0001) // CMIN =          1.000000000000000E+00
(PID.TID 0000.0001) // CMAX =          1.000000000000000E+00
(PID.TID 0000.0001) // CINT =          0.000000000000000E+00
(PID.TID 0000.0001) // SYMBOLS (CMIN->CMAX): -abcdefghijklmnopqrstuvwxyz+
(PID.TID 0000.0001) //                  0.0: .
(PID.TID 0000.0001) // RANGE I (Lo:Hi:Step):(    -2:     4:     1)
(PID.TID 0000.0001) // RANGE J (Lo:Hi:Step):(    59:    -2:    -1)
(PID.TID 0000.0001) // RANGE K (Lo:Hi:Step):(   1:   1:   1)
(PID.TID 0000.0001) // =======================================================
(PID.TID 0000.0001) // =======================================================
(PID.TID 0000.0001) // END OF FIELD                                          =
(PID.TID 0000.0001) // =======================================================
(PID.TID 0000.0001) 
(PID.TID 0000.0001) GAD_INIT_FIXED: GAD_OlMinSize=  2  0  1
(PID.TID 0000.0001) 
(PID.TID 0000.0001) // ===================================
(PID.TID 0000.0001) // GAD parameters :
(PID.TID 0000.0001) // ===================================
(PID.TID 0000.0001) tempAdvScheme =   /* Temp. Horiz.Advection scheme selector */
(PID.TID 0000.0001)                      77
(PID.TID 0000.0001)     ;
(PID.TID 0000.0001) tempVertAdvScheme =   /* Temp. Vert. Advection scheme selector */
(PID.TID 0000.0001)                      77
(PID.TID 0000.0001)     ;
(PID.TID 0000.0001) tempMultiDimAdvec =   /* use Muti-Dim Advec method for Temp */
(PID.TID 0000.0001)                   T
(PID.TID 0000.0001)     ;
(PID.TID 0000.0001) tempSOM_Advection = /* use 2nd Order Moment Advection for Temp */
(PID.TID 0000.0001)                   F
(PID.TID 0000.0001)     ;
(PID.TID 0000.0001) AdamsBashforthGt = /* apply Adams-Bashforth extrapolation on Gt */
(PID.TID 0000.0001)                   F
(PID.TID 0000.0001)     ;
(PID.TID 0000.0001) AdamsBashforth_T = /* apply Adams-Bashforth extrapolation on Temp */
(PID.TID 0000.0001)                   F
(PID.TID 0000.0001)     ;
(PID.TID 0000.0001) saltAdvScheme =   /* Salt. Horiz.advection scheme selector */
(PID.TID 0000.0001)                       2
(PID.TID 0000.0001)     ;
(PID.TID 0000.0001) saltVertAdvScheme =   /* Salt. Vert. Advection scheme selector */
(PID.TID 0000.0001)                       2
(PID.TID 0000.0001)     ;
(PID.TID 0000.0001) saltMultiDimAdvec =   /* use Muti-Dim Advec method for Salt */
(PID.TID 0000.0001)                   F
(PID.TID 0000.0001)     ;
(PID.TID 0000.0001) saltSOM_Advection = /* use 2nd Order Moment Advection for Salt */
(PID.TID 0000.0001)                   F
(PID.TID 0000.0001)     ;
(PID.TID 0000.0001) AdamsBashforthGs = /* apply Adams-Bashforth extrapolation on Gs */
(PID.TID 0000.0001)                   F
(PID.TID 0000.0001)     ;
(PID.TID 0000.0001) AdamsBashforth_S = /* apply Adams-Bashforth extrapolation on Salt */
(PID.TID 0000.0001)                   F
(PID.TID 0000.0001)     ;
(PID.TID 0000.0001) // ===================================
(PID.TID 0000.0001) ------------------------------------------------------------
(PID.TID 0000.0001) DIAGNOSTICS_SET_LEVELS: done
(PID.TID 0000.0001)  Total Nb of available Diagnostics: ndiagt=   225
(PID.TID 0000.0001)  write list of available Diagnostics to file: available_diagnostics.log
(PID.TID 0000.0001) SETDIAG: Allocate  1 x  1 Levels for Diagnostic #    23 ETAN
(PID.TID 0000.0001) SETDIAG: Allocate  1 x  1 Levels for Diagnostic #    24 ETANSQ
(PID.TID 0000.0001) SETDIAG: Allocate  1 x  1 Levels for Diagnostic #    25 DETADT2
(PID.TID 0000.0001) SETDIAG: Allocate  1 x  1 Levels for Diagnostic #    73 PHIBOT
(PID.TID 0000.0001) SETDIAG: Allocate  1 x  1 Levels for Diagnostic #    74 PHIBOTSQ
(PID.TID 0000.0001) SETDIAG: Allocate  1 x  1 Levels for Diagnostic #   203 GM_VisbK
(PID.TID 0000.0001) SETDIAG: Allocate 15 x  1 Levels for Diagnostic #    30 UVEL
(PID.TID 0000.0001) SETDIAG: Allocate 15 x  1 Levels for Diagnostic #    31 VVEL
(PID.TID 0000.0001) SETDIAG: Allocate 15 x  1 Levels for Diagnostic #    32 WVEL
(PID.TID 0000.0001) SETDIAG: Allocate 15 x  1 Levels for Diagnostic #    71 PHIHYD
(PID.TID 0000.0001) SETDIAG: Allocate 15 x  1 Levels for Diagnostic #    46 VVELMASS
(PID.TID 0000.0001) SETDIAG: Allocate 15 x  1 Levels for Diagnostic #    26 THETA
(PID.TID 0000.0001) SETDIAG: Allocate 15 x  1 Levels for Diagnostic #    51 VTHMASS
(PID.TID 0000.0001) SETDIAG: Allocate 15 x  1 Levels for Diagnostic #    52 WTHMASS
(PID.TID 0000.0001) SETDIAG: Allocate 15 x  1 Levels for Diagnostic #    33 THETASQ
(PID.TID 0000.0001) SETDIAG: Allocate 15 x  1 Levels for Diagnostic #    36 UVELSQ
(PID.TID 0000.0001) SETDIAG: Allocate 15 x  1 Levels for Diagnostic #    42 UV_VEL_Z
(PID.TID 0000.0001) SETDIAG: Allocate 15 x  1 Levels for Diagnostic #    43 WU_VEL
(PID.TID 0000.0001) SETDIAG: Allocate 15 x  1 Levels for Diagnostic #    77 DRHODR
(PID.TID 0000.0001) SETDIAG: Allocate 15 x  1 Levels for Diagnostic #    64 RHOAnoma
(PID.TID 0000.0001) SETDIAG: Allocate 15 x  1 Levels for Diagnostic #   218 GM_PsiY
(PID.TID 0000.0001) SETDIAG: Allocate 15 x  1 Levels for Diagnostic #   211 GM_Kvy
(PID.TID 0000.0001) SETDIAG: Allocate 15 x  1 Levels for Diagnostic #   213 GM_Kvz
(PID.TID 0000.0001) SETDIAG: Allocate 15 x  1 Levels for Diagnostic #   215 GM_Kwy
(PID.TID 0000.0001) SETDIAG: Allocate 15 x  1 Levels for Diagnostic #   216 GM_Kwz
(PID.TID 0000.0001) SETDIAG: Allocate 15 x  1 Levels for Diagnostic #   111 ADVy_TH
(PID.TID 0000.0001) SETDIAG: Allocate 15 x  1 Levels for Diagnostic #   109 ADVr_TH
(PID.TID 0000.0001) SETDIAG: Allocate 15 x  1 Levels for Diagnostic #   114 DFyE_TH
(PID.TID 0000.0001) SETDIAG: Allocate 15 x  1 Levels for Diagnostic #   112 DFrE_TH
(PID.TID 0000.0001) SETDIAG: Allocate 15 x  1 Levels for Diagnostic #   115 DFrI_TH
(PID.TID 0000.0001)   space allocated for all diagnostics:     366 levels
(PID.TID 0000.0001)   set mate pointer for diag #    30  UVEL     , Parms: UUR     MR , mate:    31
(PID.TID 0000.0001)   set mate pointer for diag #    31  VVEL     , Parms: VVR     MR , mate:    30
(PID.TID 0000.0001)   set mate pointer for diag #    42  UV_VEL_Z , Parms: UZR     MR , mate:    42
(PID.TID 0000.0001) DIAGNOSTICS_SET_POINTERS: Set levels for Outp.Stream: dynDiag
(PID.TID 0000.0001)  Levels:       1.   2.   3.   4.   5.   6.   7.   8.   9.  10.  11.  12.  13.  14.  15.
(PID.TID 0000.0001) DIAGNOSTICS_SET_POINTERS: Set levels for Outp.Stream: flxDiag
(PID.TID 0000.0001)  Levels:       1.   2.   3.   4.   5.   6.   7.   8.   9.  10.  11.  12.  13.  14.  15.
(PID.TID 0000.0001) DIAGNOSTICS_SET_POINTERS: done
(PID.TID 0000.0001) ------------------------------------------------------------
(PID.TID 0000.0001) DIAGSTATS_SET_REGIONS: define no region
(PID.TID 0000.0001) ------------------------------------------------------------
(PID.TID 0000.0001) SETDIAG: Allocate  1 Levels for Stats-Diag #    23 ETAN
(PID.TID 0000.0001) SETDIAG: Allocate 15 Levels for Stats-Diag #    30 UVEL
(PID.TID 0000.0001) SETDIAG: Allocate 15 Levels for Stats-Diag #    31 VVEL
(PID.TID 0000.0001) SETDIAG: Allocate 15 Levels for Stats-Diag #    32 WVEL
(PID.TID 0000.0001) SETDIAG: Allocate 15 Levels for Stats-Diag #    26 THETA
(PID.TID 0000.0001)   space allocated for all stats-diags:      61 levels
(PID.TID 0000.0001) DIAGSTATS_SET_POINTERS: done
(PID.TID 0000.0001) ------------------------------------------------------------
(PID.TID 0000.0001) %MON fCori_max                    =   1.4459476778846E-04
(PID.TID 0000.0001) %MON fCori_min                    =  -1.4459476778846E-04
(PID.TID 0000.0001) %MON fCori_mean                   =   0.0000000000000E+00
(PID.TID 0000.0001) %MON fCori_sd                     =   9.9401036497041E-05
(PID.TID 0000.0001) %MON fCoriG_max                   =   1.4404690751822E-04
(PID.TID 0000.0001) %MON fCoriG_min                   =  -1.4504353002754E-04
(PID.TID 0000.0001) %MON fCoriG_mean                  =  -2.5900630362060E-06
(PID.TID 0000.0001) %MON fCoriG_sd                    =   9.9372489017716E-05
(PID.TID 0000.0001) %MON fCoriCos_max                 =   1.4579249376772E-04
(PID.TID 0000.0001) %MON fCoriCos_min                 =   1.9036262317421E-05
(PID.TID 0000.0001) %MON fCoriCos_mean                =   9.8944422617323E-05
(PID.TID 0000.0001) %MON fCoriCos_sd                  =   3.9993266071379E-05
(PID.TID 0000.0001) INI_CG2D: CG2D normalisation factor =  3.5045293363874508E-05
(PID.TID 0000.0001) INI_CG2D: cg2dTolerance = 1.225676511460127E-12 (Area=4.1968882910E+12)
(PID.TID 0000.0001) 
(PID.TID 0000.0001) // =======================================================
(PID.TID 0000.0001) // Model configuration
(PID.TID 0000.0001) // =======================================================
(PID.TID 0000.0001) //
(PID.TID 0000.0001) // "Physical" paramters ( PARM01 in namelist )
(PID.TID 0000.0001) //
(PID.TID 0000.0001) buoyancyRelation = /* Type of relation to get Buoyancy */
(PID.TID 0000.0001)               'OCEANIC'
(PID.TID 0000.0001)     ;
(PID.TID 0000.0001) fluidIsAir   =  /* fluid major constituent is Air */
(PID.TID 0000.0001)                   F
(PID.TID 0000.0001)     ;
(PID.TID 0000.0001) fluidIsWater =  /* fluid major constituent is Water */
(PID.TID 0000.0001)                   T
(PID.TID 0000.0001)     ;
(PID.TID 0000.0001) usingPCoords =  /* use p (or p*) vertical coordinate */
(PID.TID 0000.0001)                   F
(PID.TID 0000.0001)     ;
(PID.TID 0000.0001) usingZCoords =  /* use z (or z*) vertical coordinate */
(PID.TID 0000.0001)                   T
(PID.TID 0000.0001)     ;
(PID.TID 0000.0001) tRef =   /* Reference temperature profile ( oC or K ) */
(PID.TID 0000.0001)                 1.880000000000000E+01,      /* K =  1 */
(PID.TID 0000.0001)                 1.630000000000000E+01,      /* K =  2 */
(PID.TID 0000.0001)                 1.310000000000000E+01,      /* K =  3 */
(PID.TID 0000.0001)                 1.040000000000000E+01,      /* K =  4 */
(PID.TID 0000.0001)                 8.100000000000000E+00,      /* K =  5 */
(PID.TID 0000.0001)                 6.000000000000000E+00,      /* K =  6 */
(PID.TID 0000.0001)                 4.500000000000000E+00,      /* K =  7 */
(PID.TID 0000.0001)                 3.400000000000000E+00,      /* K =  8 */
(PID.TID 0000.0001)                 2.700000000000000E+00,      /* K =  9 */
(PID.TID 0000.0001)                 2.200000000000000E+00,      /* K = 10 */
(PID.TID 0000.0001)                 1.800000000000000E+00,      /* K = 11 */
(PID.TID 0000.0001)                 1.500000000000000E+00,      /* K = 12 */
(PID.TID 0000.0001)                 1.200000000000000E+00,      /* K = 13 */
(PID.TID 0000.0001)                 1.000000000000000E+00,      /* K = 14 */
(PID.TID 0000.0001)                 9.000000000000000E-01       /* K = 15 */
(PID.TID 0000.0001)     ;
(PID.TID 0000.0001) sRef =   /* Reference salinity profile ( g/kg ) */
(PID.TID 0000.0001)    15 @  3.470000000000000E+01              /* K =  1: 15 */
(PID.TID 0000.0001)     ;
(PID.TID 0000.0001) rhoRef =   /* Density vertical profile from (Ref,sRef)( kg/m^3 ) */
(PID.TID 0000.0001)                 1.035000000000000E+03,      /* K =  1 */
(PID.TID 0000.0001)                 1.035517500000000E+03,      /* K =  2 */
(PID.TID 0000.0001)                 1.036179900000000E+03,      /* K =  3 */
(PID.TID 0000.0001)                 1.036738800000000E+03,      /* K =  4 */
(PID.TID 0000.0001)                 1.037214900000000E+03,      /* K =  5 */
(PID.TID 0000.0001)                 1.037649600000000E+03,      /* K =  6 */
(PID.TID 0000.0001)                 1.037960100000000E+03,      /* K =  7 */
(PID.TID 0000.0001)                 1.038187800000000E+03,      /* K =  8 */
(PID.TID 0000.0001)                 1.038332700000000E+03,      /* K =  9 */
(PID.TID 0000.0001)                 1.038436200000000E+03,      /* K = 10 */
(PID.TID 0000.0001)                 1.038519000000000E+03,      /* K = 11 */
(PID.TID 0000.0001)                 1.038581100000000E+03,      /* K = 12 */
(PID.TID 0000.0001)                 1.038643200000000E+03,      /* K = 13 */
(PID.TID 0000.0001)                 1.038684600000000E+03,      /* K = 14 */
(PID.TID 0000.0001)                 1.038705300000000E+03       /* K = 15 */
(PID.TID 0000.0001)     ;
(PID.TID 0000.0001) dBdrRef = /* Vertical grad. of reference buoyancy [(m/s/r)^2] */
(PID.TID 0000.0001)                 0.000000000000000E+00,      /* K =  1 */
(PID.TID 0000.0001)                 8.175000000000001E-05,      /* K =  2 */
(PID.TID 0000.0001)                 7.386352941176473E-05,      /* K =  3 */
(PID.TID 0000.0001)                 4.414500000000000E-05,      /* K =  4 */
(PID.TID 0000.0001)                 2.734909090909092E-05,      /* K =  5 */
(PID.TID 0000.0001)                 1.916372093023256E-05,      /* K =  6 */
(PID.TID 0000.0001)                 1.110566037735849E-05,      /* K =  7 */
(PID.TID 0000.0001)                 6.851428571428573E-06,      /* K =  8 */
(PID.TID 0000.0001)                 3.762739726027396E-06,      /* K =  9 */
(PID.TID 0000.0001)                 2.363855421686748E-06,      /* K = 10 */
(PID.TID 0000.0001)                 1.687741935483872E-06,      /* K = 11 */
(PID.TID 0000.0001)                 1.142912621359224E-06,      /* K = 12 */
(PID.TID 0000.0001)                 1.041769911504425E-06,      /* K = 13 */
(PID.TID 0000.0001)                 6.380487804878048E-07,      /* K = 14 */
(PID.TID 0000.0001)                 2.950375939849624E-07       /* K = 15 */
(PID.TID 0000.0001)     ;
(PID.TID 0000.0001) useStrainTensionVisc= /* Use StrainTension Form of Viscous Operator */
(PID.TID 0000.0001)                   F
(PID.TID 0000.0001)     ;
(PID.TID 0000.0001) useVariableVisc = /* Use variable horizontal viscosity */
(PID.TID 0000.0001)                   F
(PID.TID 0000.0001)     ;
(PID.TID 0000.0001) useHarmonicVisc = /* Use harmonic horizontal viscosity */
(PID.TID 0000.0001)                   T
(PID.TID 0000.0001)     ;
(PID.TID 0000.0001) useBiharmonicVisc= /* Use biharmonic horiz.  viscosity */
(PID.TID 0000.0001)                   F
(PID.TID 0000.0001)     ;
(PID.TID 0000.0001) useSmag3D = /* Use isotropic 3-D Smagorinsky viscosity */
(PID.TID 0000.0001)                   F
(PID.TID 0000.0001)     ;
(PID.TID 0000.0001) viscAh  =   /* Lateral harmonic viscosity ( m^2/s ) */
(PID.TID 0000.0001)                 1.200000000000000E+06
(PID.TID 0000.0001)     ;
(PID.TID 0000.0001) viscA4  =   /* Lateral biharmonic viscosity ( m^4/s ) */
(PID.TID 0000.0001)                 0.000000000000000E+00
(PID.TID 0000.0001)     ;
(PID.TID 0000.0001) no_slip_sides =  /* Viscous BCs: No-slip sides */
(PID.TID 0000.0001)                   F
(PID.TID 0000.0001)     ;
(PID.TID 0000.0001) sideDragFactor = /* side-drag scaling factor (non-dim) */
(PID.TID 0000.0001)                 2.000000000000000E+00
(PID.TID 0000.0001)     ;
(PID.TID 0000.0001) viscArNr = /* vertical profile of vertical viscosity ( m^2/s )*/
(PID.TID 0000.0001)    15 @  1.000000000000000E-03              /* K =  1: 15 */
(PID.TID 0000.0001)     ;
(PID.TID 0000.0001) no_slip_bottom =  /* Viscous BCs: No-slip bottom */
(PID.TID 0000.0001)                   T
(PID.TID 0000.0001)     ;
(PID.TID 0000.0001) bottomVisc_pCell = /* Partial-cell in bottom Visc. BC */
(PID.TID 0000.0001)                   F
(PID.TID 0000.0001)     ;
(PID.TID 0000.0001) bottomDragLinear = /* linear bottom-drag coefficient ( m/s ) */
(PID.TID 0000.0001)                 1.000000000000000E-03
(PID.TID 0000.0001)     ;
(PID.TID 0000.0001) bottomDragQuadratic = /* quadratic bottom-drag coefficient (-) */
(PID.TID 0000.0001)                 0.000000000000000E+00
(PID.TID 0000.0001)     ;
(PID.TID 0000.0001) selectBotDragQuadr = /* select quadratic bottom drag options */
(PID.TID 0000.0001)                      -1
(PID.TID 0000.0001)     ;
(PID.TID 0000.0001) diffKhT =   /* Laplacian diffusion of heat laterally ( m^2/s ) */
(PID.TID 0000.0001)                 0.000000000000000E+00
(PID.TID 0000.0001)     ;
(PID.TID 0000.0001) diffK4T =   /* Biharmonic diffusion of heat laterally ( m^4/s ) */
(PID.TID 0000.0001)                 0.000000000000000E+00
(PID.TID 0000.0001)     ;
(PID.TID 0000.0001) diffKhS =   /* Laplacian diffusion of salt laterally ( m^2/s ) */
(PID.TID 0000.0001)                 0.000000000000000E+00
(PID.TID 0000.0001)     ;
(PID.TID 0000.0001) diffK4S =   /* Biharmonic diffusion of salt laterally ( m^4/s ) */
(PID.TID 0000.0001)                 0.000000000000000E+00
(PID.TID 0000.0001)     ;
(PID.TID 0000.0001) diffKrNrT = /* vertical profile of vertical diffusion of Temp ( m^2/s )*/
(PID.TID 0000.0001)                 1.000000000000000E-04,      /* K =  1 */
(PID.TID 0000.0001)    14 @  1.000000000000000E-05              /* K =  2: 15 */
(PID.TID 0000.0001)     ;
(PID.TID 0000.0001) diffKrNrS = /* vertical profile of vertical diffusion of Salt ( m^2/s )*/
(PID.TID 0000.0001)                 1.000000000000000E-04,      /* K =  1 */
(PID.TID 0000.0001)    14 @  1.000000000000000E-05              /* K =  2: 15 */
(PID.TID 0000.0001)     ;
(PID.TID 0000.0001) diffKrBL79surf = /* Surface diffusion for Bryan and Lewis 79 ( m^2/s ) */
(PID.TID 0000.0001)                 0.000000000000000E+00
(PID.TID 0000.0001)     ;
(PID.TID 0000.0001) diffKrBL79deep = /* Deep diffusion for Bryan and Lewis 1979 ( m^2/s ) */
(PID.TID 0000.0001)                 0.000000000000000E+00
(PID.TID 0000.0001)     ;
(PID.TID 0000.0001) diffKrBL79scl = /* Depth scale for Bryan and Lewis 1979 ( m ) */
(PID.TID 0000.0001)                 2.000000000000000E+02
(PID.TID 0000.0001)     ;
(PID.TID 0000.0001) diffKrBL79Ho = /* Turning depth for Bryan and Lewis 1979 ( m ) */
(PID.TID 0000.0001)                -2.000000000000000E+03
(PID.TID 0000.0001)     ;
(PID.TID 0000.0001) ivdc_kappa = /* Implicit Vertical Diffusivity for Convection ( m^2/s) */
(PID.TID 0000.0001)                 1.000000000000000E+02
(PID.TID 0000.0001)     ;
(PID.TID 0000.0001) hMixCriteria=  /* Criteria for mixed-layer diagnostic */
(PID.TID 0000.0001)                -8.000000000000000E-01
(PID.TID 0000.0001)     ;
(PID.TID 0000.0001) dRhoSmall =  /* Parameter for mixed-layer diagnostic */
(PID.TID 0000.0001)                 1.000000000000000E-06
(PID.TID 0000.0001)     ;
(PID.TID 0000.0001) hMixSmooth=  /* Smoothing parameter for mixed-layer diagnostic */
(PID.TID 0000.0001)                 0.000000000000000E+00
(PID.TID 0000.0001)     ;
(PID.TID 0000.0001) eosType =  /* Type of Equation of State */
(PID.TID 0000.0001)               'LINEAR'
(PID.TID 0000.0001)     ;
(PID.TID 0000.0001) tAlpha = /* Linear EOS thermal expansion coefficient ( 1/oC ) */
(PID.TID 0000.0001)                 2.000000000000000E-04
(PID.TID 0000.0001)     ;
(PID.TID 0000.0001) sBeta  = /* Linear EOS haline contraction coefficient ( 1/(g/kg) ) */
(PID.TID 0000.0001)                 0.000000000000000E+00
(PID.TID 0000.0001)     ;
(PID.TID 0000.0001) rhoNil    = /* Reference density for Linear EOS ( kg/m^3 ) */
(PID.TID 0000.0001)                 1.035000000000000E+03
(PID.TID 0000.0001)     ;
(PID.TID 0000.0001) selectP_inEOS_Zc = /* select pressure to use in EOS (0,1,2,3) */
(PID.TID 0000.0001)                       0
(PID.TID 0000.0001)     0= -g*rhoConst*z ; 1= pRef (from tRef,sRef); 2= Hyd P ; 3= Hyd+NH P
(PID.TID 0000.0001)     ;
(PID.TID 0000.0001) surf_pRef = /* Surface reference pressure ( Pa ) */
(PID.TID 0000.0001)                 1.013250000000000E+05
(PID.TID 0000.0001)     ;
(PID.TID 0000.0001) HeatCapacity_Cp =  /* Specific heat capacity ( J/kg/K ) */
(PID.TID 0000.0001)                 3.994000000000000E+03
(PID.TID 0000.0001)     ;
(PID.TID 0000.0001) celsius2K = /* 0 degree Celsius converted to Kelvin ( K ) */
(PID.TID 0000.0001)                 2.731500000000000E+02
(PID.TID 0000.0001)     ;
(PID.TID 0000.0001) rhoConst  = /* Reference density (Boussinesq)  ( kg/m^3 ) */
(PID.TID 0000.0001)                 1.035000000000000E+03
(PID.TID 0000.0001)     ;
(PID.TID 0000.0001) rhoFacC = /* normalized Reference density @ cell-Center (-) */
(PID.TID 0000.0001)    15 @  1.000000000000000E+00              /* K =  1: 15 */
(PID.TID 0000.0001)     ;
(PID.TID 0000.0001) rhoFacF = /* normalized Reference density @ W-Interface (-) */
(PID.TID 0000.0001)    16 @  1.000000000000000E+00              /* K =  1: 16 */
(PID.TID 0000.0001)     ;
(PID.TID 0000.0001) rhoConstFresh = /* Fresh-water reference density ( kg/m^3 ) */
(PID.TID 0000.0001)                 1.035000000000000E+03
(PID.TID 0000.0001)     ;
(PID.TID 0000.0001) gravity =   /* Gravitational acceleration ( m/s^2 ) */
(PID.TID 0000.0001)                 9.810000000000000E+00
(PID.TID 0000.0001)     ;
(PID.TID 0000.0001) gBaro =   /* Barotropic gravity ( m/s^2 ) */
(PID.TID 0000.0001)                 9.810000000000000E+00
(PID.TID 0000.0001)     ;
(PID.TID 0000.0001) gravFacC = /* gravity factor (vs surf.) @ cell-Center (-) */
(PID.TID 0000.0001)    15 @  1.000000000000000E+00              /* K =  1: 15 */
(PID.TID 0000.0001)     ;
(PID.TID 0000.0001) gravFacF = /* gravity factor (vs surf.) @ W-Interface (-) */
(PID.TID 0000.0001)    16 @  1.000000000000000E+00              /* K =  1: 16 */
(PID.TID 0000.0001)     ;
(PID.TID 0000.0001) rotationPeriod =   /* Rotation Period ( s ) */
(PID.TID 0000.0001)                 8.616400000000000E+04
(PID.TID 0000.0001)     ;
(PID.TID 0000.0001) omega =   /* Angular velocity ( rad/s ) */
(PID.TID 0000.0001)                 7.292123516990375E-05
(PID.TID 0000.0001)     ;
(PID.TID 0000.0001) f0 =   /* Reference coriolis parameter ( 1/s ) */
(PID.TID 0000.0001)                 1.000000000000000E-04
(PID.TID 0000.0001)     ;
(PID.TID 0000.0001) beta =   /* Beta ( 1/(m.s) ) */
(PID.TID 0000.0001)                 9.999999999999999E-12
(PID.TID 0000.0001)     ;
(PID.TID 0000.0001) fPrime =   /* Second coriolis parameter ( 1/s ) */
(PID.TID 0000.0001)                 0.000000000000000E+00
(PID.TID 0000.0001)     ;
(PID.TID 0000.0001) rigidLid =   /* Rigid lid on/off flag */
(PID.TID 0000.0001)                   F
(PID.TID 0000.0001)     ;
(PID.TID 0000.0001) implicitFreeSurface =   /* Implicit free surface on/off flag */
(PID.TID 0000.0001)                   T
(PID.TID 0000.0001)     ;
(PID.TID 0000.0001) freeSurfFac =   /* Implicit free surface factor */
(PID.TID 0000.0001)                 1.000000000000000E+00
(PID.TID 0000.0001)     ;
(PID.TID 0000.0001) implicSurfPress =  /* Surface Pressure implicit factor (0-1) */
(PID.TID 0000.0001)                 1.000000000000000E+00
(PID.TID 0000.0001)     ;
(PID.TID 0000.0001) implicDiv2DFlow =  /* Barot. Flow Div. implicit factor (0-1) */
(PID.TID 0000.0001)                 1.000000000000000E+00
(PID.TID 0000.0001)     ;
(PID.TID 0000.0001) uniformLin_PhiSurf = /* use uniform Bo_surf on/off flag */
(PID.TID 0000.0001)                   T
(PID.TID 0000.0001)     ;
(PID.TID 0000.0001) uniformFreeSurfLev = /* free-surface level-index is uniform */
(PID.TID 0000.0001)                   T
(PID.TID 0000.0001)     ;
(PID.TID 0000.0001) sIceLoadFac =  /* scale factor for sIceLoad (0-1) */
(PID.TID 0000.0001)                 1.000000000000000E+00
(PID.TID 0000.0001)     ;
(PID.TID 0000.0001) hFacMin =   /* minimum partial cell factor (hFac) */
(PID.TID 0000.0001)                 1.000000000000000E+00
(PID.TID 0000.0001)     ;
(PID.TID 0000.0001) hFacMinDr = /* minimum partial cell thickness ( m) */
(PID.TID 0000.0001)                 0.000000000000000E+00
(PID.TID 0000.0001)     ;
(PID.TID 0000.0001) exactConserv =  /* Exact Volume Conservation on/off flag */
(PID.TID 0000.0001)                   T
(PID.TID 0000.0001)     ;
(PID.TID 0000.0001) linFSConserveTr = /* Tracer correction for Lin Free Surface on/off flag */
(PID.TID 0000.0001)                   F
(PID.TID 0000.0001)     ;
(PID.TID 0000.0001) nonlinFreeSurf = /* Non-linear Free Surf. options (-1,0,1,2,3)*/
(PID.TID 0000.0001)                       0
(PID.TID 0000.0001)      -1,0= Off ; 1,2,3= On, 2=+rescale gU,gV, 3=+update cg2d solv.
(PID.TID 0000.0001)     ;
(PID.TID 0000.0001) hFacInf =   /* lower threshold for hFac (nonlinFreeSurf only)*/
(PID.TID 0000.0001)                 2.000000000000000E-01
(PID.TID 0000.0001)     ;
(PID.TID 0000.0001) hFacSup =   /* upper threshold for hFac (nonlinFreeSurf only)*/
(PID.TID 0000.0001)                 2.000000000000000E+00
(PID.TID 0000.0001)     ;
(PID.TID 0000.0001) select_rStar = /* r* Vertical coord. options (=0 r coord.; >0 uses r*)*/
(PID.TID 0000.0001)                       0
(PID.TID 0000.0001)     ;
(PID.TID 0000.0001) useRealFreshWaterFlux = /* Real Fresh Water Flux on/off flag*/
(PID.TID 0000.0001)                   F
(PID.TID 0000.0001)     ;
(PID.TID 0000.0001) temp_EvPrRn = /* Temp. of Evap/Prec/R (UNSET=use local T)(oC)*/
(PID.TID 0000.0001)                 1.234567000000000E+05
(PID.TID 0000.0001)     ;
(PID.TID 0000.0001) salt_EvPrRn = /* Salin. of Evap/Prec/R (UNSET=use local S)(g/kg)*/
(PID.TID 0000.0001)                 0.000000000000000E+00
(PID.TID 0000.0001)     ;
(PID.TID 0000.0001) selectAddFluid = /* option for mass source/sink of fluid (=0: off) */
(PID.TID 0000.0001)                       0
(PID.TID 0000.0001)     ;
(PID.TID 0000.0001) temp_addMass = /* Temp. of addMass array (UNSET=use local T)(oC)*/
(PID.TID 0000.0001)                 1.234567000000000E+05
(PID.TID 0000.0001)     ;
(PID.TID 0000.0001) salt_addMass = /* Salin. of addMass array (UNSET=use local S)(g/kg)*/
(PID.TID 0000.0001)                 0.000000000000000E+00
(PID.TID 0000.0001)     ;
(PID.TID 0000.0001) convertFW2Salt = /* convert F.W. Flux to Salt Flux (-1=use local S)(g/kg)*/
(PID.TID 0000.0001)                 3.500000000000000E+01
(PID.TID 0000.0001)     ;
(PID.TID 0000.0001) use3Dsolver = /* use 3-D pressure solver on/off flag */
(PID.TID 0000.0001)                   F
(PID.TID 0000.0001)     ;
(PID.TID 0000.0001) nonHydrostatic =  /* Non-Hydrostatic on/off flag */
(PID.TID 0000.0001)                   F
(PID.TID 0000.0001)     ;
(PID.TID 0000.0001) nh_Am2 = /* Non-Hydrostatic terms scaling factor */
(PID.TID 0000.0001)                 1.000000000000000E+00
(PID.TID 0000.0001)     ;
(PID.TID 0000.0001) implicitNHPress = /* Non-Hyd Pressure implicit factor (0-1)*/
(PID.TID 0000.0001)                 1.000000000000000E+00
(PID.TID 0000.0001)     ;
(PID.TID 0000.0001) selectNHfreeSurf = /* Non-Hyd (free-)Surface option */
(PID.TID 0000.0001)                       0
(PID.TID 0000.0001)     ;
(PID.TID 0000.0001) quasiHydrostatic = /* Quasi-Hydrostatic on/off flag */
(PID.TID 0000.0001)                   F
(PID.TID 0000.0001)     ;
(PID.TID 0000.0001) calc_wVelocity = /* vertical velocity calculation on/off flag */
(PID.TID 0000.0001)                   T
(PID.TID 0000.0001)     ;
(PID.TID 0000.0001) momStepping =  /* Momentum equation on/off flag */
(PID.TID 0000.0001)                   T
(PID.TID 0000.0001)     ;
(PID.TID 0000.0001) vectorInvariantMomentum= /* Vector-Invariant Momentum on/off */
(PID.TID 0000.0001)                   F
(PID.TID 0000.0001)     ;
(PID.TID 0000.0001) momAdvection =  /* Momentum advection on/off flag */
(PID.TID 0000.0001)                   T
(PID.TID 0000.0001)     ;
(PID.TID 0000.0001) momViscosity =  /* Momentum viscosity on/off flag */
(PID.TID 0000.0001)                   T
(PID.TID 0000.0001)     ;
(PID.TID 0000.0001) momImplVertAdv= /* Momentum implicit vert. advection on/off*/
(PID.TID 0000.0001)                   F
(PID.TID 0000.0001)     ;
(PID.TID 0000.0001) implicitViscosity = /* Implicit viscosity on/off flag */
(PID.TID 0000.0001)                   F
(PID.TID 0000.0001)     ;
(PID.TID 0000.0001) selectImplicitDrag= /* Implicit bot Drag options (0,1,2)*/
(PID.TID 0000.0001)                       0
(PID.TID 0000.0001)     0= Expl. ; 1= Impl. on provis. Vel ; 2= Fully Impl (with surf.P)
(PID.TID 0000.0001)     ;
(PID.TID 0000.0001) metricTerms =  /* metric-Terms on/off flag */
(PID.TID 0000.0001)                   T
(PID.TID 0000.0001)     ;
(PID.TID 0000.0001) useNHMTerms = /* Non-Hydrostatic Metric-Terms on/off */
(PID.TID 0000.0001)                   F
(PID.TID 0000.0001)     ;
(PID.TID 0000.0001) selectCoriMap = /* Coriolis Map options (0,1,2,3)*/
(PID.TID 0000.0001)                       2
(PID.TID 0000.0001)     0= f-Plane ; 1= Beta-Plane ; 2= Spherical ; 3= read from file
(PID.TID 0000.0001)     ;
(PID.TID 0000.0001) use3dCoriolis = /* 3-D Coriolis on/off flag */
(PID.TID 0000.0001)                   F
(PID.TID 0000.0001)     ;
(PID.TID 0000.0001) useCoriolis =  /* Coriolis on/off flag */
(PID.TID 0000.0001)                   T
(PID.TID 0000.0001)     ;
(PID.TID 0000.0001) useCDscheme =  /* CD scheme on/off flag */
(PID.TID 0000.0001)                   T
(PID.TID 0000.0001)     ;
(PID.TID 0000.0001) selectCoriScheme= /* Scheme selector for Coriolis-Term */
(PID.TID 0000.0001)                       0
(PID.TID 0000.0001)    = 0 : original discretization (simple averaging, no hFac)
(PID.TID 0000.0001)    = 1 : Wet-point averaging (Jamar & Ozer 1986)
(PID.TID 0000.0001)    = 2 : energy conserving scheme (no hFac weight)
(PID.TID 0000.0001)    = 3 : energy conserving scheme using Wet-point averaging
(PID.TID 0000.0001)     ;
(PID.TID 0000.0001) momForcing =  /* Momentum forcing on/off flag */
(PID.TID 0000.0001)                   T
(PID.TID 0000.0001)     ;
(PID.TID 0000.0001) momTidalForcing = /* Momentum Tidal forcing on/off flag */
(PID.TID 0000.0001)                   T
(PID.TID 0000.0001)     ;
(PID.TID 0000.0001) momPressureForcing =  /* Momentum pressure term on/off flag */
(PID.TID 0000.0001)                   T
(PID.TID 0000.0001)     ;
(PID.TID 0000.0001) implicitIntGravWave= /* Implicit Internal Gravity Wave flag */
(PID.TID 0000.0001)                   F
(PID.TID 0000.0001)     ;
(PID.TID 0000.0001) staggerTimeStep =    /* Stagger time stepping on/off flag */
(PID.TID 0000.0001)                   T
(PID.TID 0000.0001)     ;
(PID.TID 0000.0001) doResetHFactors = /* reset thickness factors @ each time-step */
(PID.TID 0000.0001)                   F
(PID.TID 0000.0001)     ;
(PID.TID 0000.0001) multiDimAdvection =  /* enable/disable Multi-Dim Advection */
(PID.TID 0000.0001)                   T
(PID.TID 0000.0001)     ;
(PID.TID 0000.0001) useMultiDimAdvec =   /* Multi-Dim Advection is/is-not used */
(PID.TID 0000.0001)                   T
(PID.TID 0000.0001)     ;
(PID.TID 0000.0001) implicitDiffusion = /* Implicit Diffusion on/off flag */
(PID.TID 0000.0001)                   T
(PID.TID 0000.0001)     ;
(PID.TID 0000.0001) tempStepping =  /* Temperature equation on/off flag */
(PID.TID 0000.0001)                   T
(PID.TID 0000.0001)     ;
(PID.TID 0000.0001) tempAdvection = /* Temperature advection on/off flag */
(PID.TID 0000.0001)                   T
(PID.TID 0000.0001)     ;
(PID.TID 0000.0001) tempImplVertAdv = /* Temp. implicit vert. advection on/off */
(PID.TID 0000.0001)                   F
(PID.TID 0000.0001)     ;
(PID.TID 0000.0001) tempForcing  =  /* Temperature forcing on/off flag */
(PID.TID 0000.0001)                   T
(PID.TID 0000.0001)     ;
(PID.TID 0000.0001) doThetaClimRelax = /* apply SST relaxation on/off flag */
(PID.TID 0000.0001)                   T
(PID.TID 0000.0001)     ;
(PID.TID 0000.0001) tempIsActiveTr = /* Temp. is a dynamically Active Tracer */
(PID.TID 0000.0001)                   T
(PID.TID 0000.0001)     ;
(PID.TID 0000.0001) saltStepping =  /* Salinity equation on/off flag */
(PID.TID 0000.0001)                   F
(PID.TID 0000.0001)     ;
(PID.TID 0000.0001) saltAdvection = /* Salinity advection on/off flag */
(PID.TID 0000.0001)                   F
(PID.TID 0000.0001)     ;
(PID.TID 0000.0001) saltImplVertAdv = /* Sali. implicit vert. advection on/off */
(PID.TID 0000.0001)                   F
(PID.TID 0000.0001)     ;
(PID.TID 0000.0001) saltForcing  =  /* Salinity forcing on/off flag */
(PID.TID 0000.0001)                   F
(PID.TID 0000.0001)     ;
(PID.TID 0000.0001) doSaltClimRelax = /* apply SSS relaxation on/off flag */
(PID.TID 0000.0001)                   F
(PID.TID 0000.0001)     ;
(PID.TID 0000.0001) saltIsActiveTr = /* Salt  is a dynamically Active Tracer */
(PID.TID 0000.0001)                   F
(PID.TID 0000.0001)     ;
(PID.TID 0000.0001)  readBinaryPrec = /* Precision used for reading binary files */
(PID.TID 0000.0001)                      64
(PID.TID 0000.0001)     ;
(PID.TID 0000.0001) writeBinaryPrec = /* Precision used for writing binary files */
(PID.TID 0000.0001)                      32
(PID.TID 0000.0001)     ;
(PID.TID 0000.0001)  rwSuffixType =   /* select format of mds file suffix */
(PID.TID 0000.0001)                       0
(PID.TID 0000.0001)    = 0 : myIter (I10.10) ;   = 1 : 100*myTime (100th sec) ;
(PID.TID 0000.0001)    = 2 : myTime (seconds);   = 3 : myTime/360 (10th of hr);
(PID.TID 0000.0001)    = 4 : myTime/3600 (hours)
(PID.TID 0000.0001)     ;
(PID.TID 0000.0001)  globalFiles = /* write "global" (=not per tile) files */
(PID.TID 0000.0001)                   F
(PID.TID 0000.0001)     ;
(PID.TID 0000.0001)  useSingleCpuIO = /* only master MPI process does I/O */
(PID.TID 0000.0001)                   F
(PID.TID 0000.0001)     ;
(PID.TID 0000.0001)  useSingleCpuInput = /* only master process reads input */
(PID.TID 0000.0001)                   F
(PID.TID 0000.0001)     ;
(PID.TID 0000.0001) /* debLev[*]  : level of debug & auxiliary message printing */
(PID.TID 0000.0001) debLevZero =  0 ; /* level of disabled aux. msg printing */
(PID.TID 0000.0001)    debLevA =  1 ; /* level of minimum  aux. msg printing */
(PID.TID 0000.0001)    debLevB =  2 ; /* level of low aux. print (report read-file opening)*/
(PID.TID 0000.0001)    debLevC =  3 ; /* level of moderate debug prt (most pkgs debug msg) */
(PID.TID 0000.0001)    debLevD =  4 ; /* level of enhanced debug prt (add DEBUG_STATS prt) */
(PID.TID 0000.0001)    debLevE =  5 ; /* level of extensive debug printing */
(PID.TID 0000.0001) debugLevel =  /* select debug printing level */
(PID.TID 0000.0001)                       2
(PID.TID 0000.0001)     ;
(PID.TID 0000.0001)  plotLevel =  /* select PLOT_FIELD printing level */
(PID.TID 0000.0001)                       2
(PID.TID 0000.0001)     ;
(PID.TID 0000.0001) //
(PID.TID 0000.0001) // Elliptic solver(s) paramters ( PARM02 in namelist )
(PID.TID 0000.0001) //
(PID.TID 0000.0001) cg2dMaxIters =   /* Upper limit on 2d con. grad iterations  */
(PID.TID 0000.0001)                    1000
(PID.TID 0000.0001)     ;
(PID.TID 0000.0001) cg2dMinItersNSA =   /* Minimum number of iterations of 2d con. grad solver  */
(PID.TID 0000.0001)                       0
(PID.TID 0000.0001)     ;
(PID.TID 0000.0001) cg2dUseMinResSol= /* use cg2d last-iter(=0) / min-resid.(=1) solution */
(PID.TID 0000.0001)                       0
(PID.TID 0000.0001)     ;
(PID.TID 0000.0001) cg2dTargetResidual =   /* 2d con. grad target residual  */
(PID.TID 0000.0001)                 1.000000000000000E-07
(PID.TID 0000.0001)     ;
(PID.TID 0000.0001) cg2dTargetResWunit =   /* CG2d target residual [W units] */
(PID.TID 0000.0001)                 1.000000000000000E-17
(PID.TID 0000.0001)     ;
(PID.TID 0000.0001) cg2dPreCondFreq =   /* Freq. for updating cg2d preconditioner */
(PID.TID 0000.0001)                       1
(PID.TID 0000.0001)     ;
(PID.TID 0000.0001) useSRCGSolver =  /* use single reduction CG solver(s) */
(PID.TID 0000.0001)                   F
(PID.TID 0000.0001)     ;
(PID.TID 0000.0001) useNSACGSolver =  /* use not-self-adjoint CG solver */
(PID.TID 0000.0001)                   F
(PID.TID 0000.0001)     ;
(PID.TID 0000.0001) printResidualFreq = /* Freq. for printing CG residual */
(PID.TID 0000.0001)                       0
(PID.TID 0000.0001)     ;
(PID.TID 0000.0001) //
(PID.TID 0000.0001) // Time stepping paramters ( PARM03 in namelist )
(PID.TID 0000.0001) //
(PID.TID 0000.0001) deltaTMom =   /* Momentum equation timestep ( s ) */
(PID.TID 0000.0001)                 1.200000000000000E+03
(PID.TID 0000.0001)     ;
(PID.TID 0000.0001) deltaTFreeSurf = /* FreeSurface equation timestep ( s ) */
(PID.TID 0000.0001)                 3.600000000000000E+03
(PID.TID 0000.0001)     ;
(PID.TID 0000.0001) dTtracerLev =  /* Tracer equation timestep ( s ) */
(PID.TID 0000.0001)    15 @  8.640000000000000E+04              /* K =  1: 15 */
(PID.TID 0000.0001)     ;
(PID.TID 0000.0001) deltaTClock  =   /* Model clock timestep ( s ) */
(PID.TID 0000.0001)                 8.640000000000000E+04
(PID.TID 0000.0001)     ;
(PID.TID 0000.0001) cAdjFreq =   /* Convective adjustment interval ( s ) */
(PID.TID 0000.0001)                 0.000000000000000E+00
(PID.TID 0000.0001)     ;
(PID.TID 0000.0001) momForcingOutAB = /* =1: take Momentum Forcing out of Adams-Bash. stepping */
(PID.TID 0000.0001)                       0
(PID.TID 0000.0001)     ;
(PID.TID 0000.0001) tracForcingOutAB = /* =1: take T,S,pTr Forcing out of Adams-Bash. stepping */
(PID.TID 0000.0001)                       0
(PID.TID 0000.0001)     ;
(PID.TID 0000.0001) momDissip_In_AB = /* put Dissipation Tendency in Adams-Bash. stepping */
(PID.TID 0000.0001)                   T
(PID.TID 0000.0001)     ;
(PID.TID 0000.0001) doAB_onGtGs = /* apply AB on Tendencies (rather than on T,S)*/
(PID.TID 0000.0001)                   T
(PID.TID 0000.0001)     ;
(PID.TID 0000.0001) abEps =   /* Adams-Bashforth-2 stabilizing weight */
(PID.TID 0000.0001)                 1.000000000000000E-01
(PID.TID 0000.0001)     ;
(PID.TID 0000.0001) applyExchUV_early = /* Apply EXCH to U,V earlier in time-step */
(PID.TID 0000.0001)                   F
(PID.TID 0000.0001)     ;
(PID.TID 0000.0001) tauCD =   /* CD coupling time-scale ( s ) */
(PID.TID 0000.0001)                 3.214280000000000E+05
(PID.TID 0000.0001)     ;
(PID.TID 0000.0001) rCD =   /* Normalised CD coupling parameter */
(PID.TID 0000.0001)                 9.962666600296178E-01
(PID.TID 0000.0001)     ;
(PID.TID 0000.0001) epsAB_CD = /* AB-2 stabilizing weight for CD-scheme*/
(PID.TID 0000.0001)                 1.000000000000000E-01
(PID.TID 0000.0001)     ;
(PID.TID 0000.0001) pickupStrictlyMatch= /* stop if pickup do not strictly match */
(PID.TID 0000.0001)                   F
(PID.TID 0000.0001)     ;
(PID.TID 0000.0001) nIter0   =   /* Run starting timestep number */
(PID.TID 0000.0001)                   36000
(PID.TID 0000.0001)     ;
(PID.TID 0000.0001) nTimeSteps = /* Number of timesteps */
(PID.TID 0000.0001)                      20
(PID.TID 0000.0001)     ;
(PID.TID 0000.0001) nEndIter =   /* Run ending timestep number */
(PID.TID 0000.0001)                   36020
(PID.TID 0000.0001)     ;
(PID.TID 0000.0001) baseTime =   /* Model base time ( s ) */
(PID.TID 0000.0001)                 0.000000000000000E+00
(PID.TID 0000.0001)     ;
(PID.TID 0000.0001) startTime =  /* Run start time ( s ) */
(PID.TID 0000.0001)                 3.110400000000000E+09
(PID.TID 0000.0001)     ;
(PID.TID 0000.0001) endTime  =   /* Integration ending time ( s ) */
(PID.TID 0000.0001)                 3.112128000000000E+09
(PID.TID 0000.0001)     ;
(PID.TID 0000.0001) pChkPtFreq = /* Permanent restart/pickup file interval ( s ) */
(PID.TID 0000.0001)                 3.110400000000000E+09
(PID.TID 0000.0001)     ;
(PID.TID 0000.0001) chkPtFreq  = /* Rolling restart/pickup file interval ( s ) */
(PID.TID 0000.0001)                 0.000000000000000E+00
(PID.TID 0000.0001)     ;
(PID.TID 0000.0001) pickup_write_mdsio =   /* Model IO flag. */
(PID.TID 0000.0001)                   T
(PID.TID 0000.0001)     ;
(PID.TID 0000.0001) pickup_read_mdsio =   /* Model IO flag. */
(PID.TID 0000.0001)                   T
(PID.TID 0000.0001)     ;
(PID.TID 0000.0001) pickup_write_mnc =   /* Model IO flag. */
(PID.TID 0000.0001)                   F
(PID.TID 0000.0001)     ;
(PID.TID 0000.0001) pickup_read_mnc =   /* Model IO flag. */
(PID.TID 0000.0001)                   F
(PID.TID 0000.0001)     ;
(PID.TID 0000.0001) writePickupAtEnd =   /* Model IO flag. */
(PID.TID 0000.0001)                   T
(PID.TID 0000.0001)     ;
(PID.TID 0000.0001) dumpFreq =   /* Model state write out interval ( s ). */
(PID.TID 0000.0001)                 1.555200000000000E+09
(PID.TID 0000.0001)     ;
(PID.TID 0000.0001) dumpInitAndLast= /* write out Initial & Last iter. model state */
(PID.TID 0000.0001)                   T
(PID.TID 0000.0001)     ;
(PID.TID 0000.0001) snapshot_mdsio =   /* Model IO flag. */
(PID.TID 0000.0001)                   F
(PID.TID 0000.0001)     ;
(PID.TID 0000.0001) snapshot_mnc =   /* Model IO flag. */
(PID.TID 0000.0001)                   T
(PID.TID 0000.0001)     ;
(PID.TID 0000.0001) monitorFreq =   /* Monitor output interval ( s ). */
(PID.TID 0000.0001)                 1.000000000000000E+00
(PID.TID 0000.0001)     ;
(PID.TID 0000.0001) monitorSelect = /* select group of variables to monitor */
(PID.TID 0000.0001)                       2
(PID.TID 0000.0001)     ;
(PID.TID 0000.0001) monitor_stdio =   /* Model IO flag. */
(PID.TID 0000.0001)                   T
(PID.TID 0000.0001)     ;
(PID.TID 0000.0001) monitor_mnc =   /* Model IO flag. */
(PID.TID 0000.0001)                   F
(PID.TID 0000.0001)     ;
(PID.TID 0000.0001) externForcingPeriod =   /* forcing period (s) */
(PID.TID 0000.0001)                 0.000000000000000E+00
(PID.TID 0000.0001)     ;
(PID.TID 0000.0001) externForcingCycle =   /* period of the cyle (s). */
(PID.TID 0000.0001)                 0.000000000000000E+00
(PID.TID 0000.0001)     ;
(PID.TID 0000.0001) tauThetaClimRelax =   /* relaxation time scale (s) */
(PID.TID 0000.0001)                 2.592000000000000E+06
(PID.TID 0000.0001)     ;
(PID.TID 0000.0001) tauSaltClimRelax =   /* relaxation time scale (s) */
(PID.TID 0000.0001)                 0.000000000000000E+00
(PID.TID 0000.0001)     ;
(PID.TID 0000.0001) latBandClimRelax =   /* max. Lat. where relaxation */
(PID.TID 0000.0001)                 1.800000000000000E+02
(PID.TID 0000.0001)     ;
(PID.TID 0000.0001) //
(PID.TID 0000.0001) // Gridding paramters ( PARM04 in namelist )
(PID.TID 0000.0001) //
(PID.TID 0000.0001) usingCartesianGrid = /* Cartesian coordinates flag ( True/False ) */
(PID.TID 0000.0001)                   F
(PID.TID 0000.0001)     ;
(PID.TID 0000.0001) usingCylindricalGrid = /* Cylindrical coordinates flag ( True/False ) */
(PID.TID 0000.0001)                   F
(PID.TID 0000.0001)     ;
(PID.TID 0000.0001) usingSphericalPolarGrid = /* Spherical coordinates flag ( True/False ) */
(PID.TID 0000.0001)                   T
(PID.TID 0000.0001)     ;
(PID.TID 0000.0001) usingCurvilinearGrid = /* Curvilinear coordinates flag ( True/False ) */
(PID.TID 0000.0001)                   F
(PID.TID 0000.0001)     ;
(PID.TID 0000.0001) useMin4hFacEdges = /* set hFacW,S as minimum of adjacent hFacC factor */
(PID.TID 0000.0001)                   F
(PID.TID 0000.0001)     ;
(PID.TID 0000.0001) interViscAr_pCell = /* account for partial-cell in interior vert. viscosity */
(PID.TID 0000.0001)                   F
(PID.TID 0000.0001)     ;
(PID.TID 0000.0001) interDiffKr_pCell = /* account for partial-cell in interior vert. diffusion */
(PID.TID 0000.0001)                   F
(PID.TID 0000.0001)     ;
(PID.TID 0000.0001) pCellMix_select = /* option to enhance mixing near surface & bottom */
(PID.TID 0000.0001)                       0
(PID.TID 0000.0001)     ;
(PID.TID 0000.0001) selectSigmaCoord = /* Hybrid-Sigma Vert. Coordinate option */
(PID.TID 0000.0001)                       0
(PID.TID 0000.0001)     ;
(PID.TID 0000.0001) rSigmaBnd = /* r/sigma transition ( units of r ==  m ) */
(PID.TID 0000.0001)                 1.234567000000000E+05
(PID.TID 0000.0001)     ;
(PID.TID 0000.0001) rkSign =   /* index orientation relative to vertical coordinate */
(PID.TID 0000.0001)                -1.000000000000000E+00
(PID.TID 0000.0001)     ;
(PID.TID 0000.0001) gravitySign = /* gravity orientation relative to vertical coordinate */
(PID.TID 0000.0001)                -1.000000000000000E+00
(PID.TID 0000.0001)     ;
(PID.TID 0000.0001) seaLev_Z =  /* reference height of sea-level [m] */
(PID.TID 0000.0001)                 0.000000000000000E+00
(PID.TID 0000.0001)     ;
(PID.TID 0000.0001) top_Pres =  /* reference pressure at the top [Pa] */
(PID.TID 0000.0001)                 0.000000000000000E+00
(PID.TID 0000.0001)     ;
(PID.TID 0000.0001) mass2rUnit = /* convert mass per unit area [kg/m2] to r-units [m] */
(PID.TID 0000.0001)                 9.661835748792270E-04
(PID.TID 0000.0001)     ;
(PID.TID 0000.0001) rUnit2mass = /* convert r-units [m] to mass per unit area [kg/m2] */
(PID.TID 0000.0001)                 1.035000000000000E+03
(PID.TID 0000.0001)     ;
(PID.TID 0000.0001) drC =   /* C spacing ( units of r ) */
(PID.TID 0000.0001)                 2.000000000000000E+01,      /* K =  1 */
(PID.TID 0000.0001)                 6.000000000000000E+01,      /* K =  2 */
(PID.TID 0000.0001)                 8.500000000000000E+01,      /* K =  3 */
(PID.TID 0000.0001)                 1.200000000000000E+02,      /* K =  4 */
(PID.TID 0000.0001)                 1.650000000000000E+02,      /* K =  5 */
(PID.TID 0000.0001)                 2.150000000000000E+02,      /* K =  6 */
(PID.TID 0000.0001)                 2.650000000000000E+02,      /* K =  7 */
(PID.TID 0000.0001)                 3.150000000000000E+02,      /* K =  8 */
(PID.TID 0000.0001)                 3.650000000000000E+02,      /* K =  9 */
(PID.TID 0000.0001)                 4.150000000000000E+02,      /* K = 10 */
(PID.TID 0000.0001)                 4.650000000000000E+02,      /* K = 11 */
(PID.TID 0000.0001)                 5.150000000000000E+02,      /* K = 12 */
(PID.TID 0000.0001)                 5.650000000000000E+02,      /* K = 13 */
(PID.TID 0000.0001)                 6.150000000000000E+02,      /* K = 14 */
(PID.TID 0000.0001)                 6.650000000000000E+02,      /* K = 15 */
(PID.TID 0000.0001)                 3.500000000000000E+02       /* K = 16 */
(PID.TID 0000.0001)     ;
(PID.TID 0000.0001) drF =   /* W spacing ( units of r ) */
(PID.TID 0000.0001)                 5.000000000000000E+01,      /* K =  1 */
(PID.TID 0000.0001)                 7.250000000000000E+01,      /* K =  2 */
(PID.TID 0000.0001)                 1.025000000000000E+02,      /* K =  3 */
(PID.TID 0000.0001)                 1.425000000000000E+02,      /* K =  4 */
(PID.TID 0000.0001)                 1.900000000000000E+02,      /* K =  5 */
(PID.TID 0000.0001)                 2.400000000000000E+02,      /* K =  6 */
(PID.TID 0000.0001)                 2.900000000000000E+02,      /* K =  7 */
(PID.TID 0000.0001)                 3.400000000000000E+02,      /* K =  8 */
(PID.TID 0000.0001)                 3.900000000000000E+02,      /* K =  9 */
(PID.TID 0000.0001)                 4.400000000000000E+02,      /* K = 10 */
(PID.TID 0000.0001)                 4.900000000000000E+02,      /* K = 11 */
(PID.TID 0000.0001)                 5.400000000000000E+02,      /* K = 12 */
(PID.TID 0000.0001)                 5.900000000000000E+02,      /* K = 13 */
(PID.TID 0000.0001)                 6.400000000000000E+02,      /* K = 14 */
(PID.TID 0000.0001)                 6.825000000000000E+02       /* K = 15 */
(PID.TID 0000.0001)     ;
(PID.TID 0000.0001) delX = /* U spacing ( m - cartesian, degrees - spherical ) */
(PID.TID 0000.0001)                 3.000000000000000E+00       /* I =  1 */
(PID.TID 0000.0001)     ;
(PID.TID 0000.0001) delY = /* V spacing ( m - cartesian, degrees - spherical ) */
(PID.TID 0000.0001)    56 @  3.000000000000000E+00              /* J =  1: 56 */
(PID.TID 0000.0001)     ;
(PID.TID 0000.0001) xgOrigin = /* X-axis origin of West  edge (cartesian: m, lat-lon: deg) */
(PID.TID 0000.0001)                 0.000000000000000E+00
(PID.TID 0000.0001)     ;
(PID.TID 0000.0001) ygOrigin = /* Y-axis origin of South edge (cartesian: m, lat-lon: deg) */
(PID.TID 0000.0001)                -8.400000000000000E+01
(PID.TID 0000.0001)     ;
(PID.TID 0000.0001) rSphere =  /* Radius ( ignored - cartesian, m - spherical ) */
(PID.TID 0000.0001)                 6.370000000000000E+06
(PID.TID 0000.0001)     ;
(PID.TID 0000.0001) deepAtmosphere = /* Deep/Shallow Atmosphere flag (True/False) */
(PID.TID 0000.0001)                   F
(PID.TID 0000.0001)     ;
(PID.TID 0000.0001) xC =  /* xC(:,1,:,1) : P-point X coord ( deg. or m if cartesian) */
(PID.TID 0000.0001)                 1.500000000000000E+00       /* I =  1 */
(PID.TID 0000.0001)     ;
(PID.TID 0000.0001) yC =  /* yC(1,:,1,:) : P-point Y coord ( deg. or m if cartesian) */
(PID.TID 0000.0001)                -8.250000000000000E+01,      /* J =  1 */
(PID.TID 0000.0001)                -7.950000000000000E+01,      /* J =  2 */
(PID.TID 0000.0001)                -7.650000000000000E+01,      /* J =  3 */
(PID.TID 0000.0001)                -7.350000000000000E+01,      /* J =  4 */
(PID.TID 0000.0001)                -7.050000000000000E+01,      /* J =  5 */
(PID.TID 0000.0001)                -6.750000000000000E+01,      /* J =  6 */
(PID.TID 0000.0001)                -6.450000000000000E+01,      /* J =  7 */
(PID.TID 0000.0001)                -6.150000000000000E+01,      /* J =  8 */
(PID.TID 0000.0001)                -5.850000000000000E+01,      /* J =  9 */
(PID.TID 0000.0001)                -5.550000000000000E+01,      /* J = 10 */
(PID.TID 0000.0001)                -5.250000000000000E+01,      /* J = 11 */
(PID.TID 0000.0001)                -4.950000000000000E+01,      /* J = 12 */
(PID.TID 0000.0001)                -4.650000000000000E+01,      /* J = 13 */
(PID.TID 0000.0001)                -4.350000000000000E+01,      /* J = 14 */
(PID.TID 0000.0001)                -4.050000000000000E+01,      /* J = 15 */
(PID.TID 0000.0001)                -3.750000000000000E+01,      /* J = 16 */
(PID.TID 0000.0001)                -3.450000000000000E+01,      /* J = 17 */
(PID.TID 0000.0001)                -3.150000000000000E+01,      /* J = 18 */
(PID.TID 0000.0001)                -2.850000000000000E+01,      /* J = 19 */
(PID.TID 0000.0001)                -2.550000000000000E+01,      /* J = 20 */
(PID.TID 0000.0001)                -2.250000000000000E+01,      /* J = 21 */
(PID.TID 0000.0001)                -1.950000000000000E+01,      /* J = 22 */
(PID.TID 0000.0001)                -1.650000000000000E+01,      /* J = 23 */
(PID.TID 0000.0001)                -1.350000000000000E+01,      /* J = 24 */
(PID.TID 0000.0001)                -1.050000000000000E+01,      /* J = 25 */
(PID.TID 0000.0001)                -7.500000000000000E+00,      /* J = 26 */
(PID.TID 0000.0001)                -4.500000000000000E+00,      /* J = 27 */
(PID.TID 0000.0001)                -1.500000000000000E+00,      /* J = 28 */
(PID.TID 0000.0001)                 1.500000000000000E+00,      /* J = 29 */
(PID.TID 0000.0001)                 4.500000000000000E+00,      /* J = 30 */
(PID.TID 0000.0001)                 7.500000000000000E+00,      /* J = 31 */
(PID.TID 0000.0001)                 1.050000000000000E+01,      /* J = 32 */
(PID.TID 0000.0001)                 1.350000000000000E+01,      /* J = 33 */
(PID.TID 0000.0001)                 1.650000000000000E+01,      /* J = 34 */
(PID.TID 0000.0001)                 1.950000000000000E+01,      /* J = 35 */
(PID.TID 0000.0001)                 2.250000000000000E+01,      /* J = 36 */
(PID.TID 0000.0001)                 2.550000000000000E+01,      /* J = 37 */
(PID.TID 0000.0001)                 2.850000000000000E+01,      /* J = 38 */
(PID.TID 0000.0001)                 3.150000000000000E+01,      /* J = 39 */
(PID.TID 0000.0001)                 3.450000000000000E+01,      /* J = 40 */
(PID.TID 0000.0001)                 3.750000000000000E+01,      /* J = 41 */
(PID.TID 0000.0001)                 4.050000000000000E+01,      /* J = 42 */
(PID.TID 0000.0001)                 4.350000000000000E+01,      /* J = 43 */
(PID.TID 0000.0001)                 4.650000000000000E+01,      /* J = 44 */
(PID.TID 0000.0001)                 4.950000000000000E+01,      /* J = 45 */
(PID.TID 0000.0001)                 5.250000000000000E+01,      /* J = 46 */
(PID.TID 0000.0001)                 5.550000000000000E+01,      /* J = 47 */
(PID.TID 0000.0001)                 5.850000000000000E+01,      /* J = 48 */
(PID.TID 0000.0001)                 6.150000000000000E+01,      /* J = 49 */
(PID.TID 0000.0001)                 6.450000000000000E+01,      /* J = 50 */
(PID.TID 0000.0001)                 6.750000000000000E+01,      /* J = 51 */
(PID.TID 0000.0001)                 7.050000000000000E+01,      /* J = 52 */
(PID.TID 0000.0001)                 7.350000000000000E+01,      /* J = 53 */
(PID.TID 0000.0001)                 7.650000000000000E+01,      /* J = 54 */
(PID.TID 0000.0001)                 7.950000000000000E+01,      /* J = 55 */
(PID.TID 0000.0001)                 8.250000000000000E+01       /* J = 56 */
(PID.TID 0000.0001)     ;
(PID.TID 0000.0001) rcoord = /* P-point R coordinate (  units of r ) */
(PID.TID 0000.0001)                -2.000000000000000E+01,      /* K =  1 */
(PID.TID 0000.0001)                -8.000000000000000E+01,      /* K =  2 */
(PID.TID 0000.0001)                -1.650000000000000E+02,      /* K =  3 */
(PID.TID 0000.0001)                -2.850000000000000E+02,      /* K =  4 */
(PID.TID 0000.0001)                -4.500000000000000E+02,      /* K =  5 */
(PID.TID 0000.0001)                -6.650000000000000E+02,      /* K =  6 */
(PID.TID 0000.0001)                -9.300000000000000E+02,      /* K =  7 */
(PID.TID 0000.0001)                -1.245000000000000E+03,      /* K =  8 */
(PID.TID 0000.0001)                -1.610000000000000E+03,      /* K =  9 */
(PID.TID 0000.0001)                -2.025000000000000E+03,      /* K = 10 */
(PID.TID 0000.0001)                -2.490000000000000E+03,      /* K = 11 */
(PID.TID 0000.0001)                -3.005000000000000E+03,      /* K = 12 */
(PID.TID 0000.0001)                -3.570000000000000E+03,      /* K = 13 */
(PID.TID 0000.0001)                -4.185000000000000E+03,      /* K = 14 */
(PID.TID 0000.0001)                -4.850000000000000E+03       /* K = 15 */
(PID.TID 0000.0001)     ;
(PID.TID 0000.0001) rF =   /* W-Interf. R coordinate (  units of r ) */
(PID.TID 0000.0001)                 0.000000000000000E+00,      /* K =  1 */
(PID.TID 0000.0001)                -5.000000000000000E+01,      /* K =  2 */
(PID.TID 0000.0001)                -1.225000000000000E+02,      /* K =  3 */
(PID.TID 0000.0001)                -2.250000000000000E+02,      /* K =  4 */
(PID.TID 0000.0001)                -3.675000000000000E+02,      /* K =  5 */
(PID.TID 0000.0001)                -5.575000000000000E+02,      /* K =  6 */
(PID.TID 0000.0001)                -7.975000000000000E+02,      /* K =  7 */
(PID.TID 0000.0001)                -1.087500000000000E+03,      /* K =  8 */
(PID.TID 0000.0001)                -1.427500000000000E+03,      /* K =  9 */
(PID.TID 0000.0001)                -1.817500000000000E+03,      /* K = 10 */
(PID.TID 0000.0001)                -2.257500000000000E+03,      /* K = 11 */
(PID.TID 0000.0001)                -2.747500000000000E+03,      /* K = 12 */
(PID.TID 0000.0001)                -3.287500000000000E+03,      /* K = 13 */
(PID.TID 0000.0001)                -3.877500000000000E+03,      /* K = 14 */
(PID.TID 0000.0001)                -4.517500000000000E+03,      /* K = 15 */
(PID.TID 0000.0001)                -5.200000000000000E+03       /* K = 16 */
(PID.TID 0000.0001)     ;
(PID.TID 0000.0001) deepFacC = /* deep-model grid factor @ cell-Center (-) */
(PID.TID 0000.0001)    15 @  1.000000000000000E+00              /* K =  1: 15 */
(PID.TID 0000.0001)     ;
(PID.TID 0000.0001) deepFacF = /* deep-model grid factor @ W-Interface (-) */
(PID.TID 0000.0001)    16 @  1.000000000000000E+00              /* K =  1: 16 */
(PID.TID 0000.0001)     ;
(PID.TID 0000.0001) rotateGrid = /* use rotated grid ( True/False ) */
(PID.TID 0000.0001)                   F
(PID.TID 0000.0001)     ;
(PID.TID 0000.0001) phiEuler = /* Euler angle, rotation about original z-coordinate [rad] */
(PID.TID 0000.0001)                 0.000000000000000E+00
(PID.TID 0000.0001)     ;
(PID.TID 0000.0001) thetaEuler = /* Euler angle, rotation about new x-coordinate [rad] */
(PID.TID 0000.0001)                 0.000000000000000E+00
(PID.TID 0000.0001)     ;
(PID.TID 0000.0001) psiEuler = /* Euler angle, rotation about new z-coordinate [rad] */
(PID.TID 0000.0001)                 0.000000000000000E+00
(PID.TID 0000.0001)     ;
(PID.TID 0000.0001) dxF =  /* dxF(:,1,:,1) ( units: m ) */
(PID.TID 0000.0001)                 4.353471677186367E+04       /* I =  1 */
(PID.TID 0000.0001)     ;
(PID.TID 0000.0001) dxF =  /* dxF(1,:,1,:) ( units: m ) */
(PID.TID 0000.0001)                 4.353471677186367E+04,      /* J =  1 */
(PID.TID 0000.0001)                 6.078145583759403E+04,      /* J =  2 */
(PID.TID 0000.0001)                 7.786159715774079E+04,      /* J =  3 */
(PID.TID 0000.0001)                 9.472832525217145E+04,      /* J =  4 */
(PID.TID 0000.0001)                 1.113354095915710E+05,      /* J =  5 */
(PID.TID 0000.0001)                 1.276373313121096E+05,      /* J =  6 */
(PID.TID 0000.0001)                 1.435894079794837E+05,      /* J =  7 */
(PID.TID 0000.0001)                 1.591479160603634E+05,      /* J =  8 */
(PID.TID 0000.0001)                 1.742702107655578E+05,      /* J =  9 */
(PID.TID 0000.0001)                 1.889148429364175E+05,      /* J = 10 */
(PID.TID 0000.0001)                 2.030416726540983E+05,      /* J = 11 */
(PID.TID 0000.0001)                 2.166119792602878E+05,      /* J = 12 */
(PID.TID 0000.0001)                 2.295885674878389E+05,      /* J = 13 */
(PID.TID 0000.0001)                 2.419358694104115E+05,      /* J = 14 */
(PID.TID 0000.0001)                 2.536200419316863E+05,      /* J = 15 */
(PID.TID 0000.0001)                 2.646090595469393E+05,      /* J = 16 */
(PID.TID 0000.0001)                 2.748728021227243E+05,      /* J = 17 */
(PID.TID 0000.0001)                 2.843831374540652E+05,      /* J = 18 */
(PID.TID 0000.0001)                 2.931139983728740E+05,      /* J = 19 */
(PID.TID 0000.0001)                 3.010414541962470E+05,      /* J = 20 */
(PID.TID 0000.0001)                 3.081437763188029E+05,      /* J = 21 */
(PID.TID 0000.0001)                 3.144014977692803E+05,      /* J = 22 */
(PID.TID 0000.0001)                 3.197974665681523E+05,      /* J = 23 */
(PID.TID 0000.0001)                 3.243168927400103E+05,      /* J = 24 */
(PID.TID 0000.0001)                 3.279473888518588E+05,      /* J = 25 */
(PID.TID 0000.0001)                 3.306790039662077E+05,      /* J = 26 */
(PID.TID 0000.0001)                 3.325042509159012E+05,      /* J = 27 */
(PID.TID 0000.0001)     2 @  3.334181268259212E+05,             /* J = 28: 29 */
(PID.TID 0000.0001)                 3.325042509159012E+05,      /* J = 30 */
(PID.TID 0000.0001)                 3.306790039662077E+05,      /* J = 31 */
(PID.TID 0000.0001)                 3.279473888518588E+05,      /* J = 32 */
(PID.TID 0000.0001)                 3.243168927400103E+05,      /* J = 33 */
(PID.TID 0000.0001)                 3.197974665681523E+05,      /* J = 34 */
(PID.TID 0000.0001)                 3.144014977692803E+05,      /* J = 35 */
(PID.TID 0000.0001)                 3.081437763188029E+05,      /* J = 36 */
(PID.TID 0000.0001)                 3.010414541962470E+05,      /* J = 37 */
(PID.TID 0000.0001)                 2.931139983728740E+05,      /* J = 38 */
(PID.TID 0000.0001)                 2.843831374540652E+05,      /* J = 39 */
(PID.TID 0000.0001)                 2.748728021227243E+05,      /* J = 40 */
(PID.TID 0000.0001)                 2.646090595469393E+05,      /* J = 41 */
(PID.TID 0000.0001)                 2.536200419316863E+05,      /* J = 42 */
(PID.TID 0000.0001)                 2.419358694104115E+05,      /* J = 43 */
(PID.TID 0000.0001)                 2.295885674878389E+05,      /* J = 44 */
(PID.TID 0000.0001)                 2.166119792602878E+05,      /* J = 45 */
(PID.TID 0000.0001)                 2.030416726540983E+05,      /* J = 46 */
(PID.TID 0000.0001)                 1.889148429364175E+05,      /* J = 47 */
(PID.TID 0000.0001)                 1.742702107655578E+05,      /* J = 48 */
(PID.TID 0000.0001)                 1.591479160603634E+05,      /* J = 49 */
(PID.TID 0000.0001)                 1.435894079794837E+05,      /* J = 50 */
(PID.TID 0000.0001)                 1.276373313121096E+05,      /* J = 51 */
(PID.TID 0000.0001)                 1.113354095915710E+05,      /* J = 52 */
(PID.TID 0000.0001)                 9.472832525217145E+04,      /* J = 53 */
(PID.TID 0000.0001)                 7.786159715774079E+04,      /* J = 54 */
(PID.TID 0000.0001)                 6.078145583759403E+04,      /* J = 55 */
(PID.TID 0000.0001)                 4.353471677186367E+04       /* J = 56 */
(PID.TID 0000.0001)     ;
(PID.TID 0000.0001) dyF =  /* dyF(:,1,:,1) ( units: m ) */
(PID.TID 0000.0001)                 3.335324200561164E+05       /* I =  1 */
(PID.TID 0000.0001)     ;
(PID.TID 0000.0001) dyF =  /* dyF(1,:,1,:) ( units: m ) */
(PID.TID 0000.0001)    56 @  3.335324200561164E+05              /* J =  1: 56 */
(PID.TID 0000.0001)     ;
(PID.TID 0000.0001) dxG =  /* dxG(:,1,:,1) ( units: m ) */
(PID.TID 0000.0001)                 3.486363131840732E+04       /* I =  1 */
(PID.TID 0000.0001)     ;
(PID.TID 0000.0001) dxG =  /* dxG(1,:,1,:) ( units: m ) */
(PID.TID 0000.0001)                 3.486363131840732E+04,      /* J =  1 */
(PID.TID 0000.0001)                 5.217596570505216E+04,      /* J =  2 */
(PID.TID 0000.0001)                 6.934528939640634E+04,      /* J =  3 */
(PID.TID 0000.0001)                 8.632454246965688E+04,      /* J =  4 */
(PID.TID 0000.0001)                 1.030671859723435E+05,      /* J =  5 */
(PID.TID 0000.0001)                 1.195273294823923E+05,      /* J =  6 */
(PID.TID 0000.0001)                 1.356598568905725E+05,      /* J =  7 */
(PID.TID 0000.0001)                 1.514205500606167E+05,      /* J =  8 */
(PID.TID 0000.0001)                 1.667662100280583E+05,      /* J =  9 */
(PID.TID 0000.0001)                 1.816547754055899E+05,      /* J = 10 */
(PID.TID 0000.0001)                 1.960454376704035E+05,      /* J = 11 */
(PID.TID 0000.0001)                 2.098987530175138E+05,      /* J = 12 */
(PID.TID 0000.0001)                 2.231767504724866E+05,      /* J = 13 */
(PID.TID 0000.0001)                 2.358430359672399E+05,      /* J = 14 */
(PID.TID 0000.0001)                 2.478628920936556E+05,      /* J = 15 */
(PID.TID 0000.0001)                 2.592033732615808E+05,      /* J = 16 */
(PID.TID 0000.0001)                 2.698333960004017E+05,      /* J = 17 */
(PID.TID 0000.0001)                 2.797238241566748E+05,      /* J = 18 */
(PID.TID 0000.0001)                 2.888475487542992E+05,      /* J = 19 */
(PID.TID 0000.0001)                 2.971795622983349E+05,      /* J = 20 */
(PID.TID 0000.0001)                 3.046970273188090E+05,      /* J = 21 */
(PID.TID 0000.0001)                 3.113793389666330E+05,      /* J = 22 */
(PID.TID 0000.0001)                 3.172081814900618E+05,      /* J = 23 */
(PID.TID 0000.0001)                 3.221675784368968E+05,      /* J = 24 */
(PID.TID 0000.0001)                 3.262439364448300E+05,      /* J = 25 */
(PID.TID 0000.0001)                 3.294260824999061E+05,      /* J = 26 */
(PID.TID 0000.0001)                 3.317052945609759E+05,      /* J = 27 */
(PID.TID 0000.0001)                 3.330753254662066E+05,      /* J = 28 */
(PID.TID 0000.0001)                 3.335324200561164E+05,      /* J = 29 */
(PID.TID 0000.0001)                 3.330753254662066E+05,      /* J = 30 */
(PID.TID 0000.0001)                 3.317052945609759E+05,      /* J = 31 */
(PID.TID 0000.0001)                 3.294260824999061E+05,      /* J = 32 */
(PID.TID 0000.0001)                 3.262439364448300E+05,      /* J = 33 */
(PID.TID 0000.0001)                 3.221675784368968E+05,      /* J = 34 */
(PID.TID 0000.0001)                 3.172081814900618E+05,      /* J = 35 */
(PID.TID 0000.0001)                 3.113793389666330E+05,      /* J = 36 */
(PID.TID 0000.0001)                 3.046970273188090E+05,      /* J = 37 */
(PID.TID 0000.0001)                 2.971795622983349E+05,      /* J = 38 */
(PID.TID 0000.0001)                 2.888475487542992E+05,      /* J = 39 */
(PID.TID 0000.0001)                 2.797238241566748E+05,      /* J = 40 */
(PID.TID 0000.0001)                 2.698333960004017E+05,      /* J = 41 */
(PID.TID 0000.0001)                 2.592033732615808E+05,      /* J = 42 */
(PID.TID 0000.0001)                 2.478628920936556E+05,      /* J = 43 */
(PID.TID 0000.0001)                 2.358430359672399E+05,      /* J = 44 */
(PID.TID 0000.0001)                 2.231767504724866E+05,      /* J = 45 */
(PID.TID 0000.0001)                 2.098987530175138E+05,      /* J = 46 */
(PID.TID 0000.0001)                 1.960454376704035E+05,      /* J = 47 */
(PID.TID 0000.0001)                 1.816547754055899E+05,      /* J = 48 */
(PID.TID 0000.0001)                 1.667662100280583E+05,      /* J = 49 */
(PID.TID 0000.0001)                 1.514205500606167E+05,      /* J = 50 */
(PID.TID 0000.0001)                 1.356598568905725E+05,      /* J = 51 */
(PID.TID 0000.0001)                 1.195273294823923E+05,      /* J = 52 */
(PID.TID 0000.0001)                 1.030671859723435E+05,      /* J = 53 */
(PID.TID 0000.0001)                 8.632454246965688E+04,      /* J = 54 */
(PID.TID 0000.0001)                 6.934528939640634E+04,      /* J = 55 */
(PID.TID 0000.0001)                 5.217596570505216E+04       /* J = 56 */
(PID.TID 0000.0001)     ;
(PID.TID 0000.0001) dyG =  /* dyG(:,1,:,1) ( units: m ) */
(PID.TID 0000.0001)                 3.335324200561164E+05       /* I =  1 */
(PID.TID 0000.0001)     ;
(PID.TID 0000.0001) dyG =  /* dyG(1,:,1,:) ( units: m ) */
(PID.TID 0000.0001)    56 @  3.335324200561164E+05              /* J =  1: 56 */
(PID.TID 0000.0001)     ;
(PID.TID 0000.0001) dxC =  /* dxC(:,1,:,1) ( units: m ) */
(PID.TID 0000.0001)                 4.353471677186367E+04       /* I =  1 */
(PID.TID 0000.0001)     ;
(PID.TID 0000.0001) dxC =  /* dxC(1,:,1,:) ( units: m ) */
(PID.TID 0000.0001)                 4.353471677186367E+04,      /* J =  1 */
(PID.TID 0000.0001)                 6.078145583759403E+04,      /* J =  2 */
(PID.TID 0000.0001)                 7.786159715774079E+04,      /* J =  3 */
(PID.TID 0000.0001)                 9.472832525217145E+04,      /* J =  4 */
(PID.TID 0000.0001)                 1.113354095915710E+05,      /* J =  5 */
(PID.TID 0000.0001)                 1.276373313121096E+05,      /* J =  6 */
(PID.TID 0000.0001)                 1.435894079794837E+05,      /* J =  7 */
(PID.TID 0000.0001)                 1.591479160603634E+05,      /* J =  8 */
(PID.TID 0000.0001)                 1.742702107655578E+05,      /* J =  9 */
(PID.TID 0000.0001)                 1.889148429364175E+05,      /* J = 10 */
(PID.TID 0000.0001)                 2.030416726540983E+05,      /* J = 11 */
(PID.TID 0000.0001)                 2.166119792602878E+05,      /* J = 12 */
(PID.TID 0000.0001)                 2.295885674878389E+05,      /* J = 13 */
(PID.TID 0000.0001)                 2.419358694104115E+05,      /* J = 14 */
(PID.TID 0000.0001)                 2.536200419316863E+05,      /* J = 15 */
(PID.TID 0000.0001)                 2.646090595469393E+05,      /* J = 16 */
(PID.TID 0000.0001)                 2.748728021227243E+05,      /* J = 17 */
(PID.TID 0000.0001)                 2.843831374540652E+05,      /* J = 18 */
(PID.TID 0000.0001)                 2.931139983728740E+05,      /* J = 19 */
(PID.TID 0000.0001)                 3.010414541962470E+05,      /* J = 20 */
(PID.TID 0000.0001)                 3.081437763188029E+05,      /* J = 21 */
(PID.TID 0000.0001)                 3.144014977692803E+05,      /* J = 22 */
(PID.TID 0000.0001)                 3.197974665681523E+05,      /* J = 23 */
(PID.TID 0000.0001)                 3.243168927400103E+05,      /* J = 24 */
(PID.TID 0000.0001)                 3.279473888518588E+05,      /* J = 25 */
(PID.TID 0000.0001)                 3.306790039662077E+05,      /* J = 26 */
(PID.TID 0000.0001)                 3.325042509159012E+05,      /* J = 27 */
(PID.TID 0000.0001)     2 @  3.334181268259212E+05,             /* J = 28: 29 */
(PID.TID 0000.0001)                 3.325042509159012E+05,      /* J = 30 */
(PID.TID 0000.0001)                 3.306790039662077E+05,      /* J = 31 */
(PID.TID 0000.0001)                 3.279473888518588E+05,      /* J = 32 */
(PID.TID 0000.0001)                 3.243168927400103E+05,      /* J = 33 */
(PID.TID 0000.0001)                 3.197974665681523E+05,      /* J = 34 */
(PID.TID 0000.0001)                 3.144014977692803E+05,      /* J = 35 */
(PID.TID 0000.0001)                 3.081437763188029E+05,      /* J = 36 */
(PID.TID 0000.0001)                 3.010414541962470E+05,      /* J = 37 */
(PID.TID 0000.0001)                 2.931139983728740E+05,      /* J = 38 */
(PID.TID 0000.0001)                 2.843831374540652E+05,      /* J = 39 */
(PID.TID 0000.0001)                 2.748728021227243E+05,      /* J = 40 */
(PID.TID 0000.0001)                 2.646090595469393E+05,      /* J = 41 */
(PID.TID 0000.0001)                 2.536200419316863E+05,      /* J = 42 */
(PID.TID 0000.0001)                 2.419358694104115E+05,      /* J = 43 */
(PID.TID 0000.0001)                 2.295885674878389E+05,      /* J = 44 */
(PID.TID 0000.0001)                 2.166119792602878E+05,      /* J = 45 */
(PID.TID 0000.0001)                 2.030416726540983E+05,      /* J = 46 */
(PID.TID 0000.0001)                 1.889148429364175E+05,      /* J = 47 */
(PID.TID 0000.0001)                 1.742702107655578E+05,      /* J = 48 */
(PID.TID 0000.0001)                 1.591479160603634E+05,      /* J = 49 */
(PID.TID 0000.0001)                 1.435894079794837E+05,      /* J = 50 */
(PID.TID 0000.0001)                 1.276373313121096E+05,      /* J = 51 */
(PID.TID 0000.0001)                 1.113354095915710E+05,      /* J = 52 */
(PID.TID 0000.0001)                 9.472832525217145E+04,      /* J = 53 */
(PID.TID 0000.0001)                 7.786159715774079E+04,      /* J = 54 */
(PID.TID 0000.0001)                 6.078145583759403E+04,      /* J = 55 */
(PID.TID 0000.0001)                 4.353471677186367E+04       /* J = 56 */
(PID.TID 0000.0001)     ;
(PID.TID 0000.0001) dyC =  /* dyC(:,1,:,1) ( units: m ) */
(PID.TID 0000.0001)                 3.335324200561164E+05       /* I =  1 */
(PID.TID 0000.0001)     ;
(PID.TID 0000.0001) dyC =  /* dyC(1,:,1,:) ( units: m ) */
(PID.TID 0000.0001)    56 @  3.335324200561164E+05              /* J =  1: 56 */
(PID.TID 0000.0001)     ;
(PID.TID 0000.0001) dxV =  /* dxV(:,1,:,1) ( units: m ) */
(PID.TID 0000.0001)                 3.486363131840732E+04       /* I =  1 */
(PID.TID 0000.0001)     ;
(PID.TID 0000.0001) dxV =  /* dxV(1,:,1,:) ( units: m ) */
(PID.TID 0000.0001)                 3.486363131840732E+04,      /* J =  1 */
(PID.TID 0000.0001)                 5.217596570505216E+04,      /* J =  2 */
(PID.TID 0000.0001)                 6.934528939640634E+04,      /* J =  3 */
(PID.TID 0000.0001)                 8.632454246965688E+04,      /* J =  4 */
(PID.TID 0000.0001)                 1.030671859723435E+05,      /* J =  5 */
(PID.TID 0000.0001)                 1.195273294823923E+05,      /* J =  6 */
(PID.TID 0000.0001)                 1.356598568905725E+05,      /* J =  7 */
(PID.TID 0000.0001)                 1.514205500606167E+05,      /* J =  8 */
(PID.TID 0000.0001)                 1.667662100280583E+05,      /* J =  9 */
(PID.TID 0000.0001)                 1.816547754055899E+05,      /* J = 10 */
(PID.TID 0000.0001)                 1.960454376704035E+05,      /* J = 11 */
(PID.TID 0000.0001)                 2.098987530175138E+05,      /* J = 12 */
(PID.TID 0000.0001)                 2.231767504724866E+05,      /* J = 13 */
(PID.TID 0000.0001)                 2.358430359672399E+05,      /* J = 14 */
(PID.TID 0000.0001)                 2.478628920936556E+05,      /* J = 15 */
(PID.TID 0000.0001)                 2.592033732615808E+05,      /* J = 16 */
(PID.TID 0000.0001)                 2.698333960004017E+05,      /* J = 17 */
(PID.TID 0000.0001)                 2.797238241566748E+05,      /* J = 18 */
(PID.TID 0000.0001)                 2.888475487542992E+05,      /* J = 19 */
(PID.TID 0000.0001)                 2.971795622983349E+05,      /* J = 20 */
(PID.TID 0000.0001)                 3.046970273188090E+05,      /* J = 21 */
(PID.TID 0000.0001)                 3.113793389666330E+05,      /* J = 22 */
(PID.TID 0000.0001)                 3.172081814900618E+05,      /* J = 23 */
(PID.TID 0000.0001)                 3.221675784368968E+05,      /* J = 24 */
(PID.TID 0000.0001)                 3.262439364448300E+05,      /* J = 25 */
(PID.TID 0000.0001)                 3.294260824999061E+05,      /* J = 26 */
(PID.TID 0000.0001)                 3.317052945609759E+05,      /* J = 27 */
(PID.TID 0000.0001)                 3.330753254662066E+05,      /* J = 28 */
(PID.TID 0000.0001)                 3.335324200561164E+05,      /* J = 29 */
(PID.TID 0000.0001)                 3.330753254662066E+05,      /* J = 30 */
(PID.TID 0000.0001)                 3.317052945609759E+05,      /* J = 31 */
(PID.TID 0000.0001)                 3.294260824999061E+05,      /* J = 32 */
(PID.TID 0000.0001)                 3.262439364448300E+05,      /* J = 33 */
(PID.TID 0000.0001)                 3.221675784368968E+05,      /* J = 34 */
(PID.TID 0000.0001)                 3.172081814900618E+05,      /* J = 35 */
(PID.TID 0000.0001)                 3.113793389666330E+05,      /* J = 36 */
(PID.TID 0000.0001)                 3.046970273188090E+05,      /* J = 37 */
(PID.TID 0000.0001)                 2.971795622983349E+05,      /* J = 38 */
(PID.TID 0000.0001)                 2.888475487542992E+05,      /* J = 39 */
(PID.TID 0000.0001)                 2.797238241566748E+05,      /* J = 40 */
(PID.TID 0000.0001)                 2.698333960004017E+05,      /* J = 41 */
(PID.TID 0000.0001)                 2.592033732615808E+05,      /* J = 42 */
(PID.TID 0000.0001)                 2.478628920936556E+05,      /* J = 43 */
(PID.TID 0000.0001)                 2.358430359672399E+05,      /* J = 44 */
(PID.TID 0000.0001)                 2.231767504724866E+05,      /* J = 45 */
(PID.TID 0000.0001)                 2.098987530175138E+05,      /* J = 46 */
(PID.TID 0000.0001)                 1.960454376704035E+05,      /* J = 47 */
(PID.TID 0000.0001)                 1.816547754055899E+05,      /* J = 48 */
(PID.TID 0000.0001)                 1.667662100280583E+05,      /* J = 49 */
(PID.TID 0000.0001)                 1.514205500606167E+05,      /* J = 50 */
(PID.TID 0000.0001)                 1.356598568905725E+05,      /* J = 51 */
(PID.TID 0000.0001)                 1.195273294823923E+05,      /* J = 52 */
(PID.TID 0000.0001)                 1.030671859723435E+05,      /* J = 53 */
(PID.TID 0000.0001)                 8.632454246965688E+04,      /* J = 54 */
(PID.TID 0000.0001)                 6.934528939640634E+04,      /* J = 55 */
(PID.TID 0000.0001)                 5.217596570505216E+04       /* J = 56 */
(PID.TID 0000.0001)     ;
(PID.TID 0000.0001) dyU =  /* dyU(:,1,:,1) ( units: m ) */
(PID.TID 0000.0001)                 3.335324200561164E+05       /* I =  1 */
(PID.TID 0000.0001)     ;
(PID.TID 0000.0001) dyU =  /* dyU(1,:,1,:) ( units: m ) */
(PID.TID 0000.0001)    56 @  3.335324200561164E+05              /* J =  1: 56 */
(PID.TID 0000.0001)     ;
(PID.TID 0000.0001) rA  =  /* rA (:,1,:,1) ( units: m^2 ) */
(PID.TID 0000.0001)                 1.451858082901536E+10       /* I =  1 */
(PID.TID 0000.0001)     ;
(PID.TID 0000.0001) rA  =  /* rA (1,:,1,:) ( units: m^2 ) */
(PID.TID 0000.0001)                 1.451858082901536E+10,      /* J =  1 */
(PID.TID 0000.0001)                 2.027027037083401E+10,      /* J =  2 */
(PID.TID 0000.0001)                 2.596640051053460E+10,      /* J =  3 */
(PID.TID 0000.0001)                 3.159135855133891E+10,      /* J =  4 */
(PID.TID 0000.0001)                 3.712972687424187E+10,      /* J =  5 */
(PID.TID 0000.0001)                 4.256632519663855E+10,      /* J =  6 */
(PID.TID 0000.0001)                 4.788625218041992E+10,      /* J =  7 */
(PID.TID 0000.0001)                 5.307492627550784E+10,      /* J =  8 */
(PID.TID 0000.0001)                 5.811812568686684E+10,      /* J =  9 */
(PID.TID 0000.0001)                 6.300202735545998E+10,      /* J = 10 */
(PID.TID 0000.0001)                 6.771324484628893E+10,      /* J = 11 */
(PID.TID 0000.0001)                 7.223886503968413E+10,      /* J = 12 */
(PID.TID 0000.0001)                 7.656648352526761E+10,      /* J = 13 */
(PID.TID 0000.0001)                 8.068423860157887E+10,      /* J = 14 */
(PID.TID 0000.0001)                 8.458084378817659E+10,      /* J = 15 */
(PID.TID 0000.0001)                 8.824561876109258E+10,      /* J = 16 */
(PID.TID 0000.0001)                 9.166851862686266E+10,      /* J = 17 */
(PID.TID 0000.0001)                 9.484016145487706E+10,      /* J = 18 */
(PID.TID 0000.0001)                 9.775185399260205E+10,      /* J = 19 */
(PID.TID 0000.0001)                 1.003956154931818E+11,      /* J = 20 */
(PID.TID 0000.0001)                 1.027641995901083E+11,      /* J = 21 */
(PID.TID 0000.0001)                 1.048511141590102E+11,      /* J = 22 */
(PID.TID 0000.0001)                 1.066506391121138E+11,      /* J = 23 */
(PID.TID 0000.0001)                 1.081578420766062E+11,      /* J = 24 */
(PID.TID 0000.0001)                 1.093685919139261E+11,      /* J = 25 */
(PID.TID 0000.0001)                 1.102795700429274E+11,      /* J = 26 */
(PID.TID 0000.0001)                 1.108882795358801E+11,      /* J = 27 */
(PID.TID 0000.0001)     2 @  1.111930519623746E+11,             /* J = 28: 29 */
(PID.TID 0000.0001)                 1.108882795358801E+11,      /* J = 30 */
(PID.TID 0000.0001)                 1.102795700429274E+11,      /* J = 31 */
(PID.TID 0000.0001)                 1.093685919139261E+11,      /* J = 32 */
(PID.TID 0000.0001)                 1.081578420766062E+11,      /* J = 33 */
(PID.TID 0000.0001)                 1.066506391121138E+11,      /* J = 34 */
(PID.TID 0000.0001)                 1.048511141590102E+11,      /* J = 35 */
(PID.TID 0000.0001)                 1.027641995901083E+11,      /* J = 36 */
(PID.TID 0000.0001)                 1.003956154931818E+11,      /* J = 37 */
(PID.TID 0000.0001)                 9.775185399260205E+10,      /* J = 38 */
(PID.TID 0000.0001)                 9.484016145487706E+10,      /* J = 39 */
(PID.TID 0000.0001)                 9.166851862686266E+10,      /* J = 40 */
(PID.TID 0000.0001)                 8.824561876109258E+10,      /* J = 41 */
(PID.TID 0000.0001)                 8.458084378817659E+10,      /* J = 42 */
(PID.TID 0000.0001)                 8.068423860157887E+10,      /* J = 43 */
(PID.TID 0000.0001)                 7.656648352526761E+10,      /* J = 44 */
(PID.TID 0000.0001)                 7.223886503968413E+10,      /* J = 45 */
(PID.TID 0000.0001)                 6.771324484628893E+10,      /* J = 46 */
(PID.TID 0000.0001)                 6.300202735545998E+10,      /* J = 47 */
(PID.TID 0000.0001)                 5.811812568686684E+10,      /* J = 48 */
(PID.TID 0000.0001)                 5.307492627550784E+10,      /* J = 49 */
(PID.TID 0000.0001)                 4.788625218041992E+10,      /* J = 50 */
(PID.TID 0000.0001)                 4.256632519663855E+10,      /* J = 51 */
(PID.TID 0000.0001)                 3.712972687424187E+10,      /* J = 52 */
(PID.TID 0000.0001)                 3.159135855133891E+10,      /* J = 53 */
(PID.TID 0000.0001)                 2.596640051053460E+10,      /* J = 54 */
(PID.TID 0000.0001)                 2.027027037083401E+10,      /* J = 55 */
(PID.TID 0000.0001)                 1.451858082901536E+10       /* J = 56 */
(PID.TID 0000.0001)     ;
(PID.TID 0000.0001) rAw =  /* rAw(:,1,:,1) ( units: m^2 ) */
(PID.TID 0000.0001)                 1.451858082901536E+10       /* I =  1 */
(PID.TID 0000.0001)     ;
(PID.TID 0000.0001) rAw =  /* rAw(1,:,1,:) ( units: m^2 ) */
(PID.TID 0000.0001)                 1.451858082901536E+10,      /* J =  1 */
(PID.TID 0000.0001)                 2.027027037083401E+10,      /* J =  2 */
(PID.TID 0000.0001)                 2.596640051053460E+10,      /* J =  3 */
(PID.TID 0000.0001)                 3.159135855133891E+10,      /* J =  4 */
(PID.TID 0000.0001)                 3.712972687424187E+10,      /* J =  5 */
(PID.TID 0000.0001)                 4.256632519663855E+10,      /* J =  6 */
(PID.TID 0000.0001)                 4.788625218041992E+10,      /* J =  7 */
(PID.TID 0000.0001)                 5.307492627550784E+10,      /* J =  8 */
(PID.TID 0000.0001)                 5.811812568686684E+10,      /* J =  9 */
(PID.TID 0000.0001)                 6.300202735545998E+10,      /* J = 10 */
(PID.TID 0000.0001)                 6.771324484628893E+10,      /* J = 11 */
(PID.TID 0000.0001)                 7.223886503968413E+10,      /* J = 12 */
(PID.TID 0000.0001)                 7.656648352526761E+10,      /* J = 13 */
(PID.TID 0000.0001)                 8.068423860157887E+10,      /* J = 14 */
(PID.TID 0000.0001)                 8.458084378817659E+10,      /* J = 15 */
(PID.TID 0000.0001)                 8.824561876109258E+10,      /* J = 16 */
(PID.TID 0000.0001)                 9.166851862686266E+10,      /* J = 17 */
(PID.TID 0000.0001)                 9.484016145487706E+10,      /* J = 18 */
(PID.TID 0000.0001)                 9.775185399260205E+10,      /* J = 19 */
(PID.TID 0000.0001)                 1.003956154931818E+11,      /* J = 20 */
(PID.TID 0000.0001)                 1.027641995901083E+11,      /* J = 21 */
(PID.TID 0000.0001)                 1.048511141590102E+11,      /* J = 22 */
(PID.TID 0000.0001)                 1.066506391121138E+11,      /* J = 23 */
(PID.TID 0000.0001)                 1.081578420766062E+11,      /* J = 24 */
(PID.TID 0000.0001)                 1.093685919139261E+11,      /* J = 25 */
(PID.TID 0000.0001)                 1.102795700429274E+11,      /* J = 26 */
(PID.TID 0000.0001)                 1.108882795358801E+11,      /* J = 27 */
(PID.TID 0000.0001)     2 @  1.111930519623746E+11,             /* J = 28: 29 */
(PID.TID 0000.0001)                 1.108882795358801E+11,      /* J = 30 */
(PID.TID 0000.0001)                 1.102795700429274E+11,      /* J = 31 */
(PID.TID 0000.0001)                 1.093685919139261E+11,      /* J = 32 */
(PID.TID 0000.0001)                 1.081578420766062E+11,      /* J = 33 */
(PID.TID 0000.0001)                 1.066506391121138E+11,      /* J = 34 */
(PID.TID 0000.0001)                 1.048511141590102E+11,      /* J = 35 */
(PID.TID 0000.0001)                 1.027641995901083E+11,      /* J = 36 */
(PID.TID 0000.0001)                 1.003956154931818E+11,      /* J = 37 */
(PID.TID 0000.0001)                 9.775185399260205E+10,      /* J = 38 */
(PID.TID 0000.0001)                 9.484016145487706E+10,      /* J = 39 */
(PID.TID 0000.0001)                 9.166851862686266E+10,      /* J = 40 */
(PID.TID 0000.0001)                 8.824561876109258E+10,      /* J = 41 */
(PID.TID 0000.0001)                 8.458084378817659E+10,      /* J = 42 */
(PID.TID 0000.0001)                 8.068423860157887E+10,      /* J = 43 */
(PID.TID 0000.0001)                 7.656648352526761E+10,      /* J = 44 */
(PID.TID 0000.0001)                 7.223886503968413E+10,      /* J = 45 */
(PID.TID 0000.0001)                 6.771324484628893E+10,      /* J = 46 */
(PID.TID 0000.0001)                 6.300202735545998E+10,      /* J = 47 */
(PID.TID 0000.0001)                 5.811812568686684E+10,      /* J = 48 */
(PID.TID 0000.0001)                 5.307492627550784E+10,      /* J = 49 */
(PID.TID 0000.0001)                 4.788625218041992E+10,      /* J = 50 */
(PID.TID 0000.0001)                 4.256632519663855E+10,      /* J = 51 */
(PID.TID 0000.0001)                 3.712972687424187E+10,      /* J = 52 */
(PID.TID 0000.0001)                 3.159135855133891E+10,      /* J = 53 */
(PID.TID 0000.0001)                 2.596640051053460E+10,      /* J = 54 */
(PID.TID 0000.0001)                 2.027027037083401E+10,      /* J = 55 */
(PID.TID 0000.0001)                 1.451858082901536E+10       /* J = 56 */
(PID.TID 0000.0001)     ;
(PID.TID 0000.0001) rAs =  /* rAs(:,1,:,1) ( units: m^2 ) */
(PID.TID 0000.0001)                 1.162682306954695E+10       /* I =  1 */
(PID.TID 0000.0001)     ;
(PID.TID 0000.0001) rAs =  /* rAs(1,:,1,:) ( units: m^2 ) */
(PID.TID 0000.0001)                 1.162682306954695E+10,      /* J =  1 */
(PID.TID 0000.0001)                 1.740038827840316E+10,      /* J =  2 */
(PID.TID 0000.0001)                 2.312626023247488E+10,      /* J =  3 */
(PID.TID 0000.0001)                 2.878874471473547E+10,      /* J =  4 */
(PID.TID 0000.0001)                 3.437232124881438E+10,      /* J =  5 */
(PID.TID 0000.0001)                 3.986168563954120E+10,      /* J =  6 */
(PID.TID 0000.0001)                 4.524179192068169E+10,      /* J =  7 */
(PID.TID 0000.0001)                 5.049789359488558E+10,      /* J =  8 */
(PID.TID 0000.0001)                 5.561558405281213E+10,      /* J =  9 */
(PID.TID 0000.0001)                 6.058083606064116E+10,      /* J = 10 */
(PID.TID 0000.0001)                 6.538004020775079E+10,      /* J = 11 */
(PID.TID 0000.0001)                 7.000004220916154E+10,      /* J = 12 */
(PID.TID 0000.0001)                 7.442817896052029E+10,      /* J = 13 */
(PID.TID 0000.0001)                 7.865231324678772E+10,      /* J = 14 */
(PID.TID 0000.0001)                 8.266086700950050E+10,      /* J = 15 */
(PID.TID 0000.0001)                 8.644285308142711E+10,      /* J = 16 */
(PID.TID 0000.0001)                 8.998790530162651E+10,      /* J = 17 */
(PID.TID 0000.0001)                 9.328630692837677E+10,      /* J = 18 */
(PID.TID 0000.0001)                 9.632901727208771E+10,      /* J = 19 */
(PID.TID 0000.0001)                 9.910769647520410E+10,      /* J = 20 */
(PID.TID 0000.0001)                 1.016147283711733E+11,      /* J = 21 */
(PID.TID 0000.0001)                 1.038432413598305E+11,      /* J = 22 */
(PID.TID 0000.0001)                 1.057871272419753E+11,      /* J = 23 */
(PID.TID 0000.0001)                 1.074410579615233E+11,      /* J = 24 */
(PID.TID 0000.0001)                 1.088005002093347E+11,      /* J = 25 */
(PID.TID 0000.0001)                 1.098617278487027E+11,      /* J = 26 */
(PID.TID 0000.0001)                 1.106218321284322E+11,      /* J = 27 */
(PID.TID 0000.0001)                 1.110787296555271E+11,      /* J = 28 */
(PID.TID 0000.0001)                 1.112311681056240E+11,      /* J = 29 */
(PID.TID 0000.0001)                 1.110787296555271E+11,      /* J = 30 */
(PID.TID 0000.0001)                 1.106218321284322E+11,      /* J = 31 */
(PID.TID 0000.0001)                 1.098617278487027E+11,      /* J = 32 */
(PID.TID 0000.0001)                 1.088005002093347E+11,      /* J = 33 */
(PID.TID 0000.0001)                 1.074410579615233E+11,      /* J = 34 */
(PID.TID 0000.0001)                 1.057871272419753E+11,      /* J = 35 */
(PID.TID 0000.0001)                 1.038432413598305E+11,      /* J = 36 */
(PID.TID 0000.0001)                 1.016147283711733E+11,      /* J = 37 */
(PID.TID 0000.0001)                 9.910769647520410E+10,      /* J = 38 */
(PID.TID 0000.0001)                 9.632901727208771E+10,      /* J = 39 */
(PID.TID 0000.0001)                 9.328630692837677E+10,      /* J = 40 */
(PID.TID 0000.0001)                 8.998790530162651E+10,      /* J = 41 */
(PID.TID 0000.0001)                 8.644285308142711E+10,      /* J = 42 */
(PID.TID 0000.0001)                 8.266086700950050E+10,      /* J = 43 */
(PID.TID 0000.0001)                 7.865231324678772E+10,      /* J = 44 */
(PID.TID 0000.0001)                 7.442817896052029E+10,      /* J = 45 */
(PID.TID 0000.0001)                 7.000004220916154E+10,      /* J = 46 */
(PID.TID 0000.0001)                 6.538004020775079E+10,      /* J = 47 */
(PID.TID 0000.0001)                 6.058083606064116E+10,      /* J = 48 */
(PID.TID 0000.0001)                 5.561558405281213E+10,      /* J = 49 */
(PID.TID 0000.0001)                 5.049789359488558E+10,      /* J = 50 */
(PID.TID 0000.0001)                 4.524179192068169E+10,      /* J = 51 */
(PID.TID 0000.0001)                 3.986168563954120E+10,      /* J = 52 */
(PID.TID 0000.0001)                 3.437232124881438E+10,      /* J = 53 */
(PID.TID 0000.0001)                 2.878874471473547E+10,      /* J = 54 */
(PID.TID 0000.0001)                 2.312626023247488E+10,      /* J = 55 */
(PID.TID 0000.0001)                 1.740038827840316E+10       /* J = 56 */
(PID.TID 0000.0001)     ;
(PID.TID 0000.0001) globalArea = /* Integrated horizontal Area (m^2) */
(PID.TID 0000.0001)                 4.196888291048803E+12
(PID.TID 0000.0001)     ;
(PID.TID 0000.0001) // =======================================================
(PID.TID 0000.0001) // End of Model config. summary
(PID.TID 0000.0001) // =======================================================
(PID.TID 0000.0001) 
(PID.TID 0000.0001) == Packages configuration : Check & print summary ==
(PID.TID 0000.0001) 
(PID.TID 0000.0001) GMREDI_CHECK: #define GMREDI
(PID.TID 0000.0001) GM_AdvForm =     /* if FALSE => use SkewFlux Form */
(PID.TID 0000.0001)                   T
(PID.TID 0000.0001)     ;
(PID.TID 0000.0001) GM_InMomAsStress = /* if TRUE => apply as Eddy Stress */
(PID.TID 0000.0001)                   F
(PID.TID 0000.0001)     ;
(PID.TID 0000.0001) GM_AdvSeparate = /* Calc Bolus & Euler Adv. separately */
(PID.TID 0000.0001)                   F
(PID.TID 0000.0001)     ;
(PID.TID 0000.0001) GM_ExtraDiag =   /* Tensor Extra Diag (line 1&2) non 0 */
(PID.TID 0000.0001)                   T
(PID.TID 0000.0001)     ;
(PID.TID 0000.0001) GM_isopycK =    /* Background Isopyc. Diffusivity [m^2/s] */
(PID.TID 0000.0001)                 1.000000000000000E+01
(PID.TID 0000.0001)     ;
(PID.TID 0000.0001) GM_skewflx*K =  /* Background GM_SkewFlx Diffusivity [m^2/s] */
(PID.TID 0000.0001)                 0.000000000000000E+00
(PID.TID 0000.0001)     ;
(PID.TID 0000.0001) GM_advec*K =    /* Backg. GM-Advec(=Bolus) Diffusivity [m^2/s]*/
(PID.TID 0000.0001)                 1.000000000000000E+01
(PID.TID 0000.0001)     ;
(PID.TID 0000.0001) GM_Kmin_horiz = /* Minimum Horizontal Diffusivity [m^2/s] */
(PID.TID 0000.0001)                 0.000000000000000E+00
(PID.TID 0000.0001)     ;
(PID.TID 0000.0001) GM_Visbeck_alpha = /* Visbeck alpha coeff. [-] */
(PID.TID 0000.0001)                 0.000000000000000E+00
(PID.TID 0000.0001)     ;
(PID.TID 0000.0001) GM_Small_Number =  /* epsilon used in slope calc */
(PID.TID 0000.0001)                 1.000000000000000E-18
(PID.TID 0000.0001)     ;
(PID.TID 0000.0001) GM_slopeSqCutoff = /* Slope^2 cut-off value */
(PID.TID 0000.0001)                 1.000000000000000E+48
(PID.TID 0000.0001)     ;
(PID.TID 0000.0001) GM_taper_scheme =  /* Type of Tapering/Clipping scheme */
(PID.TID 0000.0001)               'linear                                  '
(PID.TID 0000.0001)     ;
(PID.TID 0000.0001) GM_maxSlope =  /* Maximum Slope (Tapering/Clipping) */
(PID.TID 0000.0001)                 1.000000000000000E-02
(PID.TID 0000.0001)     ;
(PID.TID 0000.0001) GM_facTrL2dz = /* Minimum Trans.Layer Thick. (factor of dz) */
(PID.TID 0000.0001)                 1.000000000000000E+00
(PID.TID 0000.0001)     ;
(PID.TID 0000.0001) GM_facTrL2ML = /* Max.Trans.Layer Thick. (factor of MxL Depth)*/
(PID.TID 0000.0001)                 5.000000000000000E+00
(PID.TID 0000.0001)     ;
(PID.TID 0000.0001) GM_maxTransLay = /* Maximum Transition Layer Thickness [m] */
(PID.TID 0000.0001)                 5.000000000000000E+02
(PID.TID 0000.0001)     ;
(PID.TID 0000.0001) GM_UseBVP = /* if TRUE => use bvp a la Ferrari et al. (2010) */
(PID.TID 0000.0001)                   F
(PID.TID 0000.0001)     ;
(PID.TID 0000.0001) GM_BVP_ModeNumber = /* Vertical mode number for BVP wave speed */
(PID.TID 0000.0001)                       1
(PID.TID 0000.0001)     ;
(PID.TID 0000.0001) GM_BVP_cMin = /* Minimum wave speed for BVP [m/s] */
(PID.TID 0000.0001)                 1.000000000000000E-01
(PID.TID 0000.0001)     ;
(PID.TID 0000.0001) GM_useSubMeso = /* if TRUE => use Sub-Meso param. (B.Fox-Kemper) */
(PID.TID 0000.0001)                   F
(PID.TID 0000.0001)     ;
(PID.TID 0000.0001) subMeso_Ceff = /* efficiency coeff. of Mixed-Layer Eddies [-] */
(PID.TID 0000.0001)                 7.000000000000001E-02
(PID.TID 0000.0001)     ;
(PID.TID 0000.0001) subMeso_invTau = /* inverse of Sub-Meso mixing time-scale [/s] */
(PID.TID 0000.0001)                 2.000000000000000E-06
(PID.TID 0000.0001)     ;
(PID.TID 0000.0001) subMeso_LfMin = /* minimum length-scale "Lf" [m] */
(PID.TID 0000.0001)                 1.000000000000000E+03
(PID.TID 0000.0001)     ;
(PID.TID 0000.0001) subMeso_Lmax = /* maximum grid-scale length [m] */
(PID.TID 0000.0001)                 1.100000000000000E+05
(PID.TID 0000.0001)     ;
(PID.TID 0000.0001) GM_useLeithQG = /* if TRUE => add QG Leith viscosity to GMRedi tensor */
(PID.TID 0000.0001)                   F
(PID.TID 0000.0001)     ;
(PID.TID 0000.0001) GM_useGEOM = /* using GEOMETRIC */
(PID.TID 0000.0001)                   T
(PID.TID 0000.0001)     ;
(PID.TID 0000.0001) GEOM_alpha = /* GEOM alpha coeff. [-] */
(PID.TID 0000.0001)                 8.000000000000000E-02
(PID.TID 0000.0001)     ;
(PID.TID 0000.0001) GEOM_lmbda = /* GEOM energy diss time-scale [/s] */
(PID.TID 0000.0001)                 1.160000000000000E-07
(PID.TID 0000.0001)     ;
(PID.TID 0000.0001) GAD_CHECK: #define ALLOW_GENERIC_ADVDIFF
(PID.TID 0000.0001) // =======================================================
(PID.TID 0000.0001) // Check Model config. (CONFIG_CHECK):
(PID.TID 0000.0001) // CONFIG_CHECK : Normal End
(PID.TID 0000.0001) // =======================================================
(PID.TID 0000.0001) 
(PID.TID 0000.0001)  MDS_READ_META: opening file: pickup.0000036000.meta
(PID.TID 0000.0001)  nRecords =   0 ; filePrec =  64 ; fileIter =         0
(PID.TID 0000.0001)     nDims =   0 , dims:
(PID.TID 0000.0001)     nFlds =   0 , nFl3D =   0 , fields:
(PID.TID 0000.0001) missingVal=  1.00000000000000E+00 ; nTimRec =   0 , timeList:
(PID.TID 0000.0001)  MDS_READ_FIELD: opening global file: pickup.0000036000
(PID.TID 0000.0001)  MDS_READ_FIELD: opening global file: pickup.0000036000
(PID.TID 0000.0001)  MDS_READ_FIELD: opening global file: pickup.0000036000
(PID.TID 0000.0001)  MDS_READ_FIELD: opening global file: pickup.0000036000
(PID.TID 0000.0001)  MDS_READ_FIELD: opening global file: pickup.0000036000
(PID.TID 0000.0001)  MDS_READ_FIELD: opening global file: pickup.0000036000
(PID.TID 0000.0001)  MDS_READ_FIELD: opening global file: pickup.0000036000
(PID.TID 0000.0001)  MDS_READ_FIELD: opening global file: pickup.0000036000
(PID.TID 0000.0001)  MDS_READ_FIELD: opening global file: pickup.0000036000
(PID.TID 0000.0001)  MDS_READ_FIELD: opening global file: pickup.0000036000
(PID.TID 0000.0001)  MDS_READ_FIELD: opening global file: pickup.0000036000
(PID.TID 0000.0001) READ_MFLDS_CHECK: - normal end ; reset MFLDS file-name: pickup.0000036000
(PID.TID 0000.0001)  MDS_READ_FIELD: opening global file: taux_sl.bin
(PID.TID 0000.0001)  MDS_READ_FIELD: opening global file: sst_sl.bin
(PID.TID 0000.0001)  write diagnostics summary to file ioUnit:      6
Iter.Nb:     36000 ; Time(s):  3.1104000000000E+09
------------------------------------------------------------------------
2D/3D diagnostics: Number of lists:     4
------------------------------------------------------------------------
listId=    1 ; file name: surfDiag
 nFlds, nActive,       freq     &     phase        , nLev               
    6  |    6  |   -864000.000000    432000.000000 |   1
 levels:   1
 diag# | name   |   ipt  |  iMate | kLev|   count |   mate.C|           
    23 |ETAN    |      1 |      0 |   1 |       0 |
    24 |ETANSQ  |      2 |      0 |   1 |       0 |
    25 |DETADT2 |      3 |      0 |   1 |       0 |
    73 |PHIBOT  |      4 |      0 |   1 |       0 |
    74 |PHIBOTSQ|      5 |      0 |   1 |       0 |
   203 |GM_VisbK|      6 |      0 |   1 |       0 |
------------------------------------------------------------------------
listId=    2 ; file name: dynDiag
 nFlds, nActive,       freq     &     phase        , nLev               
   12  |   12  |   1728000.000000         0.000000 |  15
 levels:   1   2   3   4   5   6   7   8   9  10  11  12  13  14  15
 diag# | name   |   ipt  |  iMate | kLev|   count |   mate.C|           
    30 |UVEL    |      7 |     22 |  15 |       0 |       0 |
    31 |VVEL    |     22 |      7 |  15 |       0 |       0 |
    32 |WVEL    |     37 |      0 |  15 |       0 |
    71 |PHIHYD  |     52 |      0 |  15 |       0 |
    46 |VVELMASS|     67 |      0 |  15 |       0 |
    26 |THETA   |     82 |      0 |  15 |       0 |
    51 |VTHMASS |     97 |      0 |  15 |       0 |
    52 |WTHMASS |    112 |      0 |  15 |       0 |
    33 |THETASQ |    127 |      0 |  15 |       0 |
    36 |UVELSQ  |    142 |      0 |  15 |       0 |
    42 |UV_VEL_Z|    157 |    157 |  15 |       0 |       0 |
    43 |WU_VEL  |    172 |      0 |  15 |       0 |
------------------------------------------------------------------------
listId=    3 ; file name: oceDiag
 nFlds, nActive,       freq     &     phase        , nLev               
    7  |    7  |    864000.000000         0.000000 |  12
 levels:   2   3   4   5   6   7   8   9  10  11  12  13
 diag# | name   |   ipt  |  iMate | kLev|   count |   mate.C|           
    77 |DRHODR  |    187 |      0 |  15 |       0 |
    64 |RHOAnoma|    202 |      0 |  15 |       0 |
   218 |GM_PsiY |    217 |      0 |  15 |       0 |
   211 |GM_Kvy  |    232 |      0 |  15 |       0 |
   213 |GM_Kvz  |    247 |      0 |  15 |       0 |
   215 |GM_Kwy  |    262 |      0 |  15 |       0 |
   216 |GM_Kwz  |    277 |      0 |  15 |       0 |
------------------------------------------------------------------------
listId=    4 ; file name: flxDiag
 nFlds, nActive,       freq     &     phase        , nLev               
    5  |    5  |   1728000.000000         0.000000 |  15
 levels:   1   2   3   4   5   6   7   8   9  10  11  12  13  14  15
 diag# | name   |   ipt  |  iMate | kLev|   count |   mate.C|           
   111 |ADVy_TH |    292 |      0 |  15 |       0 |
   109 |ADVr_TH |    307 |      0 |  15 |       0 |
   114 |DFyE_TH |    322 |      0 |  15 |       0 |
   112 |DFrE_TH |    337 |      0 |  15 |       0 |
   115 |DFrI_TH |    352 |      0 |  15 |       0 |
------------------------------------------------------------------------
Global & Regional Statistics diagnostics: Number of lists:     1
------------------------------------------------------------------------
listId=   1 ; file name: dynStDiag
 nFlds, nActive,       freq     &     phase        |                    
    5  |    5  |   -864000.000000         0.000000 |
 Regions:   0
 diag# | name   |   ipt  |  iMate |    Volume   |   mate-Vol. |         
    23 |ETAN    |      1 |      0 | 0.00000E+00 |
    30 |UVEL    |      2 |      0 | 0.00000E+00 |
    31 |VVEL    |     17 |      0 | 0.00000E+00 |
    32 |WVEL    |     32 |      0 | 0.00000E+00 |
    26 |THETA   |     47 |      0 | 0.00000E+00 |
------------------------------------------------------------------------
(PID.TID 0000.0001)  MDS_READ_FIELD: opening global file: pickup_cd.0000036000
(PID.TID 0000.0001)  MDS_READ_FIELD: opening global file: pickup_cd.0000036000
(PID.TID 0000.0001)  MDS_READ_FIELD: opening global file: pickup_cd.0000036000
(PID.TID 0000.0001)  MDS_READ_FIELD: opening global file: pickup_cd.0000036000
(PID.TID 0000.0001)  MDS_READ_FIELD: opening global file: pickup_cd.0000036000
(PID.TID 0000.0001) // =======================================================
(PID.TID 0000.0001) // Model current state
(PID.TID 0000.0001) // =======================================================
(PID.TID 0000.0001) 
(PID.TID 0000.0001) // =======================================================
(PID.TID 0000.0001) // Begin MONITOR dynamic field statistics
(PID.TID 0000.0001) // =======================================================
(PID.TID 0000.0001) %MON time_tsnumber                =                 36000
(PID.TID 0000.0001) %MON time_secondsf                =   3.1104000000000E+09
(PID.TID 0000.0001) %MON dynstat_eta_max              =   1.6201005177854E+00
(PID.TID 0000.0001) %MON dynstat_eta_min              =  -3.9377441396023E+00
(PID.TID 0000.0001) %MON dynstat_eta_mean             =  -2.2337978401749E-16
(PID.TID 0000.0001) %MON dynstat_eta_sd               =   1.6563991723224E+00
(PID.TID 0000.0001) %MON dynstat_eta_del2             =   8.2898717888091E-03
(PID.TID 0000.0001) %MON dynstat_uvel_max             =   1.4272657430544E-01
(PID.TID 0000.0001) %MON dynstat_uvel_min             =  -3.8630916679110E-01
(PID.TID 0000.0001) %MON dynstat_uvel_mean            =   1.2659893360806E-02
(PID.TID 0000.0001) %MON dynstat_uvel_sd              =   3.8710511996223E-02
(PID.TID 0000.0001) %MON dynstat_uvel_del2            =   1.3225012120299E-04
(PID.TID 0000.0001) %MON dynstat_vvel_max             =   2.2999750655636E-02
(PID.TID 0000.0001) %MON dynstat_vvel_min             =  -2.2999750655604E-02
(PID.TID 0000.0001) %MON dynstat_vvel_mean            =   1.0386723279140E-15
(PID.TID 0000.0001) %MON dynstat_vvel_sd              =   1.5486266626369E-03
(PID.TID 0000.0001) %MON dynstat_vvel_del2            =   3.0853564726347E-05
(PID.TID 0000.0001) %MON dynstat_wvel_max             =   1.3691712526229E-06
(PID.TID 0000.0001) %MON dynstat_wvel_min             =  -8.1261601801595E-07
(PID.TID 0000.0001) %MON dynstat_wvel_mean            =   1.1713075619071E-23
(PID.TID 0000.0001) %MON dynstat_wvel_sd              =   2.5358259198888E-07
(PID.TID 0000.0001) %MON dynstat_wvel_del2            =   9.3390356470747E-09
(PID.TID 0000.0001) %MON dynstat_theta_max            =   2.6657021468384E+01
(PID.TID 0000.0001) %MON dynstat_theta_min            =  -9.3075890930299E-01
(PID.TID 0000.0001) %MON dynstat_theta_mean           =   2.2239378147708E+00
(PID.TID 0000.0001) %MON dynstat_theta_sd             =   3.9264791989428E+00
(PID.TID 0000.0001) %MON dynstat_theta_del2           =   1.3380453240852E-02
(PID.TID 0000.0001) %MON dynstat_salt_max             =   3.4700000000000E+01
(PID.TID 0000.0001) %MON dynstat_salt_min             =   3.4700000000000E+01
(PID.TID 0000.0001) %MON dynstat_salt_mean            =   3.4700000000000E+01
(PID.TID 0000.0001) %MON dynstat_salt_sd              =   7.1054273576010E-15
(PID.TID 0000.0001) %MON dynstat_salt_del2            =   0.0000000000000E+00
(PID.TID 0000.0001) %MON trAdv_CFL_u_max              =   0.0000000000000E+00
(PID.TID 0000.0001) %MON trAdv_CFL_v_max              =   0.0000000000000E+00
(PID.TID 0000.0001) %MON trAdv_CFL_w_max              =   0.0000000000000E+00
(PID.TID 0000.0001) %MON advcfl_uvel_max              =   1.0010587105295E-01
(PID.TID 0000.0001) %MON advcfl_vvel_max              =   5.9579769076500E-03
(PID.TID 0000.0001) %MON advcfl_wvel_max              =   1.9716066037770E-03
(PID.TID 0000.0001) %MON advcfl_W_hf_max              =   2.3659279245324E-03
(PID.TID 0000.0001) %MON pe_b_mean                    =   2.5880083768528E-03
(PID.TID 0000.0001) %MON ke_max                       =   7.4646746291426E-02
(PID.TID 0000.0001) %MON ke_mean                      =   8.3067694548141E-04
(PID.TID 0000.0001) %MON ke_vol                       =   2.1823819113454E+16
(PID.TID 0000.0001) %MON vort_r_min                   =  -1.7696079550502E-07
(PID.TID 0000.0001) %MON vort_r_max                   =   1.7696079550484E-07
(PID.TID 0000.0001) %MON vort_a_mean                  =  -1.1144501822451E-20
(PID.TID 0000.0001) %MON vort_a_sd                    =   8.3492783019949E-05
(PID.TID 0000.0001) %MON vort_p_mean                  =  -1.1213977667274E-20
(PID.TID 0000.0001) %MON vort_p_sd                    =   8.6788005162860E-05
(PID.TID 0000.0001) %MON surfExpan_theta_mean         =   8.7743901385970E-09
(PID.TID 0000.0001) %MON surfExpan_salt_mean          =  -4.0220802876522E-22
(PID.TID 0000.0001) // =======================================================
(PID.TID 0000.0001) // End MONITOR dynamic field statistics
(PID.TID 0000.0001) // =======================================================
GMREDI_CALC_GEOM: tile diag  t       =   100.00000 yr,   kgm_max =    50.00000 m2/s,   eE_avg  =     0.00001 m2/s2 
GMREDI_CALC_GEOM: tile diag  t       =   100.00000 yr,   kgm_max =    50.00000 m2/s,   eE_avg  =     0.00001 m2/s2 
GMREDI_CALC_GEOM: tile diag  t       =   100.00000 yr,   kgm_max =    50.00000 m2/s,   eE_avg  =     0.00001 m2/s2 
GMREDI_CALC_GEOM: tile diag  t       =   100.00000 yr,   kgm_max =    50.00000 m2/s,   eE_avg  =     0.00002 m2/s2 
(PID.TID 0000.0001) SOLVE_FOR_PRESSURE: putPmEinXvector =    F
 cg2d: Sum(rhs),rhsMax =   5.32907051820075E-15  1.48274215209469E+00
(PID.TID 0000.0001)      cg2d_init_res =   2.37439074302839E-03
(PID.TID 0000.0001)      cg2d_iters(min,last) =      -1      27
(PID.TID 0000.0001)      cg2d_last_res =   4.70802056544499E-18
(PID.TID 0000.0001) // =======================================================
(PID.TID 0000.0001) // Begin MONITOR dynamic field statistics
(PID.TID 0000.0001) // =======================================================
(PID.TID 0000.0001) %MON time_tsnumber                =                 36001
(PID.TID 0000.0001) %MON time_secondsf                =   3.1104864000000E+09
(PID.TID 0000.0001) %MON dynstat_eta_max              =   1.6197579170577E+00
(PID.TID 0000.0001) %MON dynstat_eta_min              =  -3.9378560706589E+00
(PID.TID 0000.0001) %MON dynstat_eta_mean             =  -2.9783971202332E-16
(PID.TID 0000.0001) %MON dynstat_eta_sd               =   1.6561523455920E+00
(PID.TID 0000.0001) %MON dynstat_eta_del2             =   8.2875508680172E-03
(PID.TID 0000.0001) %MON dynstat_uvel_max             =   1.4272482194427E-01
(PID.TID 0000.0001) %MON dynstat_uvel_min             =  -3.8630878499103E-01
(PID.TID 0000.0001) %MON dynstat_uvel_mean            =   1.2663283572500E-02
(PID.TID 0000.0001) %MON dynstat_uvel_sd              =   3.8711052389780E-02
(PID.TID 0000.0001) %MON dynstat_uvel_del2            =   1.3225389287797E-04
(PID.TID 0000.0001) %MON dynstat_vvel_max             =   2.3036901788254E-02
(PID.TID 0000.0001) %MON dynstat_vvel_min             =  -2.3036901788222E-02
(PID.TID 0000.0001) %MON dynstat_vvel_mean            =   9.5037183143305E-16
(PID.TID 0000.0001) %MON dynstat_vvel_sd              =   1.5499295000558E-03
(PID.TID 0000.0001) %MON dynstat_vvel_del2            =   3.0854078002705E-05
(PID.TID 0000.0001) %MON dynstat_wvel_max             =   1.4036135034580E-06
(PID.TID 0000.0001) %MON dynstat_wvel_min             =  -8.7718031987211E-07
(PID.TID 0000.0001) %MON dynstat_wvel_mean            =   2.9282689047677E-24
(PID.TID 0000.0001) %MON dynstat_wvel_sd              =   2.5756322370356E-07
(PID.TID 0000.0001) %MON dynstat_wvel_del2            =   9.3248347021044E-09
(PID.TID 0000.0001) %MON dynstat_theta_max            =   2.6657529046432E+01
(PID.TID 0000.0001) %MON dynstat_theta_min            =  -9.3096720501050E-01
(PID.TID 0000.0001) %MON dynstat_theta_mean           =   2.2239435285019E+00
(PID.TID 0000.0001) %MON dynstat_theta_sd             =   3.9265264878000E+00
(PID.TID 0000.0001) %MON dynstat_theta_del2           =   1.3381911189866E-02
(PID.TID 0000.0001) %MON dynstat_salt_max             =   3.4700000000000E+01
(PID.TID 0000.0001) %MON dynstat_salt_min             =   3.4700000000000E+01
(PID.TID 0000.0001) %MON dynstat_salt_mean            =   3.4700000000000E+01
(PID.TID 0000.0001) %MON dynstat_salt_sd              =   7.1054273576010E-15
(PID.TID 0000.0001) %MON dynstat_salt_del2            =   0.0000000000000E+00
(PID.TID 0000.0001) %MON trAdv_CFL_u_max              =   1.0011720826574E-01
(PID.TID 0000.0001) %MON trAdv_CFL_v_max              =   5.9240768671580E-03
(PID.TID 0000.0001) %MON trAdv_CFL_w_max              =   2.2885719856377E-03
(PID.TID 0000.0001) %MON advcfl_uvel_max              =   1.0010577211554E-01
(PID.TID 0000.0001) %MON advcfl_vvel_max              =   5.9676007332967E-03
(PID.TID 0000.0001) %MON advcfl_wvel_max              =   2.0212034449795E-03
(PID.TID 0000.0001) %MON advcfl_W_hf_max              =   2.4254441339754E-03
(PID.TID 0000.0001) %MON pe_b_mean                    =   2.5872371351592E-03
(PID.TID 0000.0001) %MON ke_max                       =   7.4646631385576E-02
(PID.TID 0000.0001) %MON ke_mean                      =   8.3074280692437E-04
(PID.TID 0000.0001) %MON ke_vol                       =   2.1823819113454E+16
(PID.TID 0000.0001) %MON vort_r_min                   =  -1.7696384836033E-07
(PID.TID 0000.0001) %MON vort_r_max                   =   1.7696384836015E-07
(PID.TID 0000.0001) %MON vort_a_mean                  =   0.0000000000000E+00
(PID.TID 0000.0001) %MON vort_a_sd                    =   8.3492783752788E-05
(PID.TID 0000.0001) %MON vort_p_mean                  =   0.0000000000000E+00
(PID.TID 0000.0001) %MON vort_p_sd                    =   8.6788005755102E-05
(PID.TID 0000.0001) %MON surfExpan_theta_mean         =  -8.6285850349744E-07
(PID.TID 0000.0001) %MON surfExpan_salt_mean          =   1.1095393896971E-22
(PID.TID 0000.0001) // =======================================================
(PID.TID 0000.0001) // End MONITOR dynamic field statistics
(PID.TID 0000.0001) // =======================================================
 Compute Stats, Diag. #     23  ETAN      vol(   0 ): 4.197E+12  Parms: SM      M1      
 Compute Stats, Diag. #     30  UVEL      vol(   0 ): 2.182E+16  Parms: UUR     MR      
 Compute Stats, Diag. #     31  VVEL      vol(   0 ): 2.173E+16  Parms: VVR     MR      
 Compute Stats, Diag. #     32  WVEL      vol(   0 ): 2.035E+16  Parms: WM      LR      
 Compute Stats, Diag. #     26  THETA     vol(   0 ): 2.182E+16  Parms: SMR     MR      
GMREDI_CALC_GEOM: tile diag  t       =   100.00278 yr,   kgm_max =    50.00000 m2/s,   eE_avg  =     0.00002 m2/s2 
GMREDI_CALC_GEOM: tile diag  t       =   100.00278 yr,   kgm_max =    50.00000 m2/s,   eE_avg  =     0.00001 m2/s2 
GMREDI_CALC_GEOM: tile diag  t       =   100.00278 yr,   kgm_max =    50.00000 m2/s,   eE_avg  =     0.00002 m2/s2 
GMREDI_CALC_GEOM: tile diag  t       =   100.00278 yr,   kgm_max =    50.00000 m2/s,   eE_avg  =     0.00003 m2/s2 
 cg2d: Sum(rhs),rhsMax =   1.42108547152020E-14  1.48218097283482E+00
(PID.TID 0000.0001)      cg2d_init_res =   3.72979144729493E-03
(PID.TID 0000.0001)      cg2d_iters(min,last) =      -1      27
(PID.TID 0000.0001)      cg2d_last_res =   1.26141275562205E-17
(PID.TID 0000.0001) // =======================================================
(PID.TID 0000.0001) // Begin MONITOR dynamic field statistics
(PID.TID 0000.0001) // =======================================================
(PID.TID 0000.0001) %MON time_tsnumber                =                 36002
(PID.TID 0000.0001) %MON time_secondsf                =   3.1105728000000E+09
(PID.TID 0000.0001) %MON dynstat_eta_max              =   1.6191797181564E+00
(PID.TID 0000.0001) %MON dynstat_eta_min              =  -3.9378497073485E+00
(PID.TID 0000.0001) %MON dynstat_eta_mean             =  -2.9783971202332E-16
(PID.TID 0000.0001) %MON dynstat_eta_sd               =   1.6556930113412E+00
(PID.TID 0000.0001) %MON dynstat_eta_del2             =   8.2839103324057E-03
(PID.TID 0000.0001) %MON dynstat_uvel_max             =   1.4272581586886E-01
(PID.TID 0000.0001) %MON dynstat_uvel_min             =  -3.8630829684957E-01
(PID.TID 0000.0001) %MON dynstat_uvel_mean            =   1.2669678977198E-02
(PID.TID 0000.0001) %MON dynstat_uvel_sd              =   3.8712187537526E-02
(PID.TID 0000.0001) %MON dynstat_uvel_del2            =   1.3225872958359E-04
(PID.TID 0000.0001) %MON dynstat_vvel_max             =   2.3076970913574E-02
(PID.TID 0000.0001) %MON dynstat_vvel_min             =  -2.3076970913542E-02
(PID.TID 0000.0001) %MON dynstat_vvel_mean            =   1.0454859902812E-15
(PID.TID 0000.0001) %MON dynstat_vvel_sd              =   1.5520237359466E-03
(PID.TID 0000.0001) %MON dynstat_vvel_del2            =   3.0855432060046E-05
(PID.TID 0000.0001) %MON dynstat_wvel_max             =   1.3274407284133E-06
(PID.TID 0000.0001) %MON dynstat_wvel_min             =  -9.3189226318512E-07
(PID.TID 0000.0001) %MON dynstat_wvel_mean            =   2.3426151238142E-23
(PID.TID 0000.0001) %MON dynstat_wvel_sd              =   2.7164289228864E-07
(PID.TID 0000.0001) %MON dynstat_wvel_del2            =   9.3545456382818E-09
(PID.TID 0000.0001) %MON dynstat_theta_max            =   2.6658393149794E+01
(PID.TID 0000.0001) %MON dynstat_theta_min            =  -9.3077190061781E-01
(PID.TID 0000.0001) %MON dynstat_theta_mean           =   2.2239633316965E+00
(PID.TID 0000.0001) %MON dynstat_theta_sd             =   3.9266186822540E+00
(PID.TID 0000.0001) %MON dynstat_theta_del2           =   1.3383446316885E-02
(PID.TID 0000.0001) %MON dynstat_salt_max             =   3.4700000000000E+01
(PID.TID 0000.0001) %MON dynstat_salt_min             =   3.4700000000000E+01
(PID.TID 0000.0001) %MON dynstat_salt_mean            =   3.4700000000000E+01
(PID.TID 0000.0001) %MON dynstat_salt_sd              =   7.1054273576010E-15
(PID.TID 0000.0001) %MON dynstat_salt_del2            =   0.0000000000000E+00
(PID.TID 0000.0001) %MON trAdv_CFL_u_max              =   1.0011708175720E-01
(PID.TID 0000.0001) %MON trAdv_CFL_v_max              =   5.9344038092635E-03
(PID.TID 0000.0001) %MON trAdv_CFL_w_max              =   2.9299022554234E-03
(PID.TID 0000.0001) %MON advcfl_uvel_max              =   1.0010564562145E-01
(PID.TID 0000.0001) %MON advcfl_vvel_max              =   5.9779804511877E-03
(PID.TID 0000.0001) %MON advcfl_wvel_max              =   1.9115146489151E-03
(PID.TID 0000.0001) %MON advcfl_W_hf_max              =   2.2938175786982E-03
(PID.TID 0000.0001) %MON pe_b_mean                    =   2.5858021924961E-03
(PID.TID 0000.0001) %MON ke_max                       =   7.4646506757802E-02
(PID.TID 0000.0001) %MON ke_mean                      =   8.3087100578133E-04
(PID.TID 0000.0001) %MON ke_vol                       =   2.1823819113454E+16
(PID.TID 0000.0001) %MON vort_r_min                   =  -1.7696877014078E-07
(PID.TID 0000.0001) %MON vort_r_max                   =   1.7696877014060E-07
(PID.TID 0000.0001) %MON vort_a_mean                  =  -1.3930627278063E-20
(PID.TID 0000.0001) %MON vort_a_sd                    =   8.3492785114677E-05
(PID.TID 0000.0001) %MON vort_p_mean                  =  -1.4017472084093E-20
(PID.TID 0000.0001) %MON vort_p_sd                    =   8.6788006977645E-05
(PID.TID 0000.0001) %MON surfExpan_theta_mean         =  -1.6269576516974E-06
(PID.TID 0000.0001) %MON surfExpan_salt_mean          =   0.0000000000000E+00
(PID.TID 0000.0001) // =======================================================
(PID.TID 0000.0001) // End MONITOR dynamic field statistics
(PID.TID 0000.0001) // =======================================================
GMREDI_CALC_GEOM: tile diag  t       =   100.00556 yr,   kgm_max =    50.00000 m2/s,   eE_avg  =     0.00003 m2/s2 
GMREDI_CALC_GEOM: tile diag  t       =   100.00556 yr,   kgm_max =    50.00000 m2/s,   eE_avg  =     0.00002 m2/s2 
GMREDI_CALC_GEOM: tile diag  t       =   100.00556 yr,   kgm_max =    50.00000 m2/s,   eE_avg  =     0.00002 m2/s2 
GMREDI_CALC_GEOM: tile diag  t       =   100.00556 yr,   kgm_max =    50.00000 m2/s,   eE_avg  =     0.00004 m2/s2 
 cg2d: Sum(rhs),rhsMax =   1.06581410364015E-14  1.48152009970264E+00
(PID.TID 0000.0001)      cg2d_init_res =   4.64638643111296E-03
(PID.TID 0000.0001)      cg2d_iters(min,last) =      -1      27
(PID.TID 0000.0001)      cg2d_last_res =   1.02032225619291E-17
(PID.TID 0000.0001) // =======================================================
(PID.TID 0000.0001) // Begin MONITOR dynamic field statistics
(PID.TID 0000.0001) // =======================================================
(PID.TID 0000.0001) %MON time_tsnumber                =                 36003
(PID.TID 0000.0001) %MON time_secondsf                =   3.1106592000000E+09
(PID.TID 0000.0001) %MON dynstat_eta_max              =   1.6184970754307E+00
(PID.TID 0000.0001) %MON dynstat_eta_min              =  -3.9375714555420E+00
(PID.TID 0000.0001) %MON dynstat_eta_mean             =  -2.2337978401749E-16
(PID.TID 0000.0001) %MON dynstat_eta_sd               =   1.6550649552560E+00
(PID.TID 0000.0001) %MON dynstat_eta_del2             =   8.2803623949396E-03
(PID.TID 0000.0001) %MON dynstat_uvel_max             =   1.4272862428523E-01
(PID.TID 0000.0001) %MON dynstat_uvel_min             =  -3.8630793003044E-01
(PID.TID 0000.0001) %MON dynstat_uvel_mean            =   1.2678799419218E-02
(PID.TID 0000.0001) %MON dynstat_uvel_sd              =   3.8713836130954E-02
(PID.TID 0000.0001) %MON dynstat_uvel_del2            =   1.3226410891485E-04
(PID.TID 0000.0001) %MON dynstat_vvel_max             =   2.3119778852109E-02
(PID.TID 0000.0001) %MON dynstat_vvel_min             =  -2.3119778852076E-02
(PID.TID 0000.0001) %MON dynstat_vvel_mean            =   1.1804308624090E-15
(PID.TID 0000.0001) %MON dynstat_vvel_sd              =   1.5544882793785E-03
(PID.TID 0000.0001) %MON dynstat_vvel_del2            =   3.0857688517431E-05
(PID.TID 0000.0001) %MON dynstat_wvel_max             =   1.2070603350667E-06
(PID.TID 0000.0001) %MON dynstat_wvel_min             =  -9.6193340116258E-07
(PID.TID 0000.0001) %MON dynstat_wvel_mean            =   0.0000000000000E+00
(PID.TID 0000.0001) %MON dynstat_wvel_sd              =   2.8759553004910E-07
(PID.TID 0000.0001) %MON dynstat_wvel_del2            =   9.3551979242043E-09
(PID.TID 0000.0001) %MON dynstat_theta_max            =   2.6659625577832E+01
(PID.TID 0000.0001) %MON dynstat_theta_min            =  -9.3077323728890E-01
(PID.TID 0000.0001) %MON dynstat_theta_mean           =   2.2239948502408E+00
(PID.TID 0000.0001) %MON dynstat_theta_sd             =   3.9267481352072E+00
(PID.TID 0000.0001) %MON dynstat_theta_del2           =   1.3384604465778E-02
(PID.TID 0000.0001) %MON dynstat_salt_max             =   3.4700000000000E+01
(PID.TID 0000.0001) %MON dynstat_salt_min             =   3.4700000000000E+01
(PID.TID 0000.0001) %MON dynstat_salt_mean            =   3.4700000000000E+01
(PID.TID 0000.0001) %MON dynstat_salt_sd              =   7.1054273576010E-15
(PID.TID 0000.0001) %MON dynstat_salt_del2            =   0.0000000000000E+00
(PID.TID 0000.0001) %MON trAdv_CFL_u_max              =   1.0011698669100E-01
(PID.TID 0000.0001) %MON trAdv_CFL_v_max              =   5.9454374674758E-03
(PID.TID 0000.0001) %MON trAdv_CFL_w_max              =   3.7045851265141E-03
(PID.TID 0000.0001) %MON advcfl_uvel_max              =   1.0010555056611E-01
(PID.TID 0000.0001) %MON advcfl_vvel_max              =   5.9890696457217E-03
(PID.TID 0000.0001) %MON advcfl_wvel_max              =   1.7381668824961E-03
(PID.TID 0000.0001) %MON advcfl_W_hf_max              =   2.0858002589953E-03
(PID.TID 0000.0001) %MON pe_b_mean                    =   2.5838408134619E-03
(PID.TID 0000.0001) %MON ke_max                       =   7.4646441599550E-02
(PID.TID 0000.0001) %MON ke_mean                      =   8.3105425427789E-04
(PID.TID 0000.0001) %MON ke_vol                       =   2.1823819113454E+16
(PID.TID 0000.0001) %MON vort_r_min                   =  -1.7697516673840E-07
(PID.TID 0000.0001) %MON vort_r_max                   =   1.7697516673822E-07
(PID.TID 0000.0001) %MON vort_a_mean                  =  -2.7861254556126E-21
(PID.TID 0000.0001) %MON vort_a_sd                    =   8.3492787030769E-05
(PID.TID 0000.0001) %MON vort_p_mean                  =  -2.8034944168185E-21
(PID.TID 0000.0001) %MON vort_p_sd                    =   8.6788008795053E-05
(PID.TID 0000.0001) %MON surfExpan_theta_mean         =  -2.2539935719873E-06
(PID.TID 0000.0001) %MON surfExpan_salt_mean          =  -2.2190787793943E-22
(PID.TID 0000.0001) // =======================================================
(PID.TID 0000.0001) // End MONITOR dynamic field statistics
(PID.TID 0000.0001) // =======================================================
GMREDI_CALC_GEOM: tile diag  t       =   100.00833 yr,   kgm_max =    50.00000 m2/s,   eE_avg  =     0.00004 m2/s2 
GMREDI_CALC_GEOM: tile diag  t       =   100.00833 yr,   kgm_max =    50.00000 m2/s,   eE_avg  =     0.00002 m2/s2 
GMREDI_CALC_GEOM: tile diag  t       =   100.00833 yr,   kgm_max =    50.00000 m2/s,   eE_avg  =     0.00002 m2/s2 
GMREDI_CALC_GEOM: tile diag  t       =   100.00833 yr,   kgm_max =    50.00000 m2/s,   eE_avg  =     0.00005 m2/s2 
 cg2d: Sum(rhs),rhsMax =   1.06581410364015E-14  1.48088309237527E+00
(PID.TID 0000.0001)      cg2d_init_res =   5.25311300017503E-03
(PID.TID 0000.0001)      cg2d_iters(min,last) =      -1      27
(PID.TID 0000.0001)      cg2d_last_res =   2.09956477515844E-17
(PID.TID 0000.0001) // =======================================================
(PID.TID 0000.0001) // Begin MONITOR dynamic field statistics
(PID.TID 0000.0001) // =======================================================
(PID.TID 0000.0001) %MON time_tsnumber                =                 36004
(PID.TID 0000.0001) %MON time_secondsf                =   3.1107456000000E+09
(PID.TID 0000.0001) %MON dynstat_eta_max              =   1.6178349855098E+00
(PID.TID 0000.0001) %MON dynstat_eta_min              =  -3.9369084711755E+00
(PID.TID 0000.0001) %MON dynstat_eta_mean             =  -2.9783971202332E-16
(PID.TID 0000.0001) %MON dynstat_eta_sd               =   1.6543134952772E+00
(PID.TID 0000.0001) %MON dynstat_eta_del2             =   8.2777994112970E-03
(PID.TID 0000.0001) %MON dynstat_uvel_max             =   1.4273225181059E-01
(PID.TID 0000.0001) %MON dynstat_uvel_min             =  -3.8630768197728E-01
(PID.TID 0000.0001) %MON dynstat_uvel_mean            =   1.2690246932741E-02
(PID.TID 0000.0001) %MON dynstat_uvel_sd              =   3.8715891287468E-02
(PID.TID 0000.0001) %MON dynstat_uvel_del2            =   1.3226917620169E-04
(PID.TID 0000.0001) %MON dynstat_vvel_max             =   2.3162803107768E-02
(PID.TID 0000.0001) %MON dynstat_vvel_min             =  -2.3162803107734E-02
(PID.TID 0000.0001) %MON dynstat_vvel_mean            =   1.3228808657630E-15
(PID.TID 0000.0001) %MON dynstat_vvel_sd              =   1.5569220317591E-03
(PID.TID 0000.0001) %MON dynstat_vvel_del2            =   3.0860806334358E-05
(PID.TID 0000.0001) %MON dynstat_wvel_max             =   1.1674294147373E-06
(PID.TID 0000.0001) %MON dynstat_wvel_min             =  -9.6682265211030E-07
(PID.TID 0000.0001) %MON dynstat_wvel_mean            =   7.0278453714425E-23
(PID.TID 0000.0001) %MON dynstat_wvel_sd              =   3.0191766231407E-07
(PID.TID 0000.0001) %MON dynstat_wvel_del2            =   9.3381522030319E-09
(PID.TID 0000.0001) %MON dynstat_theta_max            =   2.6661283827087E+01
(PID.TID 0000.0001) %MON dynstat_theta_min            =  -9.3077643667486E-01
(PID.TID 0000.0001) %MON dynstat_theta_mean           =   2.2240354224656E+00
(PID.TID 0000.0001) %MON dynstat_theta_sd             =   3.9269057734718E+00
(PID.TID 0000.0001) %MON dynstat_theta_del2           =   1.3385336351349E-02
(PID.TID 0000.0001) %MON dynstat_salt_max             =   3.4700000000000E+01
(PID.TID 0000.0001) %MON dynstat_salt_min             =   3.4700000000000E+01
(PID.TID 0000.0001) %MON dynstat_salt_mean            =   3.4700000000000E+01
(PID.TID 0000.0001) %MON dynstat_salt_sd              =   7.1054273576010E-15
(PID.TID 0000.0001) %MON dynstat_salt_del2            =   0.0000000000000E+00
(PID.TID 0000.0001) %MON trAdv_CFL_u_max              =   1.0011692240463E-01
(PID.TID 0000.0001) %MON trAdv_CFL_v_max              =   5.9565277999306E-03
(PID.TID 0000.0001) %MON trAdv_CFL_w_max              =   3.7058699321251E-03
(PID.TID 0000.0001) %MON advcfl_uvel_max              =   1.0010548628708E-01
(PID.TID 0000.0001) %MON advcfl_vvel_max              =   6.0002148761863E-03
(PID.TID 0000.0001) %MON advcfl_wvel_max              =   1.8423955121010E-03
(PID.TID 0000.0001) %MON advcfl_W_hf_max              =   2.0144140617371E-03
(PID.TID 0000.0001) %MON pe_b_mean                    =   2.5814950297921E-03
(PID.TID 0000.0001) %MON ke_max                       =   7.4646422980778E-02
(PID.TID 0000.0001) %MON ke_mean                      =   8.3128282094745E-04
(PID.TID 0000.0001) %MON ke_vol                       =   2.1823819113454E+16
(PID.TID 0000.0001) %MON vort_r_min                   =  -1.7698269369246E-07
(PID.TID 0000.0001) %MON vort_r_max                   =   1.7698269369228E-07
(PID.TID 0000.0001) %MON vort_a_mean                  =   1.3930627278063E-20
(PID.TID 0000.0001) %MON vort_a_sd                    =   8.3492789403058E-05
(PID.TID 0000.0001) %MON vort_p_mean                  =   1.4017472084093E-20
(PID.TID 0000.0001) %MON vort_p_sd                    =   8.6788011136066E-05
(PID.TID 0000.0001) %MON surfExpan_theta_mean         =  -2.7276557038020E-06
(PID.TID 0000.0001) %MON surfExpan_salt_mean          =   1.3314472676366E-21
(PID.TID 0000.0001) // =======================================================
(PID.TID 0000.0001) // End MONITOR dynamic field statistics
(PID.TID 0000.0001) // =======================================================
GMREDI_CALC_GEOM: tile diag  t       =   100.01111 yr,   kgm_max =    50.00000 m2/s,   eE_avg  =     0.00005 m2/s2 
GMREDI_CALC_GEOM: tile diag  t       =   100.01111 yr,   kgm_max =    50.00000 m2/s,   eE_avg  =     0.00003 m2/s2 
GMREDI_CALC_GEOM: tile diag  t       =   100.01111 yr,   kgm_max =    50.00000 m2/s,   eE_avg  =     0.00003 m2/s2 
GMREDI_CALC_GEOM: tile diag  t       =   100.01111 yr,   kgm_max =    50.00000 m2/s,   eE_avg  =     0.00006 m2/s2 
 cg2d: Sum(rhs),rhsMax =   7.10542735760100E-15  1.48036492697503E+00
(PID.TID 0000.0001)      cg2d_init_res =   5.64519006023211E-03
(PID.TID 0000.0001)      cg2d_iters(min,last) =      -1      27
(PID.TID 0000.0001)      cg2d_last_res =   8.90414575047197E-18
(PID.TID 0000.0001) // =======================================================
(PID.TID 0000.0001) // Begin MONITOR dynamic field statistics
(PID.TID 0000.0001) // =======================================================
(PID.TID 0000.0001) %MON time_tsnumber                =                 36005
(PID.TID 0000.0001) %MON time_secondsf                =   3.1108320000000E+09
(PID.TID 0000.0001) %MON dynstat_eta_max              =   1.6172834984238E+00
(PID.TID 0000.0001) %MON dynstat_eta_min              =  -3.9357923798922E+00
(PID.TID 0000.0001) %MON dynstat_eta_mean             =  -2.2337978401749E-16
(PID.TID 0000.0001) %MON dynstat_eta_sd               =   1.6534817063058E+00
(PID.TID 0000.0001) %MON dynstat_eta_del2             =   8.2766156790869E-03
(PID.TID 0000.0001) %MON dynstat_uvel_max             =   1.4273574175916E-01
(PID.TID 0000.0001) %MON dynstat_uvel_min             =  -3.8630752008566E-01
(PID.TID 0000.0001) %MON dynstat_uvel_mean            =   1.2703515177713E-02
(PID.TID 0000.0001) %MON dynstat_uvel_sd              =   3.8718223154147E-02
(PID.TID 0000.0001) %MON dynstat_uvel_del2            =   1.3227324957814E-04
(PID.TID 0000.0001) %MON dynstat_vvel_max             =   2.3202483545130E-02
(PID.TID 0000.0001) %MON dynstat_vvel_min             =  -2.3202483545096E-02
(PID.TID 0000.0001) %MON dynstat_vvel_mean            =   1.4581614531001E-15
(PID.TID 0000.0001) %MON dynstat_vvel_sd              =   1.5589883674607E-03
(PID.TID 0000.0001) %MON dynstat_vvel_del2            =   3.0864734220327E-05
(PID.TID 0000.0001) %MON dynstat_wvel_max             =   1.1967897149885E-06
(PID.TID 0000.0001) %MON dynstat_wvel_min             =  -1.0039184498257E-06
(PID.TID 0000.0001) %MON dynstat_wvel_mean            =   1.1713075619071E-23
(PID.TID 0000.0001) %MON dynstat_wvel_sd              =   3.1349445191208E-07
(PID.TID 0000.0001) %MON dynstat_wvel_del2            =   9.3166698674492E-09
(PID.TID 0000.0001) %MON dynstat_theta_max            =   2.6663333068626E+01
(PID.TID 0000.0001) %MON dynstat_theta_min            =  -9.3077987358281E-01
(PID.TID 0000.0001) %MON dynstat_theta_mean           =   2.2240822897930E+00
(PID.TID 0000.0001) %MON dynstat_theta_sd             =   3.9270820405025E+00
(PID.TID 0000.0001) %MON dynstat_theta_del2           =   1.3385723703701E-02
(PID.TID 0000.0001) %MON dynstat_salt_max             =   3.4700000000000E+01
(PID.TID 0000.0001) %MON dynstat_salt_min             =   3.4700000000000E+01
(PID.TID 0000.0001) %MON dynstat_salt_mean            =   3.4700000000000E+01
(PID.TID 0000.0001) %MON dynstat_salt_sd              =   7.1054273576010E-15
(PID.TID 0000.0001) %MON dynstat_salt_del2            =   0.0000000000000E+00
(PID.TID 0000.0001) %MON trAdv_CFL_u_max              =   1.0011688044820E-01
(PID.TID 0000.0001) %MON trAdv_CFL_v_max              =   5.9667579968320E-03
(PID.TID 0000.0001) %MON trAdv_CFL_w_max              =   3.7074562418078E-03
(PID.TID 0000.0001) %MON advcfl_uvel_max              =   1.0010544433545E-01
(PID.TID 0000.0001) %MON advcfl_vvel_max              =   6.0104939062953E-03
(PID.TID 0000.0001) %MON advcfl_wvel_max              =   1.9113802351947E-03
(PID.TID 0000.0001) %MON advcfl_W_hf_max              =   2.0641738901529E-03
(PID.TID 0000.0001) %MON pe_b_mean                    =   2.5788997305569E-03
(PID.TID 0000.0001) %MON ke_max                       =   7.4646432039095E-02
(PID.TID 0000.0001) %MON ke_mean                      =   8.3154480402518E-04
(PID.TID 0000.0001) %MON ke_vol                       =   2.1823819113454E+16
(PID.TID 0000.0001) %MON vort_r_min                   =  -1.7699110658730E-07
(PID.TID 0000.0001) %MON vort_r_max                   =   1.7699110658712E-07
(PID.TID 0000.0001) %MON vort_a_mean                  =   5.5722509112253E-21
(PID.TID 0000.0001) %MON vort_a_sd                    =   8.3492792115505E-05
(PID.TID 0000.0001) %MON vort_p_mean                  =   5.6069888336370E-21
(PID.TID 0000.0001) %MON vort_p_sd                    =   8.6788013908578E-05
(PID.TID 0000.0001) %MON surfExpan_theta_mean         =  -3.0421800086751E-06
(PID.TID 0000.0001) %MON surfExpan_salt_mean          =   4.4381575587886E-22
(PID.TID 0000.0001) // =======================================================
(PID.TID 0000.0001) // End MONITOR dynamic field statistics
(PID.TID 0000.0001) // =======================================================
GMREDI_CALC_GEOM: tile diag  t       =   100.01389 yr,   kgm_max =    50.00000 m2/s,   eE_avg  =     0.00006 m2/s2 
GMREDI_CALC_GEOM: tile diag  t       =   100.01389 yr,   kgm_max =    50.00000 m2/s,   eE_avg  =     0.00003 m2/s2 
GMREDI_CALC_GEOM: tile diag  t       =   100.01389 yr,   kgm_max =    50.00000 m2/s,   eE_avg  =     0.00003 m2/s2 
GMREDI_CALC_GEOM: tile diag  t       =   100.01389 yr,   kgm_max =    50.00000 m2/s,   eE_avg  =     0.00007 m2/s2 
 cg2d: Sum(rhs),rhsMax =   8.88178419700125E-15  1.48000874775071E+00
(PID.TID 0000.0001)      cg2d_init_res =   5.86340410359118E-03
(PID.TID 0000.0001)      cg2d_iters(min,last) =      -1      27
(PID.TID 0000.0001)      cg2d_last_res =   1.28204310701893E-17
(PID.TID 0000.0001) // =======================================================
(PID.TID 0000.0001) // Begin MONITOR dynamic field statistics
(PID.TID 0000.0001) // =======================================================
(PID.TID 0000.0001) %MON time_tsnumber                =                 36006
(PID.TID 0000.0001) %MON time_secondsf                =   3.1109184000000E+09
(PID.TID 0000.0001) %MON dynstat_eta_max              =   1.6168794125879E+00
(PID.TID 0000.0001) %MON dynstat_eta_min              =  -3.9342203968776E+00
(PID.TID 0000.0001) %MON dynstat_eta_mean             =  -2.2337978401749E-16
(PID.TID 0000.0001) %MON dynstat_eta_sd               =   1.6526087875366E+00
(PID.TID 0000.0001) %MON dynstat_eta_del2             =   8.2768255029943E-03
(PID.TID 0000.0001) %MON dynstat_uvel_max             =   1.4273824940037E-01
(PID.TID 0000.0001) %MON dynstat_uvel_min             =  -3.8630740303482E-01
(PID.TID 0000.0001) %MON dynstat_uvel_mean            =   1.2718005732380E-02
(PID.TID 0000.0001) %MON dynstat_uvel_sd              =   3.8720684191405E-02
(PID.TID 0000.0001) %MON dynstat_uvel_del2            =   1.3227590277228E-04
(PID.TID 0000.0001) %MON dynstat_vvel_max             =   2.3235782776258E-02
(PID.TID 0000.0001) %MON dynstat_vvel_min             =  -2.3235782776224E-02
(PID.TID 0000.0001) %MON dynstat_vvel_mean            =   1.5621236040116E-15
(PID.TID 0000.0001) %MON dynstat_vvel_sd              =   1.5604337453498E-03
(PID.TID 0000.0001) %MON dynstat_vvel_del2            =   3.0869373180705E-05
(PID.TID 0000.0001) %MON dynstat_wvel_max             =   1.1987274948243E-06
(PID.TID 0000.0001) %MON dynstat_wvel_min             =  -1.0301946744924E-06
(PID.TID 0000.0001) %MON dynstat_wvel_mean            =  -5.8565378095355E-24
(PID.TID 0000.0001) %MON dynstat_wvel_sd              =   3.2155938221430E-07
(PID.TID 0000.0001) %MON dynstat_wvel_del2            =   9.2949042661378E-09
(PID.TID 0000.0001) %MON dynstat_theta_max            =   2.6665634681679E+01
(PID.TID 0000.0001) %MON dynstat_theta_min            =  -9.3078339837317E-01
(PID.TID 0000.0001) %MON dynstat_theta_mean           =   2.2241327353253E+00
(PID.TID 0000.0001) %MON dynstat_theta_sd             =   3.9272675349225E+00
(PID.TID 0000.0001) %MON dynstat_theta_del2           =   1.3385877770700E-02
(PID.TID 0000.0001) %MON dynstat_salt_max             =   3.4700000000000E+01
(PID.TID 0000.0001) %MON dynstat_salt_min             =   3.4700000000000E+01
(PID.TID 0000.0001) %MON dynstat_salt_mean            =   3.4700000000000E+01
(PID.TID 0000.0001) %MON dynstat_salt_sd              =   7.1054273576010E-15
(PID.TID 0000.0001) %MON dynstat_salt_del2            =   0.0000000000000E+00
(PID.TID 0000.0001) %MON trAdv_CFL_u_max              =   1.0011685011288E-01
(PID.TID 0000.0001) %MON trAdv_CFL_v_max              =   5.9753455967011E-03
(PID.TID 0000.0001) %MON trAdv_CFL_w_max              =   3.7090590015971E-03
(PID.TID 0000.0001) %MON advcfl_uvel_max              =   1.0010541400358E-01
(PID.TID 0000.0001) %MON advcfl_vvel_max              =   6.0191199150324E-03
(PID.TID 0000.0001) %MON advcfl_wvel_max              =   1.9781691341990E-03
(PID.TID 0000.0001) %MON advcfl_W_hf_max              =   2.0659904842727E-03
(PID.TID 0000.0001) %MON pe_b_mean                    =   2.5761775041875E-03
(PID.TID 0000.0001) %MON ke_max                       =   7.4646449386033E-02
(PID.TID 0000.0001) %MON ke_mean                      =   8.3182655644913E-04
(PID.TID 0000.0001) %MON ke_vol                       =   2.1823819113454E+16
(PID.TID 0000.0001) %MON vort_r_min                   =  -1.7700019187316E-07
(PID.TID 0000.0001) %MON vort_r_max                   =   1.7700019187299E-07
(PID.TID 0000.0001) %MON vort_a_mean                  =   5.5722509112253E-21
(PID.TID 0000.0001) %MON vort_a_sd                    =   8.3492795039565E-05
(PID.TID 0000.0001) %MON vort_p_mean                  =   5.6069888336370E-21
(PID.TID 0000.0001) %MON vort_p_sd                    =   8.6788016999075E-05
(PID.TID 0000.0001) %MON surfExpan_theta_mean         =  -3.1995154273669E-06
(PID.TID 0000.0001) %MON surfExpan_salt_mean          =   1.3314472676366E-21
(PID.TID 0000.0001) // =======================================================
(PID.TID 0000.0001) // End MONITOR dynamic field statistics
(PID.TID 0000.0001) // =======================================================
 Computing Diagnostic #     23  ETAN         Counter:       1   Parms: SM      M1      
 Computing Diagnostic #     24  ETANSQ       Counter:       1   Parms: SM P    M1      
 Computing Diagnostic #     25  DETADT2      Counter:       1   Parms: SM      M1      
 Computing Diagnostic #     73  PHIBOT       Counter:       1   Parms: SM      M1      
 Computing Diagnostic #     74  PHIBOTSQ     Counter:       1   Parms: SM P    M1      
GMREDI_CALC_GEOM: tile diag  t       =   100.01667 yr,   kgm_max =    50.00000 m2/s,   eE_avg  =     0.00007 m2/s2 
GMREDI_CALC_GEOM: tile diag  t       =   100.01667 yr,   kgm_max =    50.00000 m2/s,   eE_avg  =     0.00003 m2/s2 
GMREDI_CALC_GEOM: tile diag  t       =   100.01667 yr,   kgm_max =    50.00000 m2/s,   eE_avg  =     0.00004 m2/s2 
GMREDI_CALC_GEOM: tile diag  t       =   100.01667 yr,   kgm_max =    50.00000 m2/s,   eE_avg  =     0.00008 m2/s2 
 cg2d: Sum(rhs),rhsMax =   1.24344978758018E-14  1.47980013399956E+00
(PID.TID 0000.0001)      cg2d_init_res =   5.87549437169283E-03
(PID.TID 0000.0001)      cg2d_iters(min,last) =      -1      27
(PID.TID 0000.0001)      cg2d_last_res =   1.43919281700128E-17
(PID.TID 0000.0001) // =======================================================
(PID.TID 0000.0001) // Begin MONITOR dynamic field statistics
(PID.TID 0000.0001) // =======================================================
(PID.TID 0000.0001) %MON time_tsnumber                =                 36007
(PID.TID 0000.0001) %MON time_secondsf                =   3.1110048000000E+09
(PID.TID 0000.0001) %MON dynstat_eta_max              =   1.6166075877126E+00
(PID.TID 0000.0001) %MON dynstat_eta_min              =  -3.9322667015446E+00
(PID.TID 0000.0001) %MON dynstat_eta_mean             =  -2.2337978401749E-16
(PID.TID 0000.0001) %MON dynstat_eta_sd               =   1.6517300957882E+00
(PID.TID 0000.0001) %MON dynstat_eta_del2             =   8.2781621994128E-03
(PID.TID 0000.0001) %MON dynstat_uvel_max             =   1.4273909275764E-01
(PID.TID 0000.0001) %MON dynstat_uvel_min             =  -3.8630728600201E-01
(PID.TID 0000.0001) %MON dynstat_uvel_mean            =   1.2733054058899E-02
(PID.TID 0000.0001) %MON dynstat_uvel_sd              =   3.8723115191872E-02
(PID.TID 0000.0001) %MON dynstat_uvel_del2            =   1.3227694472442E-04
(PID.TID 0000.0001) %MON dynstat_vvel_max             =   2.3260988653800E-02
(PID.TID 0000.0001) %MON dynstat_vvel_min             =  -2.3260988653765E-02
(PID.TID 0000.0001) %MON dynstat_vvel_mean            =   1.6182933939193E-15
(PID.TID 0000.0001) %MON dynstat_vvel_sd              =   1.5611076307074E-03
(PID.TID 0000.0001) %MON dynstat_vvel_del2            =   3.0874559203896E-05
(PID.TID 0000.0001) %MON dynstat_wvel_max             =   1.1811276426647E-06
(PID.TID 0000.0001) %MON dynstat_wvel_min             =  -1.0436268892506E-06
(PID.TID 0000.0001) %MON dynstat_wvel_mean            =   2.3426151238142E-23
(PID.TID 0000.0001) %MON dynstat_wvel_sd              =   3.2509238180151E-07
(PID.TID 0000.0001) %MON dynstat_wvel_del2            =   9.2732987442144E-09
(PID.TID 0000.0001) %MON dynstat_theta_max            =   2.6667993241683E+01
(PID.TID 0000.0001) %MON dynstat_theta_min            =  -9.3078695677987E-01
(PID.TID 0000.0001) %MON dynstat_theta_mean           =   2.2241841895851E+00
(PID.TID 0000.0001) %MON dynstat_theta_sd             =   3.9274534057918E+00
(PID.TID 0000.0001) %MON dynstat_theta_del2           =   1.3385905582898E-02
(PID.TID 0000.0001) %MON dynstat_salt_max             =   3.4700000000000E+01
(PID.TID 0000.0001) %MON dynstat_salt_min             =   3.4700000000000E+01
(PID.TID 0000.0001) %MON dynstat_salt_mean            =   3.4700000000000E+01
(PID.TID 0000.0001) %MON dynstat_salt_sd              =   7.1054273576010E-15
(PID.TID 0000.0001) %MON dynstat_salt_del2            =   0.0000000000000E+00
(PID.TID 0000.0001) %MON trAdv_CFL_u_max              =   1.0011681978222E-01
(PID.TID 0000.0001) %MON trAdv_CFL_v_max              =   5.9818490092558E-03
(PID.TID 0000.0001) %MON trAdv_CFL_w_max              =   3.7103391723551E-03
(PID.TID 0000.0001) %MON advcfl_uvel_max              =   1.0010538367640E-01
(PID.TID 0000.0001) %MON advcfl_vvel_max              =   6.0256493787026E-03
(PID.TID 0000.0001) %MON advcfl_wvel_max              =   2.3444343997865E-03
(PID.TID 0000.0001) %MON advcfl_W_hf_max              =   2.0312954707317E-03
(PID.TID 0000.0001) %MON pe_b_mean                    =   2.5734387263992E-03
(PID.TID 0000.0001) %MON ke_max                       =   7.4646455885673E-02
(PID.TID 0000.0001) %MON ke_mean                      =   8.3211326714403E-04
(PID.TID 0000.0001) %MON ke_vol                       =   2.1823819113454E+16
(PID.TID 0000.0001) %MON vort_r_min                   =  -1.7700968930502E-07
(PID.TID 0000.0001) %MON vort_r_max                   =   1.7700968930484E-07
(PID.TID 0000.0001) %MON vort_a_mean                  =   8.3583763668379E-21
(PID.TID 0000.0001) %MON vort_a_sd                    =   8.3492798040298E-05
(PID.TID 0000.0001) %MON vort_p_mean                  =   8.4104832504555E-21
(PID.TID 0000.0001) %MON vort_p_sd                    =   8.6788020272054E-05
(PID.TID 0000.0001) %MON surfExpan_theta_mean         =  -3.2068423273387E-06
(PID.TID 0000.0001) %MON surfExpan_salt_mean          =   4.4381575587886E-22
(PID.TID 0000.0001) // =======================================================
(PID.TID 0000.0001) // End MONITOR dynamic field statistics
(PID.TID 0000.0001) // =======================================================
GMREDI_CALC_GEOM: tile diag  t       =   100.01944 yr,   kgm_max =    50.00000 m2/s,   eE_avg  =     0.00008 m2/s2 
GMREDI_CALC_GEOM: tile diag  t       =   100.01944 yr,   kgm_max =    50.00000 m2/s,   eE_avg  =     0.00004 m2/s2 
GMREDI_CALC_GEOM: tile diag  t       =   100.01944 yr,   kgm_max =    50.00000 m2/s,   eE_avg  =     0.00004 m2/s2 
GMREDI_CALC_GEOM: tile diag  t       =   100.01944 yr,   kgm_max =    51.01038 m2/s,   eE_avg  =     0.00009 m2/s2 
 cg2d: Sum(rhs),rhsMax =   1.42108547152020E-14  1.47968465860590E+00
(PID.TID 0000.0001)      cg2d_init_res =   5.63180184442632E-03
(PID.TID 0000.0001)      cg2d_iters(min,last) =      -1      27
(PID.TID 0000.0001)      cg2d_last_res =   1.00718521288200E-17
(PID.TID 0000.0001) // =======================================================
(PID.TID 0000.0001) // Begin MONITOR dynamic field statistics
(PID.TID 0000.0001) // =======================================================
(PID.TID 0000.0001) %MON time_tsnumber                =                 36008
(PID.TID 0000.0001) %MON time_secondsf                =   3.1110912000000E+09
(PID.TID 0000.0001) %MON dynstat_eta_max              =   1.6164202053706E+00
(PID.TID 0000.0001) %MON dynstat_eta_min              =  -3.9300744899493E+00
(PID.TID 0000.0001) %MON dynstat_eta_mean             =  -2.9783971202332E-16
(PID.TID 0000.0001) %MON dynstat_eta_sd               =   1.6508781064797E+00
(PID.TID 0000.0001) %MON dynstat_eta_del2             =   8.2801588391706E-03
(PID.TID 0000.0001) %MON dynstat_uvel_max             =   1.4273777415324E-01
(PID.TID 0000.0001) %MON dynstat_uvel_min             =  -3.8630712330276E-01
(PID.TID 0000.0001) %MON dynstat_uvel_mean            =   1.2747964053331E-02
(PID.TID 0000.0001) %MON dynstat_uvel_sd              =   3.8725351509301E-02
(PID.TID 0000.0001) %MON dynstat_uvel_del2            =   1.3227633381272E-04
(PID.TID 0000.0001) %MON dynstat_vvel_max             =   2.3277793145809E-02
(PID.TID 0000.0001) %MON dynstat_vvel_min             =  -2.3277793145774E-02
(PID.TID 0000.0001) %MON dynstat_vvel_mean            =   1.6477801456884E-15
(PID.TID 0000.0001) %MON dynstat_vvel_sd              =   1.5609846066642E-03
(PID.TID 0000.0001) %MON dynstat_vvel_del2            =   3.0880090855356E-05
(PID.TID 0000.0001) %MON dynstat_wvel_max             =   1.1493783055478E-06
(PID.TID 0000.0001) %MON dynstat_wvel_min             =  -1.0319788516172E-06
(PID.TID 0000.0001) %MON dynstat_wvel_mean            =   1.7569613428606E-23
(PID.TID 0000.0001) %MON dynstat_wvel_sd              =   3.2335490967631E-07
(PID.TID 0000.0001) %MON dynstat_wvel_del2            =   9.2533359676009E-09
(PID.TID 0000.0001) %MON dynstat_theta_max            =   2.6670206619573E+01
(PID.TID 0000.0001) %MON dynstat_theta_min            =  -9.3079051360280E-01
(PID.TID 0000.0001) %MON dynstat_theta_mean           =   2.2242342825015E+00
(PID.TID 0000.0001) %MON dynstat_theta_sd             =   3.9276316107941E+00
(PID.TID 0000.0001) %MON dynstat_theta_del2           =   1.3385909858787E-02
(PID.TID 0000.0001) %MON dynstat_salt_max             =   3.4700000000000E+01
(PID.TID 0000.0001) %MON dynstat_salt_min             =   3.4700000000000E+01
(PID.TID 0000.0001) %MON dynstat_salt_mean            =   3.4700000000000E+01
(PID.TID 0000.0001) %MON dynstat_salt_sd              =   7.1054273576010E-15
(PID.TID 0000.0001) %MON dynstat_salt_del2            =   0.0000000000000E+00
(PID.TID 0000.0001) %MON trAdv_CFL_u_max              =   1.0011677761649E-01
(PID.TID 0000.0001) %MON trAdv_CFL_v_max              =   5.9861880735854E-03
(PID.TID 0000.0001) %MON trAdv_CFL_w_max              =   3.7109831279647E-03
(PID.TID 0000.0001) %MON advcfl_uvel_max              =   1.0010534151547E-01
(PID.TID 0000.0001) %MON advcfl_vvel_max              =   6.0300025030835E-03
(PID.TID 0000.0001) %MON advcfl_wvel_max              =   2.6306539145739E-03
(PID.TID 0000.0001) %MON advcfl_W_hf_max              =   1.9715980728556E-03
(PID.TID 0000.0001) %MON pe_b_mean                    =   2.5707845678148E-03
(PID.TID 0000.0001) %MON ke_max                       =   7.4646433526464E-02
(PID.TID 0000.0001) %MON ke_mean                      =   8.3238966812953E-04
(PID.TID 0000.0001) %MON ke_vol                       =   2.1823819113454E+16
(PID.TID 0000.0001) %MON vort_r_min                   =  -1.7701927986231E-07
(PID.TID 0000.0001) %MON vort_r_max                   =   1.7701927986213E-07
(PID.TID 0000.0001) %MON vort_a_mean                  =  -2.2289003644901E-20
(PID.TID 0000.0001) %MON vort_a_sd                    =   8.3492800982800E-05
(PID.TID 0000.0001) %MON vort_p_mean                  =  -2.2427955334548E-20
(PID.TID 0000.0001) %MON vort_p_sd                    =   8.6788023574733E-05
(PID.TID 0000.0001) %MON surfExpan_theta_mean         =  -3.0747812172701E-06
(PID.TID 0000.0001) %MON surfExpan_salt_mean          =   1.3314472676366E-21
(PID.TID 0000.0001) // =======================================================
(PID.TID 0000.0001) // End MONITOR dynamic field statistics
(PID.TID 0000.0001) // =======================================================
GMREDI_CALC_GEOM: tile diag  t       =   100.02222 yr,   kgm_max =    51.58654 m2/s,   eE_avg  =     0.00009 m2/s2 
GMREDI_CALC_GEOM: tile diag  t       =   100.02222 yr,   kgm_max =    50.00000 m2/s,   eE_avg  =     0.00004 m2/s2 
GMREDI_CALC_GEOM: tile diag  t       =   100.02222 yr,   kgm_max =    50.00000 m2/s,   eE_avg  =     0.00005 m2/s2 
GMREDI_CALC_GEOM: tile diag  t       =   100.02222 yr,   kgm_max =    57.42259 m2/s,   eE_avg  =     0.00010 m2/s2 
 cg2d: Sum(rhs),rhsMax =   1.42108547152020E-14  1.47959805422743E+00
(PID.TID 0000.0001)      cg2d_init_res =   5.11775894192996E-03
(PID.TID 0000.0001)      cg2d_iters(min,last) =      -1      27
(PID.TID 0000.0001)      cg2d_last_res =   9.55022856360974E-18
(PID.TID 0000.0001) // =======================================================
(PID.TID 0000.0001) // Begin MONITOR dynamic field statistics
(PID.TID 0000.0001) // =======================================================
(PID.TID 0000.0001) %MON time_tsnumber                =                 36009
(PID.TID 0000.0001) %MON time_secondsf                =   3.1111776000000E+09
(PID.TID 0000.0001) %MON dynstat_eta_max              =   1.6162629606238E+00
(PID.TID 0000.0001) %MON dynstat_eta_min              =  -3.9278309526030E+00
(PID.TID 0000.0001) %MON dynstat_eta_mean             =  -2.2337978401749E-16
(PID.TID 0000.0001) %MON dynstat_eta_sd               =   1.6500835266959E+00
(PID.TID 0000.0001) %MON dynstat_eta_del2             =   8.2822803064437E-03
(PID.TID 0000.0001) %MON dynstat_uvel_max             =   1.4273396857054E-01
(PID.TID 0000.0001) %MON dynstat_uvel_min             =  -3.8630687261262E-01
(PID.TID 0000.0001) %MON dynstat_uvel_mean            =   1.2762047990988E-02
(PID.TID 0000.0001) %MON dynstat_uvel_sd              =   3.8727229413524E-02
(PID.TID 0000.0001) %MON dynstat_uvel_del2            =   1.3227411935736E-04
(PID.TID 0000.0001) %MON dynstat_vvel_max             =   2.3287005756854E-02
(PID.TID 0000.0001) %MON dynstat_vvel_min             =  -2.3287005756820E-02
(PID.TID 0000.0001) %MON dynstat_vvel_mean            =   1.6236086506216E-15
(PID.TID 0000.0001) %MON dynstat_vvel_sd              =   1.5601713318633E-03
(PID.TID 0000.0001) %MON dynstat_vvel_del2            =   3.0885798403185E-05
(PID.TID 0000.0001) %MON dynstat_wvel_max             =   1.1086045344109E-06
(PID.TID 0000.0001) %MON dynstat_wvel_min             =  -9.8919430537541E-07
(PID.TID 0000.0001) %MON dynstat_wvel_mean            =  -5.8565378095355E-23
(PID.TID 0000.0001) %MON dynstat_wvel_sd              =   3.1654938963040E-07
(PID.TID 0000.0001) %MON dynstat_wvel_del2            =   9.2371546272314E-09
(PID.TID 0000.0001) %MON dynstat_theta_max            =   2.6672100207343E+01
(PID.TID 0000.0001) %MON dynstat_theta_min            =  -9.3079406914893E-01
(PID.TID 0000.0001) %MON dynstat_theta_mean           =   2.2242808777502E+00
(PID.TID 0000.0001) %MON dynstat_theta_sd             =   3.9277951122012E+00
(PID.TID 0000.0001) %MON dynstat_theta_del2           =   1.3385975922081E-02
(PID.TID 0000.0001) %MON dynstat_salt_max             =   3.4700000000000E+01
(PID.TID 0000.0001) %MON dynstat_salt_min             =   3.4700000000000E+01
(PID.TID 0000.0001) %MON dynstat_salt_mean            =   3.4700000000000E+01
(PID.TID 0000.0001) %MON dynstat_salt_sd              =   7.1054273576010E-15
(PID.TID 0000.0001) %MON dynstat_salt_del2            =   0.0000000000000E+00
(PID.TID 0000.0001) %MON trAdv_CFL_u_max              =   1.0011671264671E-01
(PID.TID 0000.0001) %MON trAdv_CFL_v_max              =   5.9885705237056E-03
(PID.TID 0000.0001) %MON trAdv_CFL_w_max              =   3.7107993445845E-03
(PID.TID 0000.0001) %MON advcfl_uvel_max              =   1.0010527655312E-01
(PID.TID 0000.0001) %MON advcfl_vvel_max              =   6.0323889865149E-03
(PID.TID 0000.0001) %MON advcfl_wvel_max              =   2.6922448155854E-03
(PID.TID 0000.0001) %MON advcfl_W_hf_max              =   1.8962184171424E-03
(PID.TID 0000.0001) %MON pe_b_mean                    =   2.5683104882854E-03
(PID.TID 0000.0001) %MON ke_max                       =   7.4646367041429E-02
(PID.TID 0000.0001) %MON ke_mean                      =   8.3264079830779E-04
(PID.TID 0000.0001) %MON ke_vol                       =   2.1823819113454E+16
(PID.TID 0000.0001) %MON vort_r_min                   =  -1.7702862394632E-07
(PID.TID 0000.0001) %MON vort_r_max                   =   1.7702862394615E-07
(PID.TID 0000.0001) %MON vort_a_mean                  =   2.7861254556126E-21
(PID.TID 0000.0001) %MON vort_a_sd                    =   8.3492803738597E-05
(PID.TID 0000.0001) %MON vort_p_mean                  =   2.8034944168185E-21
(PID.TID 0000.0001) %MON vort_p_sd                    =   8.6788026746695E-05
(PID.TID 0000.0001) %MON surfExpan_theta_mean         =  -2.8164824250162E-06
(PID.TID 0000.0001) %MON surfExpan_salt_mean          =   4.4381575587886E-22
(PID.TID 0000.0001) // =======================================================
(PID.TID 0000.0001) // End MONITOR dynamic field statistics
(PID.TID 0000.0001) // =======================================================
GMREDI_CALC_GEOM: tile diag  t       =   100.02500 yr,   kgm_max =    58.00727 m2/s,   eE_avg  =     0.00010 m2/s2 
GMREDI_CALC_GEOM: tile diag  t       =   100.02500 yr,   kgm_max =    50.00000 m2/s,   eE_avg  =     0.00005 m2/s2 
GMREDI_CALC_GEOM: tile diag  t       =   100.02500 yr,   kgm_max =    53.51516 m2/s,   eE_avg  =     0.00005 m2/s2 
GMREDI_CALC_GEOM: tile diag  t       =   100.02500 yr,   kgm_max =    63.77889 m2/s,   eE_avg  =     0.00011 m2/s2 
 cg2d: Sum(rhs),rhsMax =   1.06581410364015E-14  1.47949246869725E+00
(PID.TID 0000.0001)      cg2d_init_res =   4.36715767792931E-03
(PID.TID 0000.0001)      cg2d_iters(min,last) =      -1      27
(PID.TID 0000.0001)      cg2d_last_res =   4.59900168317843E-17
(PID.TID 0000.0001) // =======================================================
(PID.TID 0000.0001) // Begin MONITOR dynamic field statistics
(PID.TID 0000.0001) // =======================================================
(PID.TID 0000.0001) %MON time_tsnumber                =                 36010
(PID.TID 0000.0001) %MON time_secondsf                =   3.1112640000000E+09
(PID.TID 0000.0001) %MON dynstat_eta_max              =   1.6160963872798E+00
(PID.TID 0000.0001) %MON dynstat_eta_min              =  -3.9257337569385E+00
(PID.TID 0000.0001) %MON dynstat_eta_mean             =  -2.2337978401749E-16
(PID.TID 0000.0001) %MON dynstat_eta_sd               =   1.6493759235132E+00
(PID.TID 0000.0001) %MON dynstat_eta_del2             =   8.2840599341832E-03
(PID.TID 0000.0001) %MON dynstat_uvel_max             =   1.4272748621944E-01
(PID.TID 0000.0001) %MON dynstat_uvel_min             =  -3.8630649952770E-01
(PID.TID 0000.0001) %MON dynstat_uvel_mean            =   1.2774667476042E-02
(PID.TID 0000.0001) %MON dynstat_uvel_sd              =   3.8728592791444E-02
(PID.TID 0000.0001) %MON dynstat_uvel_del2            =   1.3227040140985E-04
(PID.TID 0000.0001) %MON dynstat_vvel_max             =   2.3290156765737E-02
(PID.TID 0000.0001) %MON dynstat_vvel_min             =  -2.3290156765705E-02
(PID.TID 0000.0001) %MON dynstat_vvel_mean            =   1.5592917970582E-15
(PID.TID 0000.0001) %MON dynstat_vvel_sd              =   1.5588847438008E-03
(PID.TID 0000.0001) %MON dynstat_vvel_del2            =   3.0891561776495E-05
(PID.TID 0000.0001) %MON dynstat_wvel_max             =   1.0621113922993E-06
(PID.TID 0000.0001) %MON dynstat_wvel_min             =  -9.3708014040381E-07
(PID.TID 0000.0001) %MON dynstat_wvel_mean            =  -2.9282689047677E-23
(PID.TID 0000.0001) %MON dynstat_wvel_sd              =   3.0597881834504E-07
(PID.TID 0000.0001) %MON dynstat_wvel_del2            =   9.2265346151504E-09
(PID.TID 0000.0001) %MON dynstat_theta_max            =   2.6673545288476E+01
(PID.TID 0000.0001) %MON dynstat_theta_min            =  -9.3079763236663E-01
(PID.TID 0000.0001) %MON dynstat_theta_mean           =   2.2243221191791E+00
(PID.TID 0000.0001) %MON dynstat_theta_sd             =   3.9279380553016E+00
(PID.TID 0000.0001) %MON dynstat_theta_del2           =   1.3386155802666E-02
(PID.TID 0000.0001) %MON dynstat_salt_max             =   3.4700000000000E+01
(PID.TID 0000.0001) %MON dynstat_salt_min             =   3.4700000000000E+01
(PID.TID 0000.0001) %MON dynstat_salt_mean            =   3.4700000000000E+01
(PID.TID 0000.0001) %MON dynstat_salt_sd              =   7.1054273576010E-15
(PID.TID 0000.0001) %MON dynstat_salt_del2            =   0.0000000000000E+00
(PID.TID 0000.0001) %MON trAdv_CFL_u_max              =   1.0011661595664E-01
(PID.TID 0000.0001) %MON trAdv_CFL_v_max              =   5.9893899446340E-03
(PID.TID 0000.0001) %MON trAdv_CFL_w_max              =   3.7097550280711E-03
(PID.TID 0000.0001) %MON advcfl_uvel_max              =   1.0010517987410E-01
(PID.TID 0000.0001) %MON advcfl_vvel_max              =   6.0332052405015E-03
(PID.TID 0000.0001) %MON advcfl_wvel_max              =   2.5166347975110E-03
(PID.TID 0000.0001) %MON advcfl_W_hf_max              =   1.8111196805586E-03
(PID.TID 0000.0001) %MON pe_b_mean                    =   2.5661082300585E-03
(PID.TID 0000.0001) %MON ke_max                       =   7.4646245404935E-02
(PID.TID 0000.0001) %MON ke_mean                      =   8.3285275593396E-04
(PID.TID 0000.0001) %MON ke_vol                       =   2.1823819113454E+16
(PID.TID 0000.0001) %MON vort_r_min                   =  -1.7703740819285E-07
(PID.TID 0000.0001) %MON vort_r_max                   =   1.7703740819267E-07
(PID.TID 0000.0001) %MON vort_a_mean                  =   2.7861254556126E-21
(PID.TID 0000.0001) %MON vort_a_sd                    =   8.3492806191633E-05
(PID.TID 0000.0001) %MON vort_p_mean                  =   2.8034944168185E-21
(PID.TID 0000.0001) %MON vort_p_sd                    =   8.6788029632291E-05
(PID.TID 0000.0001) %MON surfExpan_theta_mean         =  -2.4474250647393E-06
(PID.TID 0000.0001) %MON surfExpan_salt_mean          =   1.1095393896971E-21
(PID.TID 0000.0001) // =======================================================
(PID.TID 0000.0001) // End MONITOR dynamic field statistics
(PID.TID 0000.0001) // =======================================================
 Computing Diagnostic #     77  DRHODR       Counter:      10   Parms: SM      LR      
 Computing Diagnostic #     64  RHOAnoma     Counter:      10   Parms: SMR     MR      
 Computing Diagnostic #    218  GM_PsiY      Counter:      10   Parms: VV      LR      
           Vector  Mate for  GM_PsiY      Diagnostic #    217  GM_PsiX  not enabled
 Computing Diagnostic #    211  GM_Kvy       Counter:      10   Parms: VV P    MR      
           Vector  Mate for  GM_Kvy       Diagnostic #    210  GM_Kux   not enabled
 Computing Diagnostic #    213  GM_Kvz       Counter:      10   Parms: VV      MR      
           Vector  Mate for  GM_Kvz       Diagnostic #    212  GM_Kuz   not enabled
 Computing Diagnostic #    215  GM_Kwy       Counter:      10   Parms: VM      LR      
           Vector  Mate for  GM_Kwy       Diagnostic #    214  GM_Kwx   not enabled
 Computing Diagnostic #    216  GM_Kwz       Counter:      10   Parms: WM P    LR      
GMREDI_CALC_GEOM: tile diag  t       =   100.02778 yr,   kgm_max =    64.37370 m2/s,   eE_avg  =     0.00011 m2/s2 
GMREDI_CALC_GEOM: tile diag  t       =   100.02778 yr,   kgm_max =    50.00000 m2/s,   eE_avg  =     0.00005 m2/s2 
GMREDI_CALC_GEOM: tile diag  t       =   100.02778 yr,   kgm_max =    58.78829 m2/s,   eE_avg  =     0.00005 m2/s2 
GMREDI_CALC_GEOM: tile diag  t       =   100.02778 yr,   kgm_max =    70.08130 m2/s,   eE_avg  =     0.00012 m2/s2 
 cg2d: Sum(rhs),rhsMax =   1.24344978758018E-14  1.47934912989085E+00
(PID.TID 0000.0001)      cg2d_init_res =   3.44752237555891E-03
(PID.TID 0000.0001)      cg2d_iters(min,last) =      -1      27
(PID.TID 0000.0001)      cg2d_last_res =   7.33298841793057E-18
(PID.TID 0000.0001) // =======================================================
(PID.TID 0000.0001) // Begin MONITOR dynamic field statistics
(PID.TID 0000.0001) // =======================================================
(PID.TID 0000.0001) %MON time_tsnumber                =                 36011
(PID.TID 0000.0001) %MON time_secondsf                =   3.1113504000000E+09
(PID.TID 0000.0001) %MON dynstat_eta_max              =   1.6159062480289E+00
(PID.TID 0000.0001) %MON dynstat_eta_min              =  -3.9239585382580E+00
(PID.TID 0000.0001) %MON dynstat_eta_mean             =  -3.7229964002914E-16
(PID.TID 0000.0001) %MON dynstat_eta_sd               =   1.6487834899518E+00
(PID.TID 0000.0001) %MON dynstat_eta_del2             =   8.2851913683764E-03
(PID.TID 0000.0001) %MON dynstat_uvel_max             =   1.4271822758433E-01
(PID.TID 0000.0001) %MON dynstat_uvel_min             =  -3.8630598070027E-01
(PID.TID 0000.0001) %MON dynstat_uvel_mean            =   1.2785270895674E-02
(PID.TID 0000.0001) %MON dynstat_uvel_sd              =   3.8729300479828E-02
(PID.TID 0000.0001) %MON dynstat_uvel_del2            =   1.3226526757724E-04
(PID.TID 0000.0001) %MON dynstat_vvel_max             =   2.3289104258360E-02
(PID.TID 0000.0001) %MON dynstat_vvel_min             =  -2.3289104258329E-02
(PID.TID 0000.0001) %MON dynstat_vvel_mean            =   1.4559954579006E-15
(PID.TID 0000.0001) %MON dynstat_vvel_sd              =   1.5574036809045E-03
(PID.TID 0000.0001) %MON dynstat_vvel_del2            =   3.0897304093866E-05
(PID.TID 0000.0001) %MON dynstat_wvel_max             =   1.1148171543886E-06
(PID.TID 0000.0001) %MON dynstat_wvel_min             =  -8.7391218900022E-07
(PID.TID 0000.0001) %MON dynstat_wvel_mean            =  -1.1713075619071E-23
(PID.TID 0000.0001) %MON dynstat_wvel_sd              =   2.9368021575606E-07
(PID.TID 0000.0001) %MON dynstat_wvel_del2            =   9.2220952374450E-09
(PID.TID 0000.0001) %MON dynstat_theta_max            =   2.6674465637512E+01
(PID.TID 0000.0001) %MON dynstat_theta_min            =  -9.3080120205927E-01
(PID.TID 0000.0001) %MON dynstat_theta_mean           =   2.2243564798897E+00
(PID.TID 0000.0001) %MON dynstat_theta_sd             =   3.9280558828018E+00
(PID.TID 0000.0001) %MON dynstat_theta_del2           =   1.3386468731242E-02
(PID.TID 0000.0001) %MON dynstat_salt_max             =   3.4700000000000E+01
(PID.TID 0000.0001) %MON dynstat_salt_min             =   3.4700000000000E+01
(PID.TID 0000.0001) %MON dynstat_salt_mean            =   3.4700000000000E+01
(PID.TID 0000.0001) %MON dynstat_salt_sd              =   7.1054273576010E-15
(PID.TID 0000.0001) %MON dynstat_salt_del2            =   0.0000000000000E+00
(PID.TID 0000.0001) %MON trAdv_CFL_u_max              =   1.0011648149541E-01
(PID.TID 0000.0001) %MON trAdv_CFL_v_max              =   5.9891245909405E-03
(PID.TID 0000.0001) %MON trAdv_CFL_w_max              =   3.7079636211429E-03
(PID.TID 0000.0001) %MON advcfl_uvel_max              =   1.0010504542823E-01
(PID.TID 0000.0001) %MON advcfl_vvel_max              =   6.0329325934306E-03
(PID.TID 0000.0001) %MON advcfl_wvel_max              =   2.1302624166258E-03
(PID.TID 0000.0001) %MON advcfl_W_hf_max              =   1.9264040427835E-03
(PID.TID 0000.0001) %MON pe_b_mean                    =   2.5642651382689E-03
(PID.TID 0000.0001) %MON ke_max                       =   7.4646062545555E-02
(PID.TID 0000.0001) %MON ke_mean                      =   8.3301339633438E-04
(PID.TID 0000.0001) %MON ke_vol                       =   2.1823819113454E+16
(PID.TID 0000.0001) %MON vort_r_min                   =  -1.7704537686428E-07
(PID.TID 0000.0001) %MON vort_r_max                   =   1.7704537686410E-07
(PID.TID 0000.0001) %MON vort_a_mean                  =   1.9502878189288E-20
(PID.TID 0000.0001) %MON vort_a_sd                    =   8.3492808243502E-05
(PID.TID 0000.0001) %MON vort_p_mean                  =   1.9624460917730E-20
(PID.TID 0000.0001) %MON vort_p_sd                    =   8.6788032093296E-05
(PID.TID 0000.0001) %MON surfExpan_theta_mean         =  -1.9856104333713E-06
(PID.TID 0000.0001) %MON surfExpan_salt_mean          =   2.2190787793943E-22
(PID.TID 0000.0001) // =======================================================
(PID.TID 0000.0001) // End MONITOR dynamic field statistics
(PID.TID 0000.0001) // =======================================================
 Compute Stats, Diag. #     23  ETAN      vol(   0 ): 4.197E+12  Parms: SM      M1      
 Compute Stats, Diag. #     30  UVEL      vol(   0 ): 2.182E+16  Parms: UUR     MR      
 Compute Stats, Diag. #     31  VVEL      vol(   0 ): 2.173E+16  Parms: VVR     MR      
 Compute Stats, Diag. #     32  WVEL      vol(   0 ): 2.035E+16  Parms: WM      LR      
 Compute Stats, Diag. #     26  THETA     vol(   0 ): 2.182E+16  Parms: SMR     MR      
GMREDI_CALC_GEOM: tile diag  t       =   100.03056 yr,   kgm_max =    70.76418 m2/s,   eE_avg  =     0.00011 m2/s2 
GMREDI_CALC_GEOM: tile diag  t       =   100.03056 yr,   kgm_max =    50.33782 m2/s,   eE_avg  =     0.00006 m2/s2 
GMREDI_CALC_GEOM: tile diag  t       =   100.03056 yr,   kgm_max =    64.02745 m2/s,   eE_avg  =     0.00006 m2/s2 
GMREDI_CALC_GEOM: tile diag  t       =   100.03056 yr,   kgm_max =    76.33205 m2/s,   eE_avg  =     0.00013 m2/s2 
 cg2d: Sum(rhs),rhsMax =   1.24344978758018E-14  1.47917754506324E+00
(PID.TID 0000.0001)      cg2d_init_res =   2.43797860680229E-03
(PID.TID 0000.0001)      cg2d_iters(min,last) =      -1      27
(PID.TID 0000.0001)      cg2d_last_res =   1.05950078258769E-17
(PID.TID 0000.0001) // =======================================================
(PID.TID 0000.0001) // Begin MONITOR dynamic field statistics
(PID.TID 0000.0001) // =======================================================
(PID.TID 0000.0001) %MON time_tsnumber                =                 36012
(PID.TID 0000.0001) %MON time_secondsf                =   3.1114368000000E+09
(PID.TID 0000.0001) %MON dynstat_eta_max              =   1.6157032781484E+00
(PID.TID 0000.0001) %MON dynstat_eta_min              =  -3.9226348328701E+00
(PID.TID 0000.0001) %MON dynstat_eta_mean             =  -2.2337978401749E-16
(PID.TID 0000.0001) %MON dynstat_eta_sd               =   1.6483318821946E+00
(PID.TID 0000.0001) %MON dynstat_eta_del2             =   8.2855815042130E-03
(PID.TID 0000.0001) %MON dynstat_uvel_max             =   1.4270615207556E-01
(PID.TID 0000.0001) %MON dynstat_uvel_min             =  -3.8630530473309E-01
(PID.TID 0000.0001) %MON dynstat_uvel_mean            =   1.2793423663479E-02
(PID.TID 0000.0001) %MON dynstat_uvel_sd              =   3.8729234301718E-02
(PID.TID 0000.0001) %MON dynstat_uvel_del2            =   1.3225878966529E-04
(PID.TID 0000.0001) %MON dynstat_vvel_max             =   2.3285695567749E-02
(PID.TID 0000.0001) %MON dynstat_vvel_min             =  -2.3285695567720E-02
(PID.TID 0000.0001) %MON dynstat_vvel_mean            =   1.3012068671065E-15
(PID.TID 0000.0001) %MON dynstat_vvel_sd              =   1.5560085516387E-03
(PID.TID 0000.0001) %MON dynstat_vvel_del2            =   3.0902983081331E-05
(PID.TID 0000.0001) %MON dynstat_wvel_max             =   1.2110839366204E-06
(PID.TID 0000.0001) %MON dynstat_wvel_min             =  -8.5419245444795E-07
(PID.TID 0000.0001) %MON dynstat_wvel_mean            =   2.3426151238142E-23
(PID.TID 0000.0001) %MON dynstat_wvel_sd              =   2.8180197732051E-07
(PID.TID 0000.0001) %MON dynstat_wvel_del2            =   9.2230564465096E-09
(PID.TID 0000.0001) %MON dynstat_theta_max            =   2.6674835691670E+01
(PID.TID 0000.0001) %MON dynstat_theta_min            =  -9.3080477768059E-01
(PID.TID 0000.0001) %MON dynstat_theta_mean           =   2.2243827865907E+00
(PID.TID 0000.0001) %MON dynstat_theta_sd             =   3.9281454491045E+00
(PID.TID 0000.0001) %MON dynstat_theta_del2           =   1.3386901650948E-02
(PID.TID 0000.0001) %MON dynstat_salt_max             =   3.4700000000000E+01
(PID.TID 0000.0001) %MON dynstat_salt_min             =   3.4700000000000E+01
(PID.TID 0000.0001) %MON dynstat_salt_mean            =   3.4700000000000E+01
(PID.TID 0000.0001) %MON dynstat_salt_sd              =   7.1054273576010E-15
(PID.TID 0000.0001) %MON dynstat_salt_del2            =   0.0000000000000E+00
(PID.TID 0000.0001) %MON trAdv_CFL_u_max              =   1.0011630630927E-01
(PID.TID 0000.0001) %MON trAdv_CFL_v_max              =   5.9882501601929E-03
(PID.TID 0000.0001) %MON trAdv_CFL_w_max              =   3.7056475969566E-03
(PID.TID 0000.0001) %MON advcfl_uvel_max              =   1.0010487026209E-01
(PID.TID 0000.0001) %MON advcfl_vvel_max              =   6.0320495882079E-03
(PID.TID 0000.0001) %MON advcfl_wvel_max              =   1.7439608687334E-03
(PID.TID 0000.0001) %MON advcfl_W_hf_max              =   2.0927530424800E-03
(PID.TID 0000.0001) %MON pe_b_mean                    =   2.5628606076691E-03
(PID.TID 0000.0001) %MON ke_max                       =   7.4645817126490E-02
(PID.TID 0000.0001) %MON ke_mean                      =   8.3311295119765E-04
(PID.TID 0000.0001) %MON ke_vol                       =   2.1823819113454E+16
(PID.TID 0000.0001) %MON vort_r_min                   =  -1.7705234479677E-07
(PID.TID 0000.0001) %MON vort_r_max                   =   1.7705234479659E-07
(PID.TID 0000.0001) %MON vort_a_mean                  =  -2.7861254556126E-21
(PID.TID 0000.0001) %MON vort_a_sd                    =   8.3492809817624E-05
(PID.TID 0000.0001) %MON vort_p_mean                  =  -2.8034944168185E-21
(PID.TID 0000.0001) %MON vort_p_sd                    =   8.6788034019481E-05
(PID.TID 0000.0001) %MON surfExpan_theta_mean         =  -1.4518916205159E-06
(PID.TID 0000.0001) %MON surfExpan_salt_mean          =   0.0000000000000E+00
(PID.TID 0000.0001) // =======================================================
(PID.TID 0000.0001) // End MONITOR dynamic field statistics
(PID.TID 0000.0001) // =======================================================
GMREDI_CALC_GEOM: tile diag  t       =   100.03333 yr,   kgm_max =    77.36084 m2/s,   eE_avg  =     0.00012 m2/s2 
GMREDI_CALC_GEOM: tile diag  t       =   100.03333 yr,   kgm_max =    54.62791 m2/s,   eE_avg  =     0.00006 m2/s2 
GMREDI_CALC_GEOM: tile diag  t       =   100.03333 yr,   kgm_max =    69.23371 m2/s,   eE_avg  =     0.00006 m2/s2 
GMREDI_CALC_GEOM: tile diag  t       =   100.03333 yr,   kgm_max =    82.77979 m2/s,   eE_avg  =     0.00014 m2/s2 
 cg2d: Sum(rhs),rhsMax =   1.06581410364015E-14  1.47900664701042E+00
(PID.TID 0000.0001)      cg2d_init_res =   1.41714999751045E-03
(PID.TID 0000.0001)      cg2d_iters(min,last) =      -1      27
(PID.TID 0000.0001)      cg2d_last_res =   2.33324270239369E-17
(PID.TID 0000.0001) // =======================================================
(PID.TID 0000.0001) // Begin MONITOR dynamic field statistics
(PID.TID 0000.0001) // =======================================================
(PID.TID 0000.0001) %MON time_tsnumber                =                 36013
(PID.TID 0000.0001) %MON time_secondsf                =   3.1115232000000E+09
(PID.TID 0000.0001) %MON dynstat_eta_max              =   1.6155159861761E+00
(PID.TID 0000.0001) %MON dynstat_eta_min              =  -3.9218341005447E+00
(PID.TID 0000.0001) %MON dynstat_eta_mean             =  -2.9783971202332E-16
(PID.TID 0000.0001) %MON dynstat_eta_sd               =   1.6480423516902E+00
(PID.TID 0000.0001) %MON dynstat_eta_del2             =   8.2853334011919E-03
(PID.TID 0000.0001) %MON dynstat_uvel_max             =   1.4269127462566E-01
(PID.TID 0000.0001) %MON dynstat_uvel_min             =  -3.8630447096153E-01
(PID.TID 0000.0001) %MON dynstat_uvel_mean            =   1.2798828851910E-02
(PID.TID 0000.0001) %MON dynstat_uvel_sd              =   3.8728307388178E-02
(PID.TID 0000.0001) %MON dynstat_uvel_del2            =   1.3225101789532E-04
(PID.TID 0000.0001) %MON dynstat_vvel_max             =   2.3281515765540E-02
(PID.TID 0000.0001) %MON dynstat_vvel_min             =  -2.3281515765513E-02
(PID.TID 0000.0001) %MON dynstat_vvel_mean            =   1.1255898866768E-15
(PID.TID 0000.0001) %MON dynstat_vvel_sd              =   1.5549268136581E-03
(PID.TID 0000.0001) %MON dynstat_vvel_del2            =   3.0908551358019E-05
(PID.TID 0000.0001) %MON dynstat_wvel_max             =   1.3055393512830E-06
(PID.TID 0000.0001) %MON dynstat_wvel_min             =  -8.6151789396706E-07
(PID.TID 0000.0001) %MON dynstat_wvel_mean            =  -8.7848067143032E-24
(PID.TID 0000.0001) %MON dynstat_wvel_sd              =   2.7204083415132E-07
(PID.TID 0000.0001) %MON dynstat_wvel_del2            =   9.2275977406358E-09
(PID.TID 0000.0001) %MON dynstat_theta_max            =   2.6674672930417E+01
(PID.TID 0000.0001) %MON dynstat_theta_min            =  -9.3080835868916E-01
(PID.TID 0000.0001) %MON dynstat_theta_mean           =   2.2244002630710E+00
(PID.TID 0000.0001) %MON dynstat_theta_sd             =   3.9282050439393E+00
(PID.TID 0000.0001) %MON dynstat_theta_del2           =   1.3387420291704E-02
(PID.TID 0000.0001) %MON dynstat_salt_max             =   3.4700000000000E+01
(PID.TID 0000.0001) %MON dynstat_salt_min             =   3.4700000000000E+01
(PID.TID 0000.0001) %MON dynstat_salt_mean            =   3.4700000000000E+01
(PID.TID 0000.0001) %MON dynstat_salt_sd              =   7.1054273576010E-15
(PID.TID 0000.0001) %MON dynstat_salt_del2            =   0.0000000000000E+00
(PID.TID 0000.0001) %MON trAdv_CFL_u_max              =   1.0011609022596E-01
(PID.TID 0000.0001) %MON trAdv_CFL_v_max              =   5.9871749660934E-03
(PID.TID 0000.0001) %MON trAdv_CFL_w_max              =   3.7030822628047E-03
(PID.TID 0000.0001) %MON advcfl_uvel_max              =   1.0010465420347E-01
(PID.TID 0000.0001) %MON advcfl_vvel_max              =   6.0309668301637E-03
(PID.TID 0000.0001) %MON advcfl_wvel_max              =   1.8799766658475E-03
(PID.TID 0000.0001) %MON advcfl_W_hf_max              =   2.2559719990170E-03
(PID.TID 0000.0001) %MON pe_b_mean                    =   2.5619603506714E-03
(PID.TID 0000.0001) %MON ke_max                       =   7.4645511602662E-02
(PID.TID 0000.0001) %MON ke_mean                      =   8.3314454700252E-04
(PID.TID 0000.0001) %MON ke_vol                       =   2.1823819113454E+16
(PID.TID 0000.0001) %MON vort_r_min                   =  -1.7705819759452E-07
(PID.TID 0000.0001) %MON vort_r_max                   =   1.7705819759434E-07
(PID.TID 0000.0001) %MON vort_a_mean                  =   2.2289003644901E-20
(PID.TID 0000.0001) %MON vort_a_sd                    =   8.3492810862159E-05
(PID.TID 0000.0001) %MON vort_p_mean                  =   2.2427955334548E-20
(PID.TID 0000.0001) %MON vort_p_sd                    =   8.6788035335593E-05
(PID.TID 0000.0001) %MON surfExpan_theta_mean         =  -8.6999338015576E-07
(PID.TID 0000.0001) %MON surfExpan_salt_mean          =  -5.5476969484857E-22
(PID.TID 0000.0001) // =======================================================
(PID.TID 0000.0001) // End MONITOR dynamic field statistics
(PID.TID 0000.0001) // =======================================================
GMREDI_CALC_GEOM: tile diag  t       =   100.03611 yr,   kgm_max =    83.57936 m2/s,   eE_avg  =     0.00013 m2/s2 
GMREDI_CALC_GEOM: tile diag  t       =   100.03611 yr,   kgm_max =    58.90235 m2/s,   eE_avg  =     0.00006 m2/s2 
GMREDI_CALC_GEOM: tile diag  t       =   100.03611 yr,   kgm_max =    74.40823 m2/s,   eE_avg  =     0.00007 m2/s2 
GMREDI_CALC_GEOM: tile diag  t       =   100.03611 yr,   kgm_max =    88.95472 m2/s,   eE_avg  =     0.00015 m2/s2 
 cg2d: Sum(rhs),rhsMax =   1.06581410364015E-14  1.47887334414109E+00
(PID.TID 0000.0001)      cg2d_init_res =   5.39222810448471E-04
(PID.TID 0000.0001)      cg2d_iters(min,last) =      -1      26
(PID.TID 0000.0001)      cg2d_last_res =   4.05818560913381E-13
(PID.TID 0000.0001) // =======================================================
(PID.TID 0000.0001) // Begin MONITOR dynamic field statistics
(PID.TID 0000.0001) // =======================================================
(PID.TID 0000.0001) %MON time_tsnumber                =                 36014
(PID.TID 0000.0001) %MON time_secondsf                =   3.1116096000000E+09
(PID.TID 0000.0001) %MON dynstat_eta_max              =   1.6153806178637E+00
(PID.TID 0000.0001) %MON dynstat_eta_min              =  -3.9215698128262E+00
(PID.TID 0000.0001) %MON dynstat_eta_mean             =  -2.9783971202332E-16
(PID.TID 0000.0001) %MON dynstat_eta_sd               =   1.6479295888886E+00
(PID.TID 0000.0001) %MON dynstat_eta_del2             =   8.2846884434146E-03
(PID.TID 0000.0001) %MON dynstat_uvel_max             =   1.4267369159722E-01
(PID.TID 0000.0001) %MON dynstat_uvel_min             =  -3.8630348682102E-01
(PID.TID 0000.0001) %MON dynstat_uvel_mean            =   1.2801337325242E-02
(PID.TID 0000.0001) %MON dynstat_uvel_sd              =   3.8726471987029E-02
(PID.TID 0000.0001) %MON dynstat_uvel_del2            =   1.3224199176079E-04
(PID.TID 0000.0001) %MON dynstat_vvel_max             =   2.3277751631901E-02
(PID.TID 0000.0001) %MON dynstat_vvel_min             =  -2.3277751631875E-02
(PID.TID 0000.0001) %MON dynstat_vvel_mean            =   9.1151700995949E-16
(PID.TID 0000.0001) %MON dynstat_vvel_sd              =   1.5542961234389E-03
(PID.TID 0000.0001) %MON dynstat_vvel_del2            =   3.0913911537442E-05
(PID.TID 0000.0001) %MON dynstat_wvel_max             =   1.3918582456007E-06
(PID.TID 0000.0001) %MON dynstat_wvel_min             =  -8.5901340044736E-07
(PID.TID 0000.0001) %MON dynstat_wvel_mean            =  -2.9282689047677E-24
(PID.TID 0000.0001) %MON dynstat_wvel_sd              =   2.6535846322784E-07
(PID.TID 0000.0001) %MON dynstat_wvel_del2            =   9.2334374875961E-09
(PID.TID 0000.0001) %MON dynstat_theta_max            =   2.6674026986317E+01
(PID.TID 0000.0001) %MON dynstat_theta_min            =  -9.3081194450513E-01
(PID.TID 0000.0001) %MON dynstat_theta_mean           =   2.2244085637636E+00
(PID.TID 0000.0001) %MON dynstat_theta_sd             =   3.9282344720772E+00
(PID.TID 0000.0001) %MON dynstat_theta_del2           =   1.3387970692378E-02
(PID.TID 0000.0001) %MON dynstat_salt_max             =   3.4700000000000E+01
(PID.TID 0000.0001) %MON dynstat_salt_min             =   3.4700000000000E+01
(PID.TID 0000.0001) %MON dynstat_salt_mean            =   3.4700000000000E+01
(PID.TID 0000.0001) %MON dynstat_salt_sd              =   7.1054273576010E-15
(PID.TID 0000.0001) %MON dynstat_salt_del2            =   0.0000000000000E+00
(PID.TID 0000.0001) %MON trAdv_CFL_u_max              =   1.0011583517248E-01
(PID.TID 0000.0001) %MON trAdv_CFL_v_max              =   5.9862044934974E-03
(PID.TID 0000.0001) %MON trAdv_CFL_w_max              =   3.7005398383877E-03
(PID.TID 0000.0001) %MON advcfl_uvel_max              =   1.0010439917912E-01
(PID.TID 0000.0001) %MON advcfl_vvel_max              =   6.0299917491015E-03
(PID.TID 0000.0001) %MON advcfl_wvel_max              =   2.0042758736650E-03
(PID.TID 0000.0001) %MON advcfl_W_hf_max              =   2.4051310483981E-03
(PID.TID 0000.0001) %MON pe_b_mean                    =   2.5616097723710E-03
(PID.TID 0000.0001) %MON ke_max                       =   7.4645150913740E-02
(PID.TID 0000.0001) %MON ke_mean                      =   8.3310459473324E-04
(PID.TID 0000.0001) %MON ke_vol                       =   2.1823819113454E+16
(PID.TID 0000.0001) %MON vort_r_min                   =  -1.7706288415117E-07
(PID.TID 0000.0001) %MON vort_r_max                   =   1.7706288415099E-07
(PID.TID 0000.0001) %MON vort_a_mean                  =  -2.7861254556126E-21
(PID.TID 0000.0001) %MON vort_a_sd                    =   8.3492811351557E-05
(PID.TID 0000.0001) %MON vort_p_mean                  =  -2.8034944168185E-21
(PID.TID 0000.0001) %MON vort_p_sd                    =   8.6788036004287E-05
(PID.TID 0000.0001) %MON surfExpan_theta_mean         =  -2.6606599896159E-07
(PID.TID 0000.0001) %MON surfExpan_salt_mean          =  -2.7738484742429E-23
(PID.TID 0000.0001) // =======================================================
(PID.TID 0000.0001) // End MONITOR dynamic field statistics
(PID.TID 0000.0001) // =======================================================
GMREDI_CALC_GEOM: tile diag  t       =   100.03889 yr,   kgm_max =    89.68476 m2/s,   eE_avg  =     0.00014 m2/s2 
GMREDI_CALC_GEOM: tile diag  t       =   100.03889 yr,   kgm_max =    63.16180 m2/s,   eE_avg  =     0.00007 m2/s2 
GMREDI_CALC_GEOM: tile diag  t       =   100.03889 yr,   kgm_max =    79.55218 m2/s,   eE_avg  =     0.00007 m2/s2 
GMREDI_CALC_GEOM: tile diag  t       =   100.03889 yr,   kgm_max =    95.01006 m2/s,   eE_avg  =     0.00016 m2/s2 
 cg2d: Sum(rhs),rhsMax =   7.10542735760100E-15  1.47881258481819E+00
(PID.TID 0000.0001)      cg2d_init_res =   7.93191454339747E-04
(PID.TID 0000.0001)      cg2d_iters(min,last) =      -1      27
(PID.TID 0000.0001)      cg2d_last_res =   9.08031637556584E-18
(PID.TID 0000.0001) // =======================================================
(PID.TID 0000.0001) // Begin MONITOR dynamic field statistics
(PID.TID 0000.0001) // =======================================================
(PID.TID 0000.0001) %MON time_tsnumber                =                 36015
(PID.TID 0000.0001) %MON time_secondsf                =   3.1116960000000E+09
(PID.TID 0000.0001) %MON dynstat_eta_max              =   1.6153314725557E+00
(PID.TID 0000.0001) %MON dynstat_eta_min              =  -3.9218070007930E+00
(PID.TID 0000.0001) %MON dynstat_eta_mean             =  -2.9783971202332E-16
(PID.TID 0000.0001) %MON dynstat_eta_sd               =   1.6479997666844E+00
(PID.TID 0000.0001) %MON dynstat_eta_del2             =   8.2839481052729E-03
(PID.TID 0000.0001) %MON dynstat_uvel_max             =   1.4265362528941E-01
(PID.TID 0000.0001) %MON dynstat_uvel_min             =  -3.8630236468053E-01
(PID.TID 0000.0001) %MON dynstat_uvel_mean            =   1.2800947808415E-02
(PID.TID 0000.0001) %MON dynstat_uvel_sd              =   3.8723725689407E-02
(PID.TID 0000.0001) %MON dynstat_uvel_del2            =   1.3223176141546E-04
(PID.TID 0000.0001) %MON dynstat_vvel_max             =   2.3275144620539E-02
(PID.TID 0000.0001) %MON dynstat_vvel_min             =  -2.3275144620514E-02
(PID.TID 0000.0001) %MON dynstat_vvel_mean            =   6.7606406097700E-16
(PID.TID 0000.0001) %MON dynstat_vvel_sd              =   1.5541491337749E-03
(PID.TID 0000.0001) %MON dynstat_vvel_del2            =   3.0918905530040E-05
(PID.TID 0000.0001) %MON dynstat_wvel_max             =   1.4662900412317E-06
(PID.TID 0000.0001) %MON dynstat_wvel_min             =  -8.4626678803754E-07
(PID.TID 0000.0001) %MON dynstat_wvel_mean            =  -2.9282689047677E-24
(PID.TID 0000.0001) %MON dynstat_wvel_sd              =   2.6200105223603E-07
(PID.TID 0000.0001) %MON dynstat_wvel_del2            =   9.2386052437441E-09
(PID.TID 0000.0001) %MON dynstat_theta_max            =   2.6672967866914E+01
(PID.TID 0000.0001) %MON dynstat_theta_min            =  -9.3081553498826E-01
(PID.TID 0000.0001) %MON dynstat_theta_mean           =   2.2244077939319E+00
(PID.TID 0000.0001) %MON dynstat_theta_sd             =   3.9282349648581E+00
(PID.TID 0000.0001) %MON dynstat_theta_del2           =   1.3388504398669E-02
(PID.TID 0000.0001) %MON dynstat_salt_max             =   3.4700000000000E+01
(PID.TID 0000.0001) %MON dynstat_salt_min             =   3.4700000000000E+01
(PID.TID 0000.0001) %MON dynstat_salt_mean            =   3.4700000000000E+01
(PID.TID 0000.0001) %MON dynstat_salt_sd              =   7.1054273576010E-15
(PID.TID 0000.0001) %MON dynstat_salt_del2            =   0.0000000000000E+00
(PID.TID 0000.0001) %MON trAdv_CFL_u_max              =   1.0011554435441E-01
(PID.TID 0000.0001) %MON trAdv_CFL_v_max              =   5.9855298924722E-03
(PID.TID 0000.0001) %MON trAdv_CFL_w_max              =   3.8120960511311E-03
(PID.TID 0000.0001) %MON advcfl_uvel_max              =   1.0010410839427E-01
(PID.TID 0000.0001) %MON advcfl_vvel_max              =   6.0293164151065E-03
(PID.TID 0000.0001) %MON advcfl_wvel_max              =   2.1114576593737E-03
(PID.TID 0000.0001) %MON advcfl_W_hf_max              =   2.5337491912484E-03
(PID.TID 0000.0001) %MON pe_b_mean                    =   2.5618279515415E-03
(PID.TID 0000.0001) %MON ke_max                       =   7.4644741169659E-02
(PID.TID 0000.0001) %MON ke_mean                      =   8.3299301765155E-04
(PID.TID 0000.0001) %MON ke_vol                       =   2.1823819113454E+16
(PID.TID 0000.0001) %MON vort_r_min                   =  -1.7706640588850E-07
(PID.TID 0000.0001) %MON vort_r_max                   =   1.7706640588832E-07
(PID.TID 0000.0001) %MON vort_a_mean                  =  -2.7861254556126E-21
(PID.TID 0000.0001) %MON vort_a_sd                    =   8.3492811286727E-05
(PID.TID 0000.0001) %MON vort_p_mean                  =  -2.8034944168185E-21
(PID.TID 0000.0001) %MON vort_p_sd                    =   8.6788036025339E-05
(PID.TID 0000.0001) %MON surfExpan_theta_mean         =   3.3229031893917E-07
(PID.TID 0000.0001) %MON surfExpan_salt_mean          =  -8.3215454227286E-23
(PID.TID 0000.0001) // =======================================================
(PID.TID 0000.0001) // End MONITOR dynamic field statistics
(PID.TID 0000.0001) // =======================================================
GMREDI_CALC_GEOM: tile diag  t       =   100.04167 yr,   kgm_max =    95.69793 m2/s,   eE_avg  =     0.00015 m2/s2 
GMREDI_CALC_GEOM: tile diag  t       =   100.04167 yr,   kgm_max =    67.40689 m2/s,   eE_avg  =     0.00007 m2/s2 
GMREDI_CALC_GEOM: tile diag  t       =   100.04167 yr,   kgm_max =    84.66679 m2/s,   eE_avg  =     0.00008 m2/s2 
GMREDI_CALC_GEOM: tile diag  t       =   100.04167 yr,   kgm_max =   100.97353 m2/s,   eE_avg  =     0.00017 m2/s2 
 cg2d: Sum(rhs),rhsMax =   1.24344978758018E-14  1.47884998680837E+00
(PID.TID 0000.0001)      cg2d_init_res =   1.62767868311361E-03
(PID.TID 0000.0001)      cg2d_iters(min,last) =      -1      27
(PID.TID 0000.0001)      cg2d_last_res =   1.74179348208480E-17
(PID.TID 0000.0001) // =======================================================
(PID.TID 0000.0001) // Begin MONITOR dynamic field statistics
(PID.TID 0000.0001) // =======================================================
(PID.TID 0000.0001) %MON time_tsnumber                =                 36016
(PID.TID 0000.0001) %MON time_secondsf                =   3.1117824000000E+09
(PID.TID 0000.0001) %MON dynstat_eta_max              =   1.6153933391111E+00
(PID.TID 0000.0001) %MON dynstat_eta_min              =  -3.9224772210835E+00
(PID.TID 0000.0001) %MON dynstat_eta_mean             =  -3.7229964002914E-16
(PID.TID 0000.0001) %MON dynstat_eta_sd               =   1.6482492196277E+00
(PID.TID 0000.0001) %MON dynstat_eta_del2             =   8.2833968493280E-03
(PID.TID 0000.0001) %MON dynstat_uvel_max             =   1.4263146965900E-01
(PID.TID 0000.0001) %MON dynstat_uvel_min             =  -3.8630111889990E-01
(PID.TID 0000.0001) %MON dynstat_uvel_mean            =   1.2797798286566E-02
(PID.TID 0000.0001) %MON dynstat_uvel_sd              =   3.8720114981001E-02
(PID.TID 0000.0001) %MON dynstat_uvel_del2            =   1.3222041108324E-04
(PID.TID 0000.0001) %MON dynstat_vvel_max             =   2.3274035021957E-02
(PID.TID 0000.0001) %MON dynstat_vvel_min             =  -2.3274035021933E-02
(PID.TID 0000.0001) %MON dynstat_vvel_mean            =   4.1192958509448E-16
(PID.TID 0000.0001) %MON dynstat_vvel_sd              =   1.5544184255460E-03
(PID.TID 0000.0001) %MON dynstat_vvel_del2            =   3.0923354621769E-05
(PID.TID 0000.0001) %MON dynstat_wvel_max             =   1.5273610257531E-06
(PID.TID 0000.0001) %MON dynstat_wvel_min             =  -8.2522535522776E-07
(PID.TID 0000.0001) %MON dynstat_wvel_mean            =   1.0981008392879E-24
(PID.TID 0000.0001) %MON dynstat_wvel_sd              =   2.6166604004548E-07
(PID.TID 0000.0001) %MON dynstat_wvel_del2            =   9.2419978721755E-09
(PID.TID 0000.0001) %MON dynstat_theta_max            =   2.6671575325550E+01
(PID.TID 0000.0001) %MON dynstat_theta_min            =  -9.3081913046789E-01
(PID.TID 0000.0001) %MON dynstat_theta_mean           =   2.2243985222170E+00
(PID.TID 0000.0001) %MON dynstat_theta_sd             =   3.9282090379567E+00
(PID.TID 0000.0001) %MON dynstat_theta_del2           =   1.3388972944412E-02
(PID.TID 0000.0001) %MON dynstat_salt_max             =   3.4700000000000E+01
(PID.TID 0000.0001) %MON dynstat_salt_min             =   3.4700000000000E+01
(PID.TID 0000.0001) %MON dynstat_salt_mean            =   3.4700000000000E+01
(PID.TID 0000.0001) %MON dynstat_salt_sd              =   7.1054273576010E-15
(PID.TID 0000.0001) %MON dynstat_salt_del2            =   0.0000000000000E+00
(PID.TID 0000.0001) %MON trAdv_CFL_u_max              =   1.0011522149332E-01
(PID.TID 0000.0001) %MON trAdv_CFL_v_max              =   5.9852391372617E-03
(PID.TID 0000.0001) %MON trAdv_CFL_w_max              =   4.0180597735405E-03
(PID.TID 0000.0001) %MON advcfl_uvel_max              =   1.0010378557006E-01
(PID.TID 0000.0001) %MON advcfl_vvel_max              =   6.0290289788284E-03
(PID.TID 0000.0001) %MON advcfl_wvel_max              =   2.1993998770844E-03
(PID.TID 0000.0001) %MON advcfl_W_hf_max              =   2.6392798525013E-03
(PID.TID 0000.0001) %MON pe_b_mean                    =   2.5626035631665E-03
(PID.TID 0000.0001) %MON ke_max                       =   7.4644288582167E-02
(PID.TID 0000.0001) %MON ke_mean                      =   8.3281328833027E-04
(PID.TID 0000.0001) %MON ke_vol                       =   2.1823819113454E+16
(PID.TID 0000.0001) %MON vort_r_min                   =  -1.7706880448111E-07
(PID.TID 0000.0001) %MON vort_r_max                   =   1.7706880448093E-07
(PID.TID 0000.0001) %MON vort_a_mean                  =  -5.5722509112253E-21
(PID.TID 0000.0001) %MON vort_a_sd                    =   8.3492810693899E-05
(PID.TID 0000.0001) %MON vort_p_mean                  =  -5.6069888336370E-21
(PID.TID 0000.0001) %MON vort_p_sd                    =   8.6788035431979E-05
(PID.TID 0000.0001) %MON surfExpan_theta_mean         =   8.9743504412346E-07
(PID.TID 0000.0001) %MON surfExpan_salt_mean          =   3.3286181690914E-22
(PID.TID 0000.0001) // =======================================================
(PID.TID 0000.0001) // End MONITOR dynamic field statistics
(PID.TID 0000.0001) // =======================================================
 Computing Diagnostic #     23  ETAN         Counter:       1   Parms: SM      M1      
 Computing Diagnostic #     24  ETANSQ       Counter:       1   Parms: SM P    M1      
 Computing Diagnostic #     25  DETADT2      Counter:       1   Parms: SM      M1      
 Computing Diagnostic #     73  PHIBOT       Counter:       1   Parms: SM      M1      
 Computing Diagnostic #     74  PHIBOTSQ     Counter:       1   Parms: SM P    M1      
GMREDI_CALC_GEOM: tile diag  t       =   100.04444 yr,   kgm_max =   101.61832 m2/s,   eE_avg  =     0.00016 m2/s2 
GMREDI_CALC_GEOM: tile diag  t       =   100.04444 yr,   kgm_max =    71.63821 m2/s,   eE_avg  =     0.00008 m2/s2 
GMREDI_CALC_GEOM: tile diag  t       =   100.04444 yr,   kgm_max =    89.75325 m2/s,   eE_avg  =     0.00008 m2/s2 
GMREDI_CALC_GEOM: tile diag  t       =   100.04444 yr,   kgm_max =   106.91294 m2/s,   eE_avg  =     0.00018 m2/s2 
 cg2d: Sum(rhs),rhsMax =   7.10542735760100E-15  1.47899742527293E+00
(PID.TID 0000.0001)      cg2d_init_res =   2.41528522774376E-03
(PID.TID 0000.0001)      cg2d_iters(min,last) =      -1      27
(PID.TID 0000.0001)      cg2d_last_res =   2.29911682267254E-17
(PID.TID 0000.0001) // =======================================================
(PID.TID 0000.0001) // Begin MONITOR dynamic field statistics
(PID.TID 0000.0001) // =======================================================
(PID.TID 0000.0001) %MON time_tsnumber                =                 36017
(PID.TID 0000.0001) %MON time_secondsf                =   3.1118688000000E+09
(PID.TID 0000.0001) %MON dynstat_eta_max              =   1.6155769132867E+00
(PID.TID 0000.0001) %MON dynstat_eta_min              =  -3.9234946197901E+00
(PID.TID 0000.0001) %MON dynstat_eta_mean             =  -3.7229964002914E-16
(PID.TID 0000.0001) %MON dynstat_eta_sd               =   1.6486640486636E+00
(PID.TID 0000.0001) %MON dynstat_eta_del2             =   8.2832421846698E-03
(PID.TID 0000.0001) %MON dynstat_uvel_max             =   1.4260782045031E-01
(PID.TID 0000.0001) %MON dynstat_uvel_min             =  -3.8629976360836E-01
(PID.TID 0000.0001) %MON dynstat_uvel_mean            =   1.2792150651411E-02
(PID.TID 0000.0001) %MON dynstat_uvel_sd              =   3.8715735314277E-02
(PID.TID 0000.0001) %MON dynstat_uvel_del2            =   1.3220807534904E-04
(PID.TID 0000.0001) %MON dynstat_vvel_max             =   2.3274463575862E-02
(PID.TID 0000.0001) %MON dynstat_vvel_min             =  -2.3274463575839E-02
(PID.TID 0000.0001) %MON dynstat_vvel_mean            =   1.4510201304060E-16
(PID.TID 0000.0001) %MON dynstat_vvel_sd              =   1.5549570648978E-03
(PID.TID 0000.0001) %MON dynstat_vvel_del2            =   3.0927042391932E-05
(PID.TID 0000.0001) %MON dynstat_wvel_max             =   1.5752481443359E-06
(PID.TID 0000.0001) %MON dynstat_wvel_min             =  -7.9962883987764E-07
(PID.TID 0000.0001) %MON dynstat_wvel_mean            =  -7.3206722619193E-25
(PID.TID 0000.0001) %MON dynstat_wvel_sd              =   2.6365217433741E-07
(PID.TID 0000.0001) %MON dynstat_wvel_del2            =   9.2435255213349E-09
(PID.TID 0000.0001) %MON dynstat_theta_max            =   2.6669930736716E+01
(PID.TID 0000.0001) %MON dynstat_theta_min            =  -9.3082273103397E-01
(PID.TID 0000.0001) %MON dynstat_theta_mean           =   2.2243817385386E+00
(PID.TID 0000.0001) %MON dynstat_theta_sd             =   3.9281602935516E+00
(PID.TID 0000.0001) %MON dynstat_theta_del2           =   1.3389353062174E-02
(PID.TID 0000.0001) %MON dynstat_salt_max             =   3.4700000000000E+01
(PID.TID 0000.0001) %MON dynstat_salt_min             =   3.4700000000000E+01
(PID.TID 0000.0001) %MON dynstat_salt_mean            =   3.4700000000000E+01
(PID.TID 0000.0001) %MON dynstat_salt_sd              =   7.1054273576010E-15
(PID.TID 0000.0001) %MON dynstat_salt_del2            =   0.0000000000000E+00
(PID.TID 0000.0001) %MON trAdv_CFL_u_max              =   1.0011487025097E-01
(PID.TID 0000.0001) %MON trAdv_CFL_v_max              =   5.9853430498943E-03
(PID.TID 0000.0001) %MON trAdv_CFL_w_max              =   4.1832927592091E-03
(PID.TID 0000.0001) %MON advcfl_uvel_max              =   1.0010343436783E-01
(PID.TID 0000.0001) %MON advcfl_vvel_max              =   6.0291399936957E-03
(PID.TID 0000.0001) %MON advcfl_wvel_max              =   2.2683573278436E-03
(PID.TID 0000.0001) %MON advcfl_W_hf_max              =   2.7220287934124E-03
(PID.TID 0000.0001) %MON pe_b_mean                    =   2.5638936303789E-03
(PID.TID 0000.0001) %MON ke_max                       =   7.4643798772178E-02
(PID.TID 0000.0001) %MON ke_mean                      =   8.3257226149942E-04
(PID.TID 0000.0001) %MON ke_vol                       =   2.1823819113454E+16
(PID.TID 0000.0001) %MON vort_r_min                   =  -1.7707014966298E-07
(PID.TID 0000.0001) %MON vort_r_max                   =   1.7707014966280E-07
(PID.TID 0000.0001) %MON vort_a_mean                  =  -5.5722509112253E-21
(PID.TID 0000.0001) %MON vort_a_sd                    =   8.3492809622330E-05
(PID.TID 0000.0001) %MON vort_p_mean                  =  -5.6069888336370E-21
(PID.TID 0000.0001) %MON vort_p_sd                    =   8.6788034285364E-05
(PID.TID 0000.0001) %MON surfExpan_theta_mean         =   1.4033147111016E-06
(PID.TID 0000.0001) %MON surfExpan_salt_mean          =   2.2190787793943E-22
(PID.TID 0000.0001) // =======================================================
(PID.TID 0000.0001) // End MONITOR dynamic field statistics
(PID.TID 0000.0001) // =======================================================
GMREDI_CALC_GEOM: tile diag  t       =   100.04722 yr,   kgm_max =   107.62900 m2/s,   eE_avg  =     0.00017 m2/s2 
GMREDI_CALC_GEOM: tile diag  t       =   100.04722 yr,   kgm_max =    75.85630 m2/s,   eE_avg  =     0.00008 m2/s2 
GMREDI_CALC_GEOM: tile diag  t       =   100.04722 yr,   kgm_max =    94.81275 m2/s,   eE_avg  =     0.00008 m2/s2 
GMREDI_CALC_GEOM: tile diag  t       =   100.04722 yr,   kgm_max =   112.90591 m2/s,   eE_avg  =     0.00019 m2/s2 
 cg2d: Sum(rhs),rhsMax =   1.06581410364015E-14  1.47925182562918E+00
(PID.TID 0000.0001)      cg2d_init_res =   3.08847770410797E-03
(PID.TID 0000.0001)      cg2d_iters(min,last) =      -1      27
(PID.TID 0000.0001)      cg2d_last_res =   5.84961445980546E-18
(PID.TID 0000.0001) // =======================================================
(PID.TID 0000.0001) // Begin MONITOR dynamic field statistics
(PID.TID 0000.0001) // =======================================================
(PID.TID 0000.0001) %MON time_tsnumber                =                 36018
(PID.TID 0000.0001) %MON time_secondsf                =   3.1119552000000E+09
(PID.TID 0000.0001) %MON dynstat_eta_max              =   1.6158774354715E+00
(PID.TID 0000.0001) %MON dynstat_eta_min              =  -3.9247694757392E+00
(PID.TID 0000.0001) %MON dynstat_eta_mean             =  -2.9783971202332E-16
(PID.TID 0000.0001) %MON dynstat_eta_sd               =   1.6492207578300E+00
(PID.TID 0000.0001) %MON dynstat_eta_del2             =   8.2835828821920E-03
(PID.TID 0000.0001) %MON dynstat_uvel_max             =   1.4258347882375E-01
(PID.TID 0000.0001) %MON dynstat_uvel_min             =  -3.8629831139039E-01
(PID.TID 0000.0001) %MON dynstat_uvel_mean            =   1.2784370583597E-02
(PID.TID 0000.0001) %MON dynstat_uvel_sd              =   3.8710727279215E-02
(PID.TID 0000.0001) %MON dynstat_uvel_del2            =   1.3219494711195E-04
(PID.TID 0000.0001) %MON dynstat_vvel_max             =   2.3276293612581E-02
(PID.TID 0000.0001) %MON dynstat_vvel_min             =  -2.3276293612559E-02
(PID.TID 0000.0001) %MON dynstat_vvel_mean            =  -1.2871236843113E-16
(PID.TID 0000.0001) %MON dynstat_vvel_sd              =   1.5555708037075E-03
(PID.TID 0000.0001) %MON dynstat_vvel_del2            =   3.0929752188371E-05
(PID.TID 0000.0001) %MON dynstat_wvel_max             =   1.6110468653545E-06
(PID.TID 0000.0001) %MON dynstat_wvel_min             =  -7.7957460079223E-07
(PID.TID 0000.0001) %MON dynstat_wvel_mean            =  -1.4641344523839E-24
(PID.TID 0000.0001) %MON dynstat_wvel_sd              =   2.6696452850195E-07
(PID.TID 0000.0001) %MON dynstat_wvel_del2            =   9.2439273365619E-09
(PID.TID 0000.0001) %MON dynstat_theta_max            =   2.6668112001735E+01
(PID.TID 0000.0001) %MON dynstat_theta_min            =  -9.3082633677126E-01
(PID.TID 0000.0001) %MON dynstat_theta_mean           =   2.2243588035369E+00
(PID.TID 0000.0001) %MON dynstat_theta_sd             =   3.9280932269397E+00
(PID.TID 0000.0001) %MON dynstat_theta_del2           =   1.3389643036725E-02
(PID.TID 0000.0001) %MON dynstat_salt_max             =   3.4700000000000E+01
(PID.TID 0000.0001) %MON dynstat_salt_min             =   3.4700000000000E+01
(PID.TID 0000.0001) %MON dynstat_salt_mean            =   3.4700000000000E+01
(PID.TID 0000.0001) %MON dynstat_salt_sd              =   7.1054273576010E-15
(PID.TID 0000.0001) %MON dynstat_salt_del2            =   0.0000000000000E+00
(PID.TID 0000.0001) %MON trAdv_CFL_u_max              =   1.0011449388880E-01
(PID.TID 0000.0001) %MON trAdv_CFL_v_max              =   5.9858067387371E-03
(PID.TID 0000.0001) %MON trAdv_CFL_w_max              =   4.3059505302802E-03
(PID.TID 0000.0001) %MON advcfl_uvel_max              =   1.0010305804866E-01
(PID.TID 0000.0001) %MON advcfl_vvel_max              =   6.0296140560748E-03
(PID.TID 0000.0001) %MON advcfl_wvel_max              =   2.3199074861104E-03
(PID.TID 0000.0001) %MON advcfl_W_hf_max              =   2.7838889833325E-03
(PID.TID 0000.0001) %MON pe_b_mean                    =   2.5656254375040E-03
(PID.TID 0000.0001) %MON ke_max                       =   7.4643276460587E-02
(PID.TID 0000.0001) %MON ke_mean                      =   8.3227980757984E-04
(PID.TID 0000.0001) %MON ke_vol                       =   2.1823819113454E+16
(PID.TID 0000.0001) %MON vort_r_min                   =  -1.7707052840517E-07
(PID.TID 0000.0001) %MON vort_r_max                   =   1.7707052840500E-07
(PID.TID 0000.0001) %MON vort_a_mean                  =   2.7861254556126E-21
(PID.TID 0000.0001) %MON vort_a_sd                    =   8.3492808141029E-05
(PID.TID 0000.0001) %MON vort_p_mean                  =   2.8034944168185E-21
(PID.TID 0000.0001) %MON vort_p_sd                    =   8.6788032668298E-05
(PID.TID 0000.0001) %MON surfExpan_theta_mean         =   1.8271124860766E-06
(PID.TID 0000.0001) %MON surfExpan_salt_mean          =  -8.8763151175772E-22
(PID.TID 0000.0001) // =======================================================
(PID.TID 0000.0001) // End MONITOR dynamic field statistics
(PID.TID 0000.0001) // =======================================================
GMREDI_CALC_GEOM: tile diag  t       =   100.05000 yr,   kgm_max =   113.64510 m2/s,   eE_avg  =     0.00018 m2/s2 
GMREDI_CALC_GEOM: tile diag  t       =   100.05000 yr,   kgm_max =    80.06157 m2/s,   eE_avg  =     0.00008 m2/s2 
GMREDI_CALC_GEOM: tile diag  t       =   100.05000 yr,   kgm_max =    99.84640 m2/s,   eE_avg  =     0.00009 m2/s2 
GMREDI_CALC_GEOM: tile diag  t       =   100.05000 yr,   kgm_max =   118.86341 m2/s,   eE_avg  =     0.00020 m2/s2 
 cg2d: Sum(rhs),rhsMax =   1.06581410364015E-14  1.47959667413515E+00
(PID.TID 0000.0001)      cg2d_init_res =   3.61165571144805E-03
(PID.TID 0000.0001)      cg2d_iters(min,last) =      -1      27
(PID.TID 0000.0001)      cg2d_last_res =   1.22221662481516E-17
(PID.TID 0000.0001) // =======================================================
(PID.TID 0000.0001) // Begin MONITOR dynamic field statistics
(PID.TID 0000.0001) // =======================================================
(PID.TID 0000.0001) %MON time_tsnumber                =                 36019
(PID.TID 0000.0001) %MON time_secondsf                =   3.1120416000000E+09
(PID.TID 0000.0001) %MON dynstat_eta_max              =   1.6162761721714E+00
(PID.TID 0000.0001) %MON dynstat_eta_min              =  -3.9262170669695E+00
(PID.TID 0000.0001) %MON dynstat_eta_mean             =  -2.2337978401749E-16
(PID.TID 0000.0001) %MON dynstat_eta_sd               =   1.6498878431536E+00
(PID.TID 0000.0001) %MON dynstat_eta_del2             =   8.2844053813671E-03
(PID.TID 0000.0001) %MON dynstat_uvel_max             =   1.4255942477589E-01
(PID.TID 0000.0001) %MON dynstat_uvel_min             =  -3.8629677283230E-01
(PID.TID 0000.0001) %MON dynstat_uvel_mean            =   1.2774904445353E-02
(PID.TID 0000.0001) %MON dynstat_uvel_sd              =   3.8705269029267E-02
(PID.TID 0000.0001) %MON dynstat_uvel_del2            =   1.3218127339097E-04
(PID.TID 0000.0001) %MON dynstat_vvel_max             =   2.3279322863962E-02
(PID.TID 0000.0001) %MON dynstat_vvel_min             =  -2.3279322863940E-02
(PID.TID 0000.0001) %MON dynstat_vvel_mean            =  -4.1360113781005E-16
(PID.TID 0000.0001) %MON dynstat_vvel_sd              =   1.5560565157461E-03
(PID.TID 0000.0001) %MON dynstat_vvel_del2            =   3.0931296647379E-05
(PID.TID 0000.0001) %MON dynstat_wvel_max             =   1.6361151643138E-06
(PID.TID 0000.0001) %MON dynstat_wvel_min             =  -7.6057836177039E-07
(PID.TID 0000.0001) %MON dynstat_wvel_mean            =   1.1713075619071E-23
(PID.TID 0000.0001) %MON dynstat_wvel_sd              =   2.7044512003590E-07
(PID.TID 0000.0001) %MON dynstat_wvel_del2            =   9.2442822127067E-09
(PID.TID 0000.0001) %MON dynstat_theta_max            =   2.6666191314629E+01
(PID.TID 0000.0001) %MON dynstat_theta_min            =  -9.3082994779554E-01
(PID.TID 0000.0001) %MON dynstat_theta_mean           =   2.2243313715293E+00
(PID.TID 0000.0001) %MON dynstat_theta_sd             =   3.9280129933457E+00
(PID.TID 0000.0001) %MON dynstat_theta_del2           =   1.3389859525451E-02
(PID.TID 0000.0001) %MON dynstat_salt_max             =   3.4700000000000E+01
(PID.TID 0000.0001) %MON dynstat_salt_min             =   3.4700000000000E+01
(PID.TID 0000.0001) %MON dynstat_salt_mean            =   3.4700000000000E+01
(PID.TID 0000.0001) %MON dynstat_salt_sd              =   7.1054273576010E-15
(PID.TID 0000.0001) %MON dynstat_salt_del2            =   0.0000000000000E+00
(PID.TID 0000.0001) %MON trAdv_CFL_u_max              =   1.0011409515042E-01
(PID.TID 0000.0001) %MON trAdv_CFL_v_max              =   5.9865783892563E-03
(PID.TID 0000.0001) %MON trAdv_CFL_w_max              =   4.3884012205775E-03
(PID.TID 0000.0001) %MON advcfl_uvel_max              =   1.0010265935582E-01
(PID.TID 0000.0001) %MON advcfl_vvel_max              =   6.0303987693548E-03
(PID.TID 0000.0001) %MON advcfl_wvel_max              =   2.3560058366119E-03
(PID.TID 0000.0001) %MON advcfl_W_hf_max              =   2.8272070039343E-03
(PID.TID 0000.0001) %MON pe_b_mean                    =   2.5677013720975E-03
(PID.TID 0000.0001) %MON ke_max                       =   7.4642725472856E-02
(PID.TID 0000.0001) %MON ke_mean                      =   8.3194827025020E-04
(PID.TID 0000.0001) %MON ke_vol                       =   2.1823819113454E+16
(PID.TID 0000.0001) %MON vort_r_min                   =  -1.7707003657738E-07
(PID.TID 0000.0001) %MON vort_r_max                   =   1.7707003657720E-07
(PID.TID 0000.0001) %MON vort_a_mean                  =   0.0000000000000E+00
(PID.TID 0000.0001) %MON vort_a_sd                    =   8.3492806334726E-05
(PID.TID 0000.0001) %MON vort_p_mean                  =   0.0000000000000E+00
(PID.TID 0000.0001) %MON vort_p_sd                    =   8.6788030679002E-05
(PID.TID 0000.0001) %MON surfExpan_theta_mean         =   2.1506872338894E-06
(PID.TID 0000.0001) %MON surfExpan_salt_mean          =  -4.4381575587886E-22
(PID.TID 0000.0001) // =======================================================
(PID.TID 0000.0001) // End MONITOR dynamic field statistics
(PID.TID 0000.0001) // =======================================================
GMREDI_CALC_GEOM: tile diag  t       =   100.05278 yr,   kgm_max =   119.62710 m2/s,   eE_avg  =     0.00019 m2/s2 
GMREDI_CALC_GEOM: tile diag  t       =   100.05278 yr,   kgm_max =    84.25444 m2/s,   eE_avg  =     0.00009 m2/s2 
GMREDI_CALC_GEOM: tile diag  t       =   100.05278 yr,   kgm_max =   104.85523 m2/s,   eE_avg  =     0.00009 m2/s2 
GMREDI_CALC_GEOM: tile diag  t       =   100.05278 yr,   kgm_max =   124.78768 m2/s,   eE_avg  =     0.00021 m2/s2 
 cg2d: Sum(rhs),rhsMax =   1.06581410364015E-14  1.48000554111655E+00
(PID.TID 0000.0001)      cg2d_init_res =   3.95801557704120E-03
(PID.TID 0000.0001)      cg2d_iters(min,last) =      -1      27
(PID.TID 0000.0001)      cg2d_last_res =   1.50549363831195E-17
(PID.TID 0000.0001) // =======================================================
(PID.TID 0000.0001) // Begin MONITOR dynamic field statistics
(PID.TID 0000.0001) // =======================================================
(PID.TID 0000.0001) %MON time_tsnumber                =                 36020
(PID.TID 0000.0001) %MON time_secondsf                =   3.1121280000000E+09
(PID.TID 0000.0001) %MON dynstat_eta_max              =   1.6167440116770E+00
(PID.TID 0000.0001) %MON dynstat_eta_min              =  -3.9277613935107E+00
(PID.TID 0000.0001) %MON dynstat_eta_mean             =  -2.9783971202332E-16
(PID.TID 0000.0001) %MON dynstat_eta_sd               =   1.6506281093884E+00
(PID.TID 0000.0001) %MON dynstat_eta_del2             =   8.2856043351859E-03
(PID.TID 0000.0001) %MON dynstat_uvel_max             =   1.4253676404753E-01
(PID.TID 0000.0001) %MON dynstat_uvel_min             =  -3.8629515671872E-01
(PID.TID 0000.0001) %MON dynstat_uvel_mean            =   1.2764254583677E-02
(PID.TID 0000.0001) %MON dynstat_uvel_sd              =   3.8699565636383E-02
(PID.TID 0000.0001) %MON dynstat_uvel_del2            =   1.3216734147096E-04
(PID.TID 0000.0001) %MON dynstat_vvel_max             =   2.3283365578131E-02
(PID.TID 0000.0001) %MON dynstat_vvel_min             =  -2.3283365578109E-02
(PID.TID 0000.0001) %MON dynstat_vvel_mean            =  -6.6692986818610E-16
(PID.TID 0000.0001) %MON dynstat_vvel_sd              =   1.5562404024591E-03
(PID.TID 0000.0001) %MON dynstat_vvel_del2            =   3.0931544575709E-05
(PID.TID 0000.0001) %MON dynstat_wvel_max             =   1.6516033613281E-06
(PID.TID 0000.0001) %MON dynstat_wvel_min             =  -7.4541572379234E-07
(PID.TID 0000.0001) %MON dynstat_wvel_mean            =  -5.8565378095355E-24
(PID.TID 0000.0001) %MON dynstat_wvel_sd              =   2.7296710135459E-07
(PID.TID 0000.0001) %MON dynstat_wvel_del2            =   9.2455700507648E-09
(PID.TID 0000.0001) %MON dynstat_theta_max            =   2.6664235108674E+01
(PID.TID 0000.0001) %MON dynstat_theta_min            =  -9.3083356400408E-01
(PID.TID 0000.0001) %MON dynstat_theta_mean           =   2.2243012961604E+00
(PID.TID 0000.0001) %MON dynstat_theta_sd             =   3.9279251817034E+00
(PID.TID 0000.0001) %MON dynstat_theta_del2           =   1.3390031884669E-02
(PID.TID 0000.0001) %MON dynstat_salt_max             =   3.4700000000000E+01
(PID.TID 0000.0001) %MON dynstat_salt_min             =   3.4700000000000E+01
(PID.TID 0000.0001) %MON dynstat_salt_mean            =   3.4700000000000E+01
(PID.TID 0000.0001) %MON dynstat_salt_sd              =   7.1054273576010E-15
(PID.TID 0000.0001) %MON dynstat_salt_del2            =   0.0000000000000E+00
(PID.TID 0000.0001) %MON trAdv_CFL_u_max              =   1.0011367631247E-01
(PID.TID 0000.0001) %MON trAdv_CFL_v_max              =   5.9876104181821E-03
(PID.TID 0000.0001) %MON trAdv_CFL_w_max              =   4.4347806447469E-03
(PID.TID 0000.0001) %MON advcfl_uvel_max              =   1.0010224056571E-01
(PID.TID 0000.0001) %MON advcfl_vvel_max              =   6.0314460153891E-03
(PID.TID 0000.0001) %MON advcfl_wvel_max              =   2.3783088403125E-03
(PID.TID 0000.0001) %MON advcfl_W_hf_max              =   2.8539706083750E-03
(PID.TID 0000.0001) %MON pe_b_mean                    =   2.5700060245660E-03
(PID.TID 0000.0001) %MON ke_max                       =   7.4642148944282E-02
(PID.TID 0000.0001) %MON ke_mean                      =   8.3159178505321E-04
(PID.TID 0000.0001) %MON ke_vol                       =   2.1823819113454E+16
(PID.TID 0000.0001) %MON vort_r_min                   =  -1.7706944174972E-07
(PID.TID 0000.0001) %MON vort_r_max                   =   1.7706944174931E-07
(PID.TID 0000.0001) %MON vort_a_mean                  =  -1.9502878189288E-20
(PID.TID 0000.0001) %MON vort_a_sd                    =   8.3492804299304E-05
(PID.TID 0000.0001) %MON vort_p_mean                  =  -1.9624460917730E-20
(PID.TID 0000.0001) %MON vort_p_sd                    =   8.6788028425471E-05
(PID.TID 0000.0001) %MON surfExpan_theta_mean         =   2.3616339886172E-06
(PID.TID 0000.0001) %MON surfExpan_salt_mean          =   4.4381575587886E-22
(PID.TID 0000.0001) // =======================================================
(PID.TID 0000.0001) // End MONITOR dynamic field statistics
(PID.TID 0000.0001) // =======================================================
 Computing Diagnostic #     30  UVEL         Counter:      20   Parms: UUR     MR      
           Vector  Mate for  UVEL         Diagnostic #     31  VVEL     exists 
 Computing Diagnostic #     31  VVEL         Counter:      20   Parms: VVR     MR      
           Vector  Mate for  VVEL         Diagnostic #     30  UVEL     exists 
 Computing Diagnostic #     32  WVEL         Counter:      20   Parms: WM      LR      
 Computing Diagnostic #     71  PHIHYD       Counter:      20   Parms: SMR     MR      
 Computing Diagnostic #     46  VVELMASS     Counter:      20   Parms: VVr     MR      
           Vector  Mate for  VVELMASS     Diagnostic #     45  UVELMASS not enabled
 Computing Diagnostic #     26  THETA        Counter:      20   Parms: SMR     MR      
 Computing Diagnostic #     51  VTHMASS      Counter:      20   Parms: VVr     MR      
           Vector  Mate for  VTHMASS      Diagnostic #     50  UTHMASS  not enabled
 Computing Diagnostic #     52  WTHMASS      Counter:      20   Parms: WM      LR      
 Computing Diagnostic #     33  THETASQ      Counter:      20   Parms: SMRP    MR      
 Computing Diagnostic #     36  UVELSQ       Counter:      20   Parms: UURP    MR      
           Vector  Mate for  UVELSQ       Diagnostic #     37  VVELSQ   not enabled
 Computing Diagnostic #     42  UV_VEL_Z     Counter:      20   Parms: UZR     MR      
           Vector  Mate for  UV_VEL_Z     Diagnostic #     42  UV_VEL_Z exists 
 Computing Diagnostic #     43  WU_VEL       Counter:      20   Parms: WU      LR      
 Computing Diagnostic #     77  DRHODR       Counter:      10   Parms: SM      LR      
 Computing Diagnostic #     64  RHOAnoma     Counter:      10   Parms: SMR     MR      
 Computing Diagnostic #    218  GM_PsiY      Counter:      10   Parms: VV      LR      
           Vector  Mate for  GM_PsiY      Diagnostic #    217  GM_PsiX  not enabled
 Computing Diagnostic #    211  GM_Kvy       Counter:      10   Parms: VV P    MR      
           Vector  Mate for  GM_Kvy       Diagnostic #    210  GM_Kux   not enabled
 Computing Diagnostic #    213  GM_Kvz       Counter:      10   Parms: VV      MR      
           Vector  Mate for  GM_Kvz       Diagnostic #    212  GM_Kuz   not enabled
 Computing Diagnostic #    215  GM_Kwy       Counter:      10   Parms: VM      LR      
           Vector  Mate for  GM_Kwy       Diagnostic #    214  GM_Kwx   not enabled
 Computing Diagnostic #    216  GM_Kwz       Counter:      10   Parms: WM P    LR      
 Computing Diagnostic #    111  ADVy_TH      Counter:      20   Parms: VV      MR      
           Vector  Mate for  ADVy_TH      Diagnostic #    110  ADVx_TH  not enabled
 Computing Diagnostic #    109  ADVr_TH      Counter:      20   Parms: WM      LR      
 Computing Diagnostic #    114  DFyE_TH      Counter:      20   Parms: VV      MR      
           Vector  Mate for  DFyE_TH      Diagnostic #    113  DFxE_TH  not enabled
 Computing Diagnostic #    112  DFrE_TH      Counter:      20   Parms: WM      LR      
 Computing Diagnostic #    115  DFrI_TH      Counter:      20   Parms: WM      LR      
GMREDI_WRITE_PICKUP: writing GEOM msdio pickup
(PID.TID 0000.0001) %CHECKPOINT     36020 ckptA
(PID.TID 0000.0001)   Seconds in section "ALL                    [THE_MODEL_MAIN]":
(PID.TID 0000.0001)           User time:  0.97367500700056553
(PID.TID 0000.0001)         System time:   1.6143000684678555E-002
(PID.TID 0000.0001)     Wall clock time:  0.99075984954833984
(PID.TID 0000.0001)          No. starts:           1
(PID.TID 0000.0001)           No. stops:           1
(PID.TID 0000.0001)   Seconds in section "INITIALISE_FIXED       [THE_MODEL_MAIN]":
(PID.TID 0000.0001)           User time:  0.16837300499901175
(PID.TID 0000.0001)         System time:   4.8269997350871563E-003
(PID.TID 0000.0001)     Wall clock time:  0.17347383499145508
(PID.TID 0000.0001)          No. starts:           1
(PID.TID 0000.0001)           No. stops:           1
(PID.TID 0000.0001)   Seconds in section "THE_MAIN_LOOP          [THE_MODEL_MAIN]":
(PID.TID 0000.0001)           User time:  0.80414302647113800
(PID.TID 0000.0001)         System time:   1.0571999475359917E-002
(PID.TID 0000.0001)     Wall clock time:  0.81538605690002441
(PID.TID 0000.0001)          No. starts:           1
(PID.TID 0000.0001)           No. stops:           1
(PID.TID 0000.0001)   Seconds in section "INITIALISE_VARIA    [THE_MAIN_LOOP]":
(PID.TID 0000.0001)           User time:   2.5015994906425476E-002
(PID.TID 0000.0001)         System time:   1.4899997040629387E-003
(PID.TID 0000.0001)     Wall clock time:   2.6558876037597656E-002
(PID.TID 0000.0001)          No. starts:           1
(PID.TID 0000.0001)           No. stops:           1
(PID.TID 0000.0001)   Seconds in section "MAIN LOOP           [THE_MAIN_LOOP]":
(PID.TID 0000.0001)           User time:  0.77911101281642914
(PID.TID 0000.0001)         System time:   9.0799992904067039E-003
(PID.TID 0000.0001)     Wall clock time:  0.78881001472473145
(PID.TID 0000.0001)          No. starts:           1
(PID.TID 0000.0001)           No. stops:           1
(PID.TID 0000.0001)   Seconds in section "MAIN_DO_LOOP        [THE_MAIN_LOOP]":
(PID.TID 0000.0001)           User time:  0.77900898456573486
(PID.TID 0000.0001)         System time:   9.0769985690712929E-003
(PID.TID 0000.0001)     Wall clock time:  0.78870487213134766
(PID.TID 0000.0001)          No. starts:          20
(PID.TID 0000.0001)           No. stops:          20
(PID.TID 0000.0001)   Seconds in section "FORWARD_STEP        [MAIN_DO_LOOP]":
(PID.TID 0000.0001)           User time:  0.77881693840026855
(PID.TID 0000.0001)         System time:   9.0670036152005196E-003
(PID.TID 0000.0001)     Wall clock time:  0.78850483894348145
(PID.TID 0000.0001)          No. starts:          20
(PID.TID 0000.0001)           No. stops:          20
(PID.TID 0000.0001)   Seconds in section "DO_STATEVARS_DIAGS  [FORWARD_STEP]":
(PID.TID 0000.0001)           User time:   6.1748921871185303E-003
(PID.TID 0000.0001)         System time:   4.8001296818256378E-005
(PID.TID 0000.0001)     Wall clock time:   6.2263011932373047E-003
(PID.TID 0000.0001)          No. starts:          60
(PID.TID 0000.0001)           No. stops:          60
(PID.TID 0000.0001)   Seconds in section "LOAD_FIELDS_DRIVER  [FORWARD_STEP]":
(PID.TID 0000.0001)           User time:   2.8598308563232422E-004
(PID.TID 0000.0001)         System time:   1.6000121831893921E-005
(PID.TID 0000.0001)     Wall clock time:   3.0446052551269531E-004
(PID.TID 0000.0001)          No. starts:          20
(PID.TID 0000.0001)           No. stops:          20
(PID.TID 0000.0001)   Seconds in section "EXTERNAL_FLDS_LOAD [LOAD_FLDS_DRIVER]":
(PID.TID 0000.0001)           User time:   9.6961855888366699E-005
(PID.TID 0000.0001)         System time:   6.0005113482475281E-006
(PID.TID 0000.0001)     Wall clock time:   1.0633468627929688E-004
(PID.TID 0000.0001)          No. starts:          20
(PID.TID 0000.0001)           No. stops:          20
(PID.TID 0000.0001)   Seconds in section "DO_ATMOSPHERIC_PHYS [FORWARD_STEP]":
(PID.TID 0000.0001)           User time:   9.6946954727172852E-005
(PID.TID 0000.0001)         System time:   3.0007213354110718E-006
(PID.TID 0000.0001)     Wall clock time:   9.8943710327148438E-005
(PID.TID 0000.0001)          No. starts:          20
(PID.TID 0000.0001)           No. stops:          20
(PID.TID 0000.0001)   Seconds in section "DO_OCEANIC_PHYS     [FORWARD_STEP]":
(PID.TID 0000.0001)           User time:  0.13343004882335663
(PID.TID 0000.0001)         System time:   2.6000104844570160E-004
(PID.TID 0000.0001)     Wall clock time:  0.13370919227600098
(PID.TID 0000.0001)          No. starts:          20
(PID.TID 0000.0001)           No. stops:          20
(PID.TID 0000.0001)   Seconds in section "DYNAMICS            [FORWARD_STEP]":
(PID.TID 0000.0001)           User time:  0.16812609136104584
(PID.TID 0000.0001)         System time:   2.9600039124488831E-004
(PID.TID 0000.0001)     Wall clock time:  0.16845130920410156
(PID.TID 0000.0001)          No. starts:          20
(PID.TID 0000.0001)           No. stops:          20
(PID.TID 0000.0001)   Seconds in section "SOLVE_FOR_PRESSURE  [FORWARD_STEP]":
(PID.TID 0000.0001)           User time:   1.2897074222564697E-002
(PID.TID 0000.0001)         System time:   3.9000995457172394E-005
(PID.TID 0000.0001)     Wall clock time:   1.2959003448486328E-002
(PID.TID 0000.0001)          No. starts:          20
(PID.TID 0000.0001)           No. stops:          20
(PID.TID 0000.0001)   Seconds in section "MOM_CORRECTION_STEP [FORWARD_STEP]":
(PID.TID 0000.0001)           User time:   6.4970552921295166E-003
(PID.TID 0000.0001)         System time:   9.9986791610717773E-006
(PID.TID 0000.0001)     Wall clock time:   6.5212249755859375E-003
(PID.TID 0000.0001)          No. starts:          20
(PID.TID 0000.0001)           No. stops:          20
(PID.TID 0000.0001)   Seconds in section "INTEGR_CONTINUITY   [FORWARD_STEP]":
(PID.TID 0000.0001)           User time:   3.9238780736923218E-003
(PID.TID 0000.0001)         System time:   5.0002709031105042E-006
(PID.TID 0000.0001)     Wall clock time:   3.9331912994384766E-003
(PID.TID 0000.0001)          No. starts:          20
(PID.TID 0000.0001)           No. stops:          20
(PID.TID 0000.0001)   Seconds in section "BLOCKING_EXCHANGES  [FORWARD_STEP]":
(PID.TID 0000.0001)           User time:   2.5218009948730469E-002
(PID.TID 0000.0001)         System time:   6.5000727772712708E-005
(PID.TID 0000.0001)     Wall clock time:   2.5299549102783203E-002
(PID.TID 0000.0001)          No. starts:          40
(PID.TID 0000.0001)           No. stops:          40
(PID.TID 0000.0001)   Seconds in section "THERMODYNAMICS      [FORWARD_STEP]":
(PID.TID 0000.0001)           User time:  0.12949195504188538
(PID.TID 0000.0001)         System time:   2.8799939900636673E-004
(PID.TID 0000.0001)     Wall clock time:  0.12981557846069336
(PID.TID 0000.0001)          No. starts:          20
(PID.TID 0000.0001)           No. stops:          20
(PID.TID 0000.0001)   Seconds in section "TRC_CORRECTION_STEP [FORWARD_STEP]":
(PID.TID 0000.0001)           User time:   9.3996524810791016E-005
(PID.TID 0000.0001)         System time:   1.9995495676994324E-006
(PID.TID 0000.0001)     Wall clock time:   9.9897384643554688E-005
(PID.TID 0000.0001)          No. starts:          20
(PID.TID 0000.0001)           No. stops:          20
(PID.TID 0000.0001)   Seconds in section "DO_STATEVARS_TAVE   [FORWARD_STEP]":
(PID.TID 0000.0001)           User time:   5.1148533821105957E-003
(PID.TID 0000.0001)         System time:   9.0003013610839844E-006
(PID.TID 0000.0001)     Wall clock time:   5.1355361938476562E-003
(PID.TID 0000.0001)          No. starts:          20
(PID.TID 0000.0001)           No. stops:          20
(PID.TID 0000.0001)   Seconds in section "MONITOR             [FORWARD_STEP]":
(PID.TID 0000.0001)           User time:   1.3887137174606323E-002
(PID.TID 0000.0001)         System time:   2.3000128567218781E-004
(PID.TID 0000.0001)     Wall clock time:   1.4141082763671875E-002
(PID.TID 0000.0001)          No. starts:          20
(PID.TID 0000.0001)           No. stops:          20
(PID.TID 0000.0001)   Seconds in section "DO_THE_MODEL_IO     [FORWARD_STEP]":
(PID.TID 0000.0001)           User time:  0.27068598568439484
(PID.TID 0000.0001)         System time:   4.0979990735650063E-003
(PID.TID 0000.0001)     Wall clock time:  0.27513504028320312
(PID.TID 0000.0001)          No. starts:          20
(PID.TID 0000.0001)           No. stops:          20
(PID.TID 0000.0001)   Seconds in section "DO_WRITE_PICKUP     [FORWARD_STEP]":
(PID.TID 0000.0001)           User time:   8.9696049690246582E-004
(PID.TID 0000.0001)         System time:   3.5739997401833534E-003
(PID.TID 0000.0001)     Wall clock time:   4.7309398651123047E-003
(PID.TID 0000.0001)          No. starts:          20
(PID.TID 0000.0001)           No. stops:          20
(PID.TID 0000.0001) // ======================================================
(PID.TID 0000.0001) // Tile <-> Tile communication statistics
(PID.TID 0000.0001) // ======================================================
(PID.TID 0000.0001) // o Tile number: 000001
(PID.TID 0000.0001) //         No. X exchanges =              0
(PID.TID 0000.0001) //            Max. X spins =              0
(PID.TID 0000.0001) //            Min. X spins =     1000000000
(PID.TID 0000.0001) //          Total. X spins =              0
(PID.TID 0000.0001) //            Avg. X spins =       0.00E+00
(PID.TID 0000.0001) //         No. Y exchanges =              0
(PID.TID 0000.0001) //            Max. Y spins =              0
(PID.TID 0000.0001) //            Min. Y spins =     1000000000
(PID.TID 0000.0001) //          Total. Y spins =              0
(PID.TID 0000.0001) //            Avg. Y spins =       0.00E+00
(PID.TID 0000.0001) // o Tile number: 000002
(PID.TID 0000.0001) //         No. X exchanges =              0
(PID.TID 0000.0001) //            Max. X spins =              0
(PID.TID 0000.0001) //            Min. X spins =     1000000000
(PID.TID 0000.0001) //          Total. X spins =              0
(PID.TID 0000.0001) //            Avg. X spins =       0.00E+00
(PID.TID 0000.0001) //         No. Y exchanges =              0
(PID.TID 0000.0001) //            Max. Y spins =              0
(PID.TID 0000.0001) //            Min. Y spins =     1000000000
(PID.TID 0000.0001) //          Total. Y spins =              0
(PID.TID 0000.0001) //            Avg. Y spins =       0.00E+00
(PID.TID 0000.0001) // o Tile number: 000003
(PID.TID 0000.0001) //         No. X exchanges =              0
(PID.TID 0000.0001) //            Max. X spins =              0
(PID.TID 0000.0001) //            Min. X spins =     1000000000
(PID.TID 0000.0001) //          Total. X spins =              0
(PID.TID 0000.0001) //            Avg. X spins =       0.00E+00
(PID.TID 0000.0001) //         No. Y exchanges =              0
(PID.TID 0000.0001) //            Max. Y spins =              0
(PID.TID 0000.0001) //            Min. Y spins =     1000000000
(PID.TID 0000.0001) //          Total. Y spins =              0
(PID.TID 0000.0001) //            Avg. Y spins =       0.00E+00
(PID.TID 0000.0001) // o Tile number: 000004
(PID.TID 0000.0001) //         No. X exchanges =              0
(PID.TID 0000.0001) //            Max. X spins =              0
(PID.TID 0000.0001) //            Min. X spins =     1000000000
(PID.TID 0000.0001) //          Total. X spins =              0
(PID.TID 0000.0001) //            Avg. X spins =       0.00E+00
(PID.TID 0000.0001) //         No. Y exchanges =              0
(PID.TID 0000.0001) //            Max. Y spins =              0
(PID.TID 0000.0001) //            Min. Y spins =     1000000000
(PID.TID 0000.0001) //          Total. Y spins =              0
(PID.TID 0000.0001) //            Avg. Y spins =       0.00E+00
(PID.TID 0000.0001) // o Thread number: 000001
(PID.TID 0000.0001) //            No. barriers =           7972
(PID.TID 0000.0001) //      Max. barrier spins =              1
(PID.TID 0000.0001) //      Min. barrier spins =              1
(PID.TID 0000.0001) //     Total barrier spins =           7972
(PID.TID 0000.0001) //      Avg. barrier spins =       1.00E+00
PROGRAM MAIN: Execution ended Normally
