(PID.TID 0000.0001) 
(PID.TID 0000.0001) // ======================================================
(PID.TID 0000.0001) //                      MITgcm UV
(PID.TID 0000.0001) //                      =========
(PID.TID 0000.0001) // ======================================================
(PID.TID 0000.0001) // execution environment starting up...
(PID.TID 0000.0001) 
(PID.TID 0000.0001) // MITgcmUV version:  checkpoint68v
(PID.TID 0000.0001) // Build user:        jm_c
(PID.TID 0000.0001) // Build host:        villon
(PID.TID 0000.0001) // Build date:        Tue Feb 27 15:16:36 EST 2024
(PID.TID 0000.0001) 
(PID.TID 0000.0001) // =======================================================
(PID.TID 0000.0001) // Execution Environment parameter file "eedata"
(PID.TID 0000.0001) // =======================================================
(PID.TID 0000.0001) ># Example "eedata" file
(PID.TID 0000.0001) ># Lines beginning "#" are comments
(PID.TID 0000.0001) ># nTx - No. threads per process in X
(PID.TID 0000.0001) ># nTy - No. threads per process in Y
(PID.TID 0000.0001) > &EEPARMS
(PID.TID 0000.0001) > nTx=1,
(PID.TID 0000.0001) > nTy=1,
(PID.TID 0000.0001) > /
(PID.TID 0000.0001) ># Note: Some systems use & as the
(PID.TID 0000.0001) ># namelist terminator. Other systems
(PID.TID 0000.0001) ># use a / character (as shown here).
(PID.TID 0000.0001) 
(PID.TID 0000.0001) // =======================================================
(PID.TID 0000.0001) // Computational Grid Specification ( see files "SIZE.h" )
(PID.TID 0000.0001) //                                  ( and "eedata"       )
(PID.TID 0000.0001) // =======================================================
(PID.TID 0000.0001)      nPx =    1 ; /* No. processes in X */
(PID.TID 0000.0001)      nPy =    1 ; /* No. processes in Y */
(PID.TID 0000.0001)      nSx =    1 ; /* No. tiles in X per process */
(PID.TID 0000.0001)      nSy =    4 ; /* No. tiles in Y per process */
(PID.TID 0000.0001)      sNx =    1 ; /* Tile size in X */
(PID.TID 0000.0001)      sNy =   14 ; /* Tile size in Y */
(PID.TID 0000.0001)      OLx =    3 ; /* Tile overlap distance in X */
(PID.TID 0000.0001)      OLy =    3 ; /* Tile overlap distance in Y */
(PID.TID 0000.0001)      nTx =    1 ; /* No. threads in X per process */
(PID.TID 0000.0001)      nTy =    1 ; /* No. threads in Y per process */
(PID.TID 0000.0001)       Nr =   15 ; /* No. levels in the vertical   */
(PID.TID 0000.0001)       Nx =    1 ; /* Total domain size in X ( = nPx*nSx*sNx ) */
(PID.TID 0000.0001)       Ny =   56 ; /* Total domain size in Y ( = nPy*nSy*sNy ) */
(PID.TID 0000.0001)   nTiles =    4 ; /* Total no. tiles per process ( = nSx*nSy ) */
(PID.TID 0000.0001)   nProcs =    1 ; /* Total no. processes ( = nPx*nPy ) */
(PID.TID 0000.0001) nThreads =    1 ; /* Total no. threads per process ( = nTx*nTy ) */
(PID.TID 0000.0001) usingMPI =    F ; /* Flag used to control whether MPI is in use */
(PID.TID 0000.0001)                   /*  note: To execute a program with MPI calls */
(PID.TID 0000.0001)                   /*  it must be launched appropriately e.g     */
(PID.TID 0000.0001)                   /*  "mpirun -np 64 ......"                    */
(PID.TID 0000.0001) useCoupler=   F ; /* Flag used to control communications with   */
(PID.TID 0000.0001)                   /*  other model components, through a coupler */
(PID.TID 0000.0001) useNest2W_parent =    F ;/* Control 2-W Nesting comm */
(PID.TID 0000.0001) useNest2W_child  =    F ;/* Control 2-W Nesting comm */
(PID.TID 0000.0001) debugMode =    F ; /* print debug msg. (sequence of S/R calls)  */
(PID.TID 0000.0001) printMapIncludesZeros=    F ; /* print zeros in Std.Output maps */
(PID.TID 0000.0001) maxLengthPrt1D=   65 /* maxLength of 1D array printed to StdOut */
(PID.TID 0000.0001) 
(PID.TID 0000.0001) // ======================================================
(PID.TID 0000.0001) // Mapping of tiles to threads
(PID.TID 0000.0001) // ======================================================
(PID.TID 0000.0001) // -o- Thread   1, tiles (   1:   1,   1:   4)
(PID.TID 0000.0001) 
(PID.TID 0000.0001) // ======================================================
(PID.TID 0000.0001) // Tile <-> Tile connectvity table
(PID.TID 0000.0001) // ======================================================
(PID.TID 0000.0001) // Tile number: 000001 (process no. = 000000)
(PID.TID 0000.0001) //        WEST: Tile = 000001, Process = 000000, Comm = put
(PID.TID 0000.0001) //                bi = 000001, bj = 000001
(PID.TID 0000.0001) //        EAST: Tile = 000001, Process = 000000, Comm = put
(PID.TID 0000.0001) //                bi = 000001, bj = 000001
(PID.TID 0000.0001) //       SOUTH: Tile = 000004, Process = 000000, Comm = put
(PID.TID 0000.0001) //                bi = 000001, bj = 000004
(PID.TID 0000.0001) //       NORTH: Tile = 000002, Process = 000000, Comm = put
(PID.TID 0000.0001) //                bi = 000001, bj = 000002
(PID.TID 0000.0001) // Tile number: 000002 (process no. = 000000)
(PID.TID 0000.0001) //        WEST: Tile = 000002, Process = 000000, Comm = put
(PID.TID 0000.0001) //                bi = 000001, bj = 000002
(PID.TID 0000.0001) //        EAST: Tile = 000002, Process = 000000, Comm = put
(PID.TID 0000.0001) //                bi = 000001, bj = 000002
(PID.TID 0000.0001) //       SOUTH: Tile = 000001, Process = 000000, Comm = put
(PID.TID 0000.0001) //                bi = 000001, bj = 000001
(PID.TID 0000.0001) //       NORTH: Tile = 000003, Process = 000000, Comm = put
(PID.TID 0000.0001) //                bi = 000001, bj = 000003
(PID.TID 0000.0001) // Tile number: 000003 (process no. = 000000)
(PID.TID 0000.0001) //        WEST: Tile = 000003, Process = 000000, Comm = put
(PID.TID 0000.0001) //                bi = 000001, bj = 000003
(PID.TID 0000.0001) //        EAST: Tile = 000003, Process = 000000, Comm = put
(PID.TID 0000.0001) //                bi = 000001, bj = 000003
(PID.TID 0000.0001) //       SOUTH: Tile = 000002, Process = 000000, Comm = put
(PID.TID 0000.0001) //                bi = 000001, bj = 000002
(PID.TID 0000.0001) //       NORTH: Tile = 000004, Process = 000000, Comm = put
(PID.TID 0000.0001) //                bi = 000001, bj = 000004
(PID.TID 0000.0001) // Tile number: 000004 (process no. = 000000)
(PID.TID 0000.0001) //        WEST: Tile = 000004, Process = 000000, Comm = put
(PID.TID 0000.0001) //                bi = 000001, bj = 000004
(PID.TID 0000.0001) //        EAST: Tile = 000004, Process = 000000, Comm = put
(PID.TID 0000.0001) //                bi = 000001, bj = 000004
(PID.TID 0000.0001) //       SOUTH: Tile = 000003, Process = 000000, Comm = put
(PID.TID 0000.0001) //                bi = 000001, bj = 000003
(PID.TID 0000.0001) //       NORTH: Tile = 000001, Process = 000000, Comm = put
(PID.TID 0000.0001) //                bi = 000001, bj = 000001
(PID.TID 0000.0001) 
(PID.TID 0000.0001)  INI_PARMS: opening model parameter file "data"
(PID.TID 0000.0001)  OPEN_COPY_DATA_FILE: opening file data
(PID.TID 0000.0001) // =======================================================
(PID.TID 0000.0001) // Parameter file "data"
(PID.TID 0000.0001) // =======================================================
(PID.TID 0000.0001) ># ====================
(PID.TID 0000.0001) ># | Model parameters |
(PID.TID 0000.0001) ># ====================
(PID.TID 0000.0001) >#
(PID.TID 0000.0001) ># Continuous equation parameters
(PID.TID 0000.0001) > &PARM01
(PID.TID 0000.0001) > tRef= 18.8, 16.3, 13.1, 10.4, 8.1, 6.0, 4.5,
(PID.TID 0000.0001) >      3.4, 2.7, 2.2, 1.8, 1.5, 1.2, 1.0, 0.9,
(PID.TID 0000.0001) > sRef= 15*34.7,
(PID.TID 0000.0001) > cosPower=1.,
(PID.TID 0000.0001) > viscAr=1.E-3,
(PID.TID 0000.0001) > viscAh=12.E5,
(PID.TID 0000.0001) > no_slip_sides=.FALSE.,
(PID.TID 0000.0001) > no_slip_bottom=.TRUE.,
(PID.TID 0000.0001) > bottomDragLinear=1.E-3,
(PID.TID 0000.0001) >#diffK4T=2.E12,
(PID.TID 0000.0001) > diffKhT=0.E3,
(PID.TID 0000.0001) > diffKrNrT=1.E-4, 14*1.E-5,
(PID.TID 0000.0001) > ivdc_kappa=100.,
(PID.TID 0000.0001) > implicitDiffusion=.TRUE.,
(PID.TID 0000.0001) > eosType='LINEAR',
(PID.TID 0000.0001) > tAlpha=2.E-4,
(PID.TID 0000.0001) > sBeta =0.E-4,
(PID.TID 0000.0001) > saltStepping=.FALSE.,
(PID.TID 0000.0001) > gravity=9.81,
(PID.TID 0000.0001) > rhonil=1035.,
(PID.TID 0000.0001) > implicitFreeSurface=.TRUE.,
(PID.TID 0000.0001) > exactConserv=.TRUE.,
(PID.TID 0000.0001) > staggerTimeStep=.TRUE.,
(PID.TID 0000.0001) > useCDscheme=.TRUE.,
(PID.TID 0000.0001) > readBinaryPrec=64,
(PID.TID 0000.0001) > tempAdvScheme=77,
(PID.TID 0000.0001) > usePickupBeforeC54=.TRUE.,
(PID.TID 0000.0001) > /
(PID.TID 0000.0001) >
(PID.TID 0000.0001) ># Elliptic solver parameters
(PID.TID 0000.0001) > &PARM02
(PID.TID 0000.0001) > cg2dMaxIters=1000,
(PID.TID 0000.0001) >#cg2dTargetResidual=1.E-13,
(PID.TID 0000.0001) > cg2dTargetResWunit=1.E-17,
(PID.TID 0000.0001) > /
(PID.TID 0000.0001) >
(PID.TID 0000.0001) ># Time stepping parameters
(PID.TID 0000.0001) > &PARM03
(PID.TID 0000.0001) > niter0=36000,
(PID.TID 0000.0001) > nTimeSteps=20,
(PID.TID 0000.0001) >#endTime=3110400000.,
(PID.TID 0000.0001) > deltaTmom=1200.0,
(PID.TID 0000.0001) > deltaTfreesurf=3600.0,
(PID.TID 0000.0001) > deltaTtracer=86400.0,
(PID.TID 0000.0001) > deltaTClock =86400.0,
(PID.TID 0000.0001) > abEps=0.1,
(PID.TID 0000.0001) > tauCD=321428.,
(PID.TID 0000.0001) > tauThetaClimRelax=2592000.0,
(PID.TID 0000.0001) > pickupStrictlyMatch=.FALSE.,
(PID.TID 0000.0001) > chkptFreq=0.0,
(PID.TID 0000.0001) > pChkptFreq=3110400000.0,
(PID.TID 0000.0001) > taveFreq=1555200000.0,
(PID.TID 0000.0001) > dumpFreq=1555200000.0,
(PID.TID 0000.0001) > diagFreq=1555200000.0,
(PID.TID 0000.0001) >#monitorFreq=31104000.0,
(PID.TID 0000.0001) > monitorFreq=1.0,
(PID.TID 0000.0001) > monitorSelect=2,
(PID.TID 0000.0001) > /
(PID.TID 0000.0001) >
(PID.TID 0000.0001) ># Gridding parameters
(PID.TID 0000.0001) > &PARM04
(PID.TID 0000.0001) > usingSphericalPolarGrid=.TRUE.,
(PID.TID 0000.0001) > delRc= 20.,  60.,  85., 120., 165., 215., 265., 315.,
(PID.TID 0000.0001) >       365., 415., 465., 515., 565., 615., 665., 350.,
(PID.TID 0000.0001) > ygOrigin=-84.,
(PID.TID 0000.0001) > delY=56*3.,
(PID.TID 0000.0001) > delX=1*3.,
(PID.TID 0000.0001) > /
(PID.TID 0000.0001) >
(PID.TID 0000.0001) ># Input datasets
(PID.TID 0000.0001) > &PARM05
(PID.TID 0000.0001) > bathyFile='topo_sl.bin',
(PID.TID 0000.0001) > zonalWindFile='taux_sl.bin',
(PID.TID 0000.0001) > thetaClimFile='sst_sl.bin',
(PID.TID 0000.0001) > /
(PID.TID 0000.0001) 
(PID.TID 0000.0001)  INI_PARMS ; starts to read PARM01
(PID.TID 0000.0001)  INI_PARMS ; read PARM01 : OK
(PID.TID 0000.0001)  INI_PARMS ; starts to read PARM02
(PID.TID 0000.0001)  INI_PARMS ; read PARM02 : OK
(PID.TID 0000.0001)  INI_PARMS ; starts to read PARM03
(PID.TID 0000.0001)  INI_PARMS ; read PARM03 : OK
(PID.TID 0000.0001)  INI_PARMS ; starts to read PARM04
(PID.TID 0000.0001)  INI_PARMS ; read PARM04 : OK
(PID.TID 0000.0001)  INI_PARMS ; starts to read PARM05
(PID.TID 0000.0001)  INI_PARMS ; read PARM05 : OK
(PID.TID 0000.0001)  INI_PARMS: finished reading file "data"
(PID.TID 0000.0001)  PACKAGES_BOOT: opening data.pkg
(PID.TID 0000.0001)  OPEN_COPY_DATA_FILE: opening file data.pkg
(PID.TID 0000.0001) // =======================================================
(PID.TID 0000.0001) // Parameter file "data.pkg"
(PID.TID 0000.0001) // =======================================================
(PID.TID 0000.0001) ># Packages
(PID.TID 0000.0001) > &PACKAGES
(PID.TID 0000.0001) > useGMRedi=.TRUE.,
(PID.TID 0000.0001) > useDiagnostics=.TRUE.,
(PID.TID 0000.0001) >#useMNC=.TRUE.,
(PID.TID 0000.0001) > /
(PID.TID 0000.0001) >
(PID.TID 0000.0001) 
(PID.TID 0000.0001)  PACKAGES_BOOT: finished reading data.pkg
(PID.TID 0000.0001)  PACKAGES_BOOT: On/Off package Summary
 --------  pkgs with a standard "usePKG" On/Off switch in "data.pkg":  --------
 pkg/gmredi               compiled   and   used ( useGMRedi                = T )
 pkg/diagnostics          compiled   and   used ( useDiagnostics           = T )
 pkg/mnc                  compiled but not used ( useMNC                   = F )
 -------- pkgs without standard "usePKG" On/Off switch in "data.pkg":  --------
 pkg/generic_advdiff      compiled   and   used ( useGAD                   = T )
 pkg/mom_common           compiled   and   used ( momStepping              = T )
 pkg/mom_vecinv           compiled but not used ( +vectorInvariantMomentum = F )
 pkg/mom_fluxform         compiled   and   used ( & not vectorInvariantMom = T )
 pkg/cd_code              compiled   and   used ( useCDscheme              = T )
 pkg/monitor              compiled   and   used ( monitorFreq > 0.         = T )
 pkg/timeave              compiled   and   used ( taveFreq > 0.            = T )
 pkg/debug                compiled but not used ( debugMode                = F )
 pkg/rw                   compiled   and   used
 pkg/mdsio                compiled   and   used
(PID.TID 0000.0001)  PACKAGES_BOOT: End of package Summary
(PID.TID 0000.0001) 
(PID.TID 0000.0001)  GM_READPARMS: opening data.gmredi
(PID.TID 0000.0001)  OPEN_COPY_DATA_FILE: opening file data.gmredi
(PID.TID 0000.0001) // =======================================================
(PID.TID 0000.0001) // Parameter file "data.gmredi"
(PID.TID 0000.0001) // =======================================================
(PID.TID 0000.0001) ># from MOM
(PID.TID 0000.0001) ># GM_background_K: 	isopycnal diffusion coefficien
(PID.TID 0000.0001) ># GM_maxSlope:		max slope of isopycnals
(PID.TID 0000.0001) ># GM_Scrit:		transition for scaling diffusion coefficient
(PID.TID 0000.0001) ># GM_Sd:		half width scaling for diffusion coefficient
(PID.TID 0000.0001) ># real background diff:	horizontal diffusion
(PID.TID 0000.0001) >
(PID.TID 0000.0001) > &GM_PARM01
(PID.TID 0000.0001) >  GM_AdvForm=.TRUE.,
(PID.TID 0000.0001) ># GM_AdvSeparate=.TRUE.,
(PID.TID 0000.0001) ># GM_background_K=1000.,
(PID.TID 0000.0001) >  GM_background_K=10.,
(PID.TID 0000.0001) ># GM_isopycK=1000.,
(PID.TID 0000.0001) ># GM_taper_scheme    = 'clipping',
(PID.TID 0000.0001) >  GM_taper_scheme    = 'linear',
(PID.TID 0000.0001) ># GM_taper_scheme    = 'gkw91',
(PID.TID 0000.0001) ># GM_taper_scheme    = 'ldd97',
(PID.TID 0000.0001) >  GM_Small_Number    = 1.e-18,
(PID.TID 0000.0001) >  GM_maxSlope        = 1.e-2,
(PID.TID 0000.0001) >  GM_Scrit           = 4.e-3,
(PID.TID 0000.0001) >  GM_Sd              = 1.e-3,
(PID.TID 0000.0001) ># GEOM params (lmbda 1.16e-7 s-1 = 100 days-1)
(PID.TID 0000.0001) >  GM_useGEOM         = .TRUE.,
(PID.TID 0000.0001) >  GEOM_lmbda         = 1.16e-7,
(PID.TID 0000.0001) >  GEOM_alpha         = 0.08,
(PID.TID 0000.0001) >  GEOM_minval_K      = 50.,
(PID.TID 0000.0001) >  GEOM_maxval_K      = 2.e+4,
(PID.TID 0000.0001) >  GEOM_ini_EKE       = 1.e+1,
(PID.TID 0000.0001) >  GEOM_diffKh_EKE    = 500.,
(PID.TID 0000.0001) >  GEOM_vert_struc    = .TRUE.,
(PID.TID 0000.0001) > /
(PID.TID 0000.0001) 
(PID.TID 0000.0001)  GM_READPARMS: finished reading data.gmredi
(PID.TID 0000.0001)  DIAGNOSTICS_READPARMS: opening data.diagnostics
(PID.TID 0000.0001)  OPEN_COPY_DATA_FILE: opening file data.diagnostics
(PID.TID 0000.0001) // =======================================================
(PID.TID 0000.0001) // Parameter file "data.diagnostics"
(PID.TID 0000.0001) // =======================================================
(PID.TID 0000.0001) ># Diagnostic Package Choices
(PID.TID 0000.0001) >#--------------------
(PID.TID 0000.0001) >#  dumpAtLast (logical): always write output at the end of simulation (default=F)
(PID.TID 0000.0001) >#  diag_mnc   (logical): write to NetCDF files (default=useMNC)
(PID.TID 0000.0001) >#--for each output-stream:
(PID.TID 0000.0001) >#  fileName(n) : prefix of the output file name (max 80c long) for outp.stream n
(PID.TID 0000.0001) >#  frequency(n):< 0 : write snap-shot output every |frequency| seconds
(PID.TID 0000.0001) >#               > 0 : write time-average output every frequency seconds
(PID.TID 0000.0001) >#  timePhase(n)     : write at time = timePhase + multiple of |frequency|
(PID.TID 0000.0001) >#    averagingFreq  : frequency (in s) for periodic averaging interval
(PID.TID 0000.0001) >#    averagingPhase : phase     (in s) for periodic averaging interval
(PID.TID 0000.0001) >#    repeatCycle    : number of averaging intervals in 1 cycle
(PID.TID 0000.0001) >#  levels(:,n) : list of levels to write to file (Notes: declared as REAL)
(PID.TID 0000.0001) >#                when this entry is missing, select all common levels of this list
(PID.TID 0000.0001) >#  fields(:,n) : list of selected diagnostics fields (8.c) in outp.stream n
(PID.TID 0000.0001) >#                (see "available_diagnostics.log" file for the full list of diags)
(PID.TID 0000.0001) >#  missing_value(n) : missing value for real-type fields in output file "n"
(PID.TID 0000.0001) >#  fileFlags(n)     : specific code (8c string) for output file "n"
(PID.TID 0000.0001) >#--------------------
(PID.TID 0000.0001) > &DIAGNOSTICS_LIST
(PID.TID 0000.0001) ># diag_mnc     = .FALSE.,
(PID.TID 0000.0001) >  fields(1:9,1)  = 'ETAN    ', 'DETADT2 ',
(PID.TID 0000.0001) >                   'GEOMeE  ', 'GEOMEgen', 'GEOMEdis', 'GEOMEadv',
(PID.TID 0000.0001) >                   'GEOMEwav', 'GEOMElap', 'GEOM_c1 ',
(PID.TID 0000.0001) >   levels(1,1) = 1.,
(PID.TID 0000.0001) >   fileName(1) = 'surfDiag',
(PID.TID 0000.0001) >  fileFlags(1) = 'D       ',
(PID.TID 0000.0001) >  frequency(1) = -864000.,
(PID.TID 0000.0001) >
(PID.TID 0000.0001) ># do not specify levels => all levels are selected
(PID.TID 0000.0001) >  fields(1:12,2) = 'UVEL    ', 'VVEL    ', 'WVEL    ', 'PHIHYD  ',
(PID.TID 0000.0001) >                   'VVELMASS',
(PID.TID 0000.0001) >                   'THETA   ', 'VTHMASS ', 'WTHMASS ',
(PID.TID 0000.0001) >#                  'SALT    ', 'USLTMASS', 'VSLTMASS', 'WSLTMASS',
(PID.TID 0000.0001) >                   'THETASQ ', 'UVELSQ  ',
(PID.TID 0000.0001) >                   'UV_VEL_Z', 'WU_VEL  ',
(PID.TID 0000.0001) >#  fileName(2) = 'dynDiag',
(PID.TID 0000.0001) >  frequency(2) = 1728000.,
(PID.TID 0000.0001) >
(PID.TID 0000.0001) ># fields(1:7,3)  = 'DRHODR  ', 'RHOAnoma',
(PID.TID 0000.0001) >  fields(1:9,3)  = 'DRHODR  ', 'RHOAnoma', 'GM_GEOMK', 'GEOMstru',
(PID.TID 0000.0001) >                   'GM_PsiY ', 'GM_Kvy  ', 'GM_Kvz  ', 'GM_Kwy  ', 'GM_Kwz  ',
(PID.TID 0000.0001) >  levels(1:12,3) = 2., 3., 4., 5., 6., 7., 8., 9., 10., 11., 12., 13.,
(PID.TID 0000.0001) >   fileName(3) = 'oceDiag',
(PID.TID 0000.0001) >  frequency(3) = 864000.,
(PID.TID 0000.0001) >
(PID.TID 0000.0001) >  fields(1:5,4)  = 'ADVy_TH ', 'ADVr_TH ',
(PID.TID 0000.0001) >                   'DFyE_TH ', 'DFrE_TH ',
(PID.TID 0000.0001) >                   'DFrI_TH ',
(PID.TID 0000.0001) >#                  'ADVx_SLT',
(PID.TID 0000.0001) >#  fileName(4) = 'flxDiag',
(PID.TID 0000.0001) >  frequency(4) = 1728000.,
(PID.TID 0000.0001) > /
(PID.TID 0000.0001) >
(PID.TID 0000.0001) >#--------------------
(PID.TID 0000.0001) ># Parameter for Diagnostics of per level statistics:
(PID.TID 0000.0001) >#--------------------
(PID.TID 0000.0001) >#  diagSt_mnc (logical): write stat-diags to NetCDF files (default=diag_mnc)
(PID.TID 0000.0001) >#  diagSt_regMaskFile : file containing the region-mask to read-in
(PID.TID 0000.0001) >#  nSetRegMskFile   : number of region-mask sets within the region-mask file
(PID.TID 0000.0001) >#  set_regMask(i)   : region-mask set-index that identifies the region "i"
(PID.TID 0000.0001) >#  val_regMask(i)   : region "i" identifier value in the region mask
(PID.TID 0000.0001) >#--for each output-stream:
(PID.TID 0000.0001) >#  stat_fName(n) : prefix of the output file name (max 80c long) for outp.stream n
(PID.TID 0000.0001) >#  stat_freq(n):< 0 : write snap-shot output every |stat_freq| seconds
(PID.TID 0000.0001) >#               > 0 : write time-average output every stat_freq seconds
(PID.TID 0000.0001) >#  stat_phase(n)    : write at time = stat_phase + multiple of |stat_freq|
(PID.TID 0000.0001) >#  stat_region(:,n) : list of "regions" (default: 1 region only=global)
(PID.TID 0000.0001) >#  stat_fields(:,n) : list of selected diagnostics fields (8.c) in outp.stream n
(PID.TID 0000.0001) >#                (see "available_diagnostics.log" file for the full list of diags)
(PID.TID 0000.0001) >#--------------------
(PID.TID 0000.0001) > &DIAG_STATIS_PARMS
(PID.TID 0000.0001) >#stat_fields(1:5,1)  = 'ETAN    ', 'UVEL    ', 'VVEL    ', 'WVEL    ', 'THETA   ',
(PID.TID 0000.0001) > stat_fields(1:9,1)  = 'GEOMeE  ', 'GEOMEgen', 'GEOMEdis',
(PID.TID 0000.0001) >                       'GEOMEadv', 'GEOMEwav', 'GEOMElap',
(PID.TID 0000.0001) >                       'GEOM_c1 ', 'GM_GEOMK', 'GEOMstru',
(PID.TID 0000.0001) >  stat_fName(1) = 'dynStDiag',
(PID.TID 0000.0001) >   stat_freq(1) = -864000.,
(PID.TID 0000.0001) >  stat_phase(1) = -86400.,
(PID.TID 0000.0001) > /
(PID.TID 0000.0001) 
(PID.TID 0000.0001) S/R DIAGNOSTICS_READPARMS, read namelist "diagnostics_list": start
(PID.TID 0000.0001) S/R DIAGNOSTICS_READPARMS, read namelist "diagnostics_list": OK
(PID.TID 0000.0001) S/R DIAGNOSTICS_READPARMS, read namelist "DIAG_STATIS_PARMS": start
(PID.TID 0000.0001) S/R DIAGNOSTICS_READPARMS, read namelist "DIAG_STATIS_PARMS": OK
(PID.TID 0000.0001)  DIAGNOSTICS_READPARMS: global parameter summary:
(PID.TID 0000.0001)  dumpAtLast = /* always write time-ave diags at the end */
(PID.TID 0000.0001)                   F
(PID.TID 0000.0001)     ;
(PID.TID 0000.0001)  diag_mnc =   /* write NetCDF output files */
(PID.TID 0000.0001)                   F
(PID.TID 0000.0001)     ;
(PID.TID 0000.0001)  useMissingValue = /* put MissingValue where mask = 0 */
(PID.TID 0000.0001)                   F
(PID.TID 0000.0001)     ;
(PID.TID 0000.0001)  diagCG_maxIters = /* max number of iters in diag_cg2d */
(PID.TID 0000.0001)                    1000
(PID.TID 0000.0001)     ;
(PID.TID 0000.0001)  diagCG_resTarget = /* residual target for diag_cg2d */
(PID.TID 0000.0001)                 1.000000000000000E-07
(PID.TID 0000.0001)     ;
(PID.TID 0000.0001)  diagCG_pcOffDFac = /* preconditioner off-diagonal factor */
(PID.TID 0000.0001)                 9.611687812379854E-01
(PID.TID 0000.0001)     ;
(PID.TID 0000.0001) -----------------------------------------------------
(PID.TID 0000.0001)  DIAGNOSTICS_READPARMS: active diagnostics summary:
(PID.TID 0000.0001) -----------------------------------------------------
(PID.TID 0000.0001) Creating Output Stream: surfDiag
(PID.TID 0000.0001) Output Frequency:    -864000.000000 ; Phase:      432000.000000
(PID.TID 0000.0001)  Averaging Freq.:          0.000000 , Phase:           0.000000 , Cycle:   1
(PID.TID 0000.0001)  missing value: -9.990000000000E+02 ; F-Flags="D       "
(PID.TID 0000.0001)  Levels:       1.
(PID.TID 0000.0001)  Fields:    ETAN     DETADT2  GEOMeE   GEOMEgen GEOMEdis GEOMEadv GEOMEwav GEOMElap GEOM_c1
(PID.TID 0000.0001) Creating Output Stream: oceDiag
(PID.TID 0000.0001) Output Frequency:     864000.000000 ; Phase:           0.000000
(PID.TID 0000.0001)  Averaging Freq.:     864000.000000 , Phase:           0.000000 , Cycle:   1
(PID.TID 0000.0001)  missing value: -9.990000000000E+02
(PID.TID 0000.0001)  Levels:       2.   3.   4.   5.   6.   7.   8.   9.  10.  11.  12.  13.
(PID.TID 0000.0001)  Fields:    DRHODR   RHOAnoma GM_GEOMK GEOMstru GM_PsiY  GM_Kvy   GM_Kvz   GM_Kwy   GM_Kwz
(PID.TID 0000.0001) -----------------------------------------------------
(PID.TID 0000.0001)  DIAGNOSTICS_READPARMS: statistics diags. summary:
(PID.TID 0000.0001) Creating Stats. Output Stream: dynStDiag
(PID.TID 0000.0001) Output Frequency:    -864000.000000 ; Phase:      -86400.000000
(PID.TID 0000.0001)  Regions:   0
(PID.TID 0000.0001)  Fields:    GEOMeE   GEOMEgen GEOMEdis GEOMEadv GEOMEwav GEOMElap GEOM_c1  GM_GEOMK GEOMstru
(PID.TID 0000.0001) -----------------------------------------------------
(PID.TID 0000.0001) 
(PID.TID 0000.0001) SET_PARMS: done
(PID.TID 0000.0001) Enter INI_VERTICAL_GRID: setInterFDr=    F ; setCenterDr=    T
(PID.TID 0000.0001) %MON XC_max                       =   1.5000000000000E+00
(PID.TID 0000.0001) %MON XC_min                       =   1.5000000000000E+00
(PID.TID 0000.0001) %MON XC_mean                      =   1.5000000000000E+00
(PID.TID 0000.0001) %MON XC_sd                        =   0.0000000000000E+00
(PID.TID 0000.0001) %MON XG_max                       =   0.0000000000000E+00
(PID.TID 0000.0001) %MON XG_min                       =   0.0000000000000E+00
(PID.TID 0000.0001) %MON XG_mean                      =   0.0000000000000E+00
(PID.TID 0000.0001) %MON XG_sd                        =   0.0000000000000E+00
(PID.TID 0000.0001) %MON DXC_max                      =   3.3341812682592E+05
(PID.TID 0000.0001) %MON DXC_min                      =   4.3534716771864E+04
(PID.TID 0000.0001) %MON DXC_mean                     =   2.2627957857351E+05
(PID.TID 0000.0001) %MON DXC_sd                       =   9.1462046601761E+04
(PID.TID 0000.0001) %MON DXF_max                      =   3.3341812682592E+05
(PID.TID 0000.0001) %MON DXF_min                      =   4.3534716771864E+04
(PID.TID 0000.0001) %MON DXF_mean                     =   2.2627957857351E+05
(PID.TID 0000.0001) %MON DXF_sd                       =   9.1462046601761E+04
(PID.TID 0000.0001) %MON DXG_max                      =   3.3353242005612E+05
(PID.TID 0000.0001) %MON DXG_min                      =   3.4863631318407E+04
(PID.TID 0000.0001) %MON DXG_mean                     =   2.2620203821339E+05
(PID.TID 0000.0001) %MON DXG_sd                       =   9.1624145029333E+04
(PID.TID 0000.0001) %MON DXV_max                      =   3.3353242005612E+05
(PID.TID 0000.0001) %MON DXV_min                      =   3.4863631318407E+04
(PID.TID 0000.0001) %MON DXV_mean                     =   2.2620203821339E+05
(PID.TID 0000.0001) %MON DXV_sd                       =   9.1624145029333E+04
(PID.TID 0000.0001) %MON YC_max                       =   8.2500000000000E+01
(PID.TID 0000.0001) %MON YC_min                       =  -8.2500000000000E+01
(PID.TID 0000.0001) %MON YC_mean                      =   0.0000000000000E+00
(PID.TID 0000.0001) %MON YC_sd                        =   4.8489689625734E+01
(PID.TID 0000.0001) %MON YG_max                       =   8.1000000000000E+01
(PID.TID 0000.0001) %MON YG_min                       =  -8.4000000000000E+01
(PID.TID 0000.0001) %MON YG_mean                      =  -1.5000000000000E+00
(PID.TID 0000.0001) %MON YG_sd                        =   4.8489689625734E+01
(PID.TID 0000.0001) %MON DYC_max                      =   3.3353242005612E+05
(PID.TID 0000.0001) %MON DYC_min                      =   3.3353242005612E+05
(PID.TID 0000.0001) %MON DYC_mean                     =   3.3353242005612E+05
(PID.TID 0000.0001) %MON DYC_sd                       =   0.0000000000000E+00
(PID.TID 0000.0001) %MON DYF_max                      =   3.3353242005612E+05
(PID.TID 0000.0001) %MON DYF_min                      =   3.3353242005612E+05
(PID.TID 0000.0001) %MON DYF_mean                     =   3.3353242005612E+05
(PID.TID 0000.0001) %MON DYF_sd                       =   0.0000000000000E+00
(PID.TID 0000.0001) %MON DYG_max                      =   3.3353242005612E+05
(PID.TID 0000.0001) %MON DYG_min                      =   3.3353242005612E+05
(PID.TID 0000.0001) %MON DYG_mean                     =   3.3353242005612E+05
(PID.TID 0000.0001) %MON DYG_sd                       =   0.0000000000000E+00
(PID.TID 0000.0001) %MON DYU_max                      =   3.3353242005612E+05
(PID.TID 0000.0001) %MON DYU_min                      =   3.3353242005612E+05
(PID.TID 0000.0001) %MON DYU_mean                     =   3.3353242005612E+05
(PID.TID 0000.0001) %MON DYU_sd                       =   0.0000000000000E+00
(PID.TID 0000.0001) %MON RA_max                       =   1.1119305196237E+11
(PID.TID 0000.0001) %MON RA_min                       =   1.4518580829015E+10
(PID.TID 0000.0001) %MON RA_mean                      =   7.5462954512622E+10
(PID.TID 0000.0001) %MON RA_sd                        =   3.0502073169179E+10
(PID.TID 0000.0001) %MON RAW_max                      =   1.1119305196237E+11
(PID.TID 0000.0001) %MON RAW_min                      =   1.4518580829015E+10
(PID.TID 0000.0001) %MON RAW_mean                     =   7.5462954512622E+10
(PID.TID 0000.0001) %MON RAW_sd                       =   3.0502073169179E+10
(PID.TID 0000.0001) %MON RAS_max                      =   1.1123116810562E+11
(PID.TID 0000.0001) %MON RAS_min                      =   1.1626823069547E+10
(PID.TID 0000.0001) %MON RAS_mean                     =   7.5437095242840E+10
(PID.TID 0000.0001) %MON RAS_sd                       =   3.0556132074289E+10
(PID.TID 0000.0001) %MON RAZ_max                      =   1.1123116810562E+11
(PID.TID 0000.0001) %MON RAZ_min                      =   1.1626823069547E+10
(PID.TID 0000.0001) %MON RAZ_mean                     =   7.5437095242840E+10
(PID.TID 0000.0001) %MON RAZ_sd                       =   3.0556132074289E+10
(PID.TID 0000.0001) %MON AngleCS_max                  =   1.0000000000000E+00
(PID.TID 0000.0001) %MON AngleCS_min                  =   1.0000000000000E+00
(PID.TID 0000.0001) %MON AngleCS_mean                 =   1.0000000000000E+00
(PID.TID 0000.0001) %MON AngleCS_sd                   =   0.0000000000000E+00
(PID.TID 0000.0001) %MON AngleSN_max                  =   0.0000000000000E+00
(PID.TID 0000.0001) %MON AngleSN_min                  =   0.0000000000000E+00
(PID.TID 0000.0001) %MON AngleSN_mean                 =   0.0000000000000E+00
(PID.TID 0000.0001) %MON AngleSN_sd                   =   0.0000000000000E+00
(PID.TID 0000.0001)  MDS_READ_FIELD: opening global file: topo_sl.bin
(PID.TID 0000.0001) // =======================================================
(PID.TID 0000.0001) // Field Model R_low (ini_masks_etc)
(PID.TID 0000.0001) // CMIN =         -5.200000000000000E+03
(PID.TID 0000.0001) // CMAX =         -5.200000000000000E+03
(PID.TID 0000.0001) // CINT =          0.000000000000000E+00
(PID.TID 0000.0001) // SYMBOLS (CMIN->CMAX): -abcdefghijklmnopqrstuvwxyz+
(PID.TID 0000.0001) //                  0.0: .
(PID.TID 0000.0001) // RANGE I (Lo:Hi:Step):(    -2:     4:     1)
(PID.TID 0000.0001) // RANGE J (Lo:Hi:Step):(    59:    -2:    -1)
(PID.TID 0000.0001) // RANGE K (Lo:Hi:Step):(   1:   1:   1)
(PID.TID 0000.0001) // =======================================================
(PID.TID 0000.0001) // =======================================================
(PID.TID 0000.0001) // END OF FIELD                                          =
(PID.TID 0000.0001) // =======================================================
(PID.TID 0000.0001) 
(PID.TID 0000.0001) // =======================================================
(PID.TID 0000.0001) // Field Model Ro_surf (ini_masks_etc)
(PID.TID 0000.0001) // CMIN =          1.000000000000000E+32
(PID.TID 0000.0001) // CMAX =         -1.000000000000000E+32
(PID.TID 0000.0001) // CINT =          0.000000000000000E+00
(PID.TID 0000.0001) // SYMBOLS (CMIN->CMAX): -abcdefghijklmnopqrstuvwxyz+
(PID.TID 0000.0001) //                  0.0: .
(PID.TID 0000.0001) // RANGE I (Lo:Hi:Step):(    -2:     4:     1)
(PID.TID 0000.0001) // RANGE J (Lo:Hi:Step):(    59:    -2:    -1)
(PID.TID 0000.0001) // RANGE K (Lo:Hi:Step):(   1:   1:   1)
(PID.TID 0000.0001) // =======================================================
(PID.TID 0000.0001) // =======================================================
(PID.TID 0000.0001) // END OF FIELD                                          =
(PID.TID 0000.0001) // =======================================================
(PID.TID 0000.0001) 
(PID.TID 0000.0001) // =======================================================
(PID.TID 0000.0001) // Field hFacC at iteration          0
(PID.TID 0000.0001) // CMIN =          1.000000000000000E+00
(PID.TID 0000.0001) // CMAX =          1.000000000000000E+00
(PID.TID 0000.0001) // CINT =          0.000000000000000E+00
(PID.TID 0000.0001) // SYMBOLS (CMIN->CMAX): -abcdefghijklmnopqrstuvwxyz+
(PID.TID 0000.0001) //                  0.0: .
(PID.TID 0000.0001) // RANGE I (Lo:Hi:Step):(    -2:     4:     1)
(PID.TID 0000.0001) // RANGE J (Lo:Hi:Step):(    59:    -2:    -1)
(PID.TID 0000.0001) // RANGE K (Lo:Hi:Step):(   1:   1:   1)
(PID.TID 0000.0001) // =======================================================
(PID.TID 0000.0001) // =======================================================
(PID.TID 0000.0001) // END OF FIELD                                          =
(PID.TID 0000.0001) // =======================================================
(PID.TID 0000.0001) 
(PID.TID 0000.0001) // =======================================================
(PID.TID 0000.0001) // Field hFacW at iteration          0
(PID.TID 0000.0001) // CMIN =          1.000000000000000E+00
(PID.TID 0000.0001) // CMAX =          1.000000000000000E+00
(PID.TID 0000.0001) // CINT =          0.000000000000000E+00
(PID.TID 0000.0001) // SYMBOLS (CMIN->CMAX): -abcdefghijklmnopqrstuvwxyz+
(PID.TID 0000.0001) //                  0.0: .
(PID.TID 0000.0001) // RANGE I (Lo:Hi:Step):(    -2:     4:     1)
(PID.TID 0000.0001) // RANGE J (Lo:Hi:Step):(    59:    -2:    -1)
(PID.TID 0000.0001) // RANGE K (Lo:Hi:Step):(   1:   1:   1)
(PID.TID 0000.0001) // =======================================================
(PID.TID 0000.0001) // =======================================================
(PID.TID 0000.0001) // END OF FIELD                                          =
(PID.TID 0000.0001) // =======================================================
(PID.TID 0000.0001) 
(PID.TID 0000.0001) // =======================================================
(PID.TID 0000.0001) // Field hFacS at iteration          0
(PID.TID 0000.0001) // CMIN =          1.000000000000000E+00
(PID.TID 0000.0001) // CMAX =          1.000000000000000E+00
(PID.TID 0000.0001) // CINT =          0.000000000000000E+00
(PID.TID 0000.0001) // SYMBOLS (CMIN->CMAX): -abcdefghijklmnopqrstuvwxyz+
(PID.TID 0000.0001) //                  0.0: .
(PID.TID 0000.0001) // RANGE I (Lo:Hi:Step):(    -2:     4:     1)
(PID.TID 0000.0001) // RANGE J (Lo:Hi:Step):(    59:    -2:    -1)
(PID.TID 0000.0001) // RANGE K (Lo:Hi:Step):(   1:   1:   1)
(PID.TID 0000.0001) // =======================================================
(PID.TID 0000.0001) // =======================================================
(PID.TID 0000.0001) // END OF FIELD                                          =
(PID.TID 0000.0001) // =======================================================
(PID.TID 0000.0001) 
(PID.TID 0000.0001) GAD_INIT_FIXED: GAD_OlMinSize=  2  0  1
(PID.TID 0000.0001) 
(PID.TID 0000.0001) // ===================================
(PID.TID 0000.0001) // GAD parameters :
(PID.TID 0000.0001) // ===================================
(PID.TID 0000.0001) tempAdvScheme =   /* Temp. Horiz.Advection scheme selector */
(PID.TID 0000.0001)                      77
(PID.TID 0000.0001)     ;
(PID.TID 0000.0001) tempVertAdvScheme =   /* Temp. Vert. Advection scheme selector */
(PID.TID 0000.0001)                      77
(PID.TID 0000.0001)     ;
(PID.TID 0000.0001) tempMultiDimAdvec =   /* use Muti-Dim Advec method for Temp */
(PID.TID 0000.0001)                   T
(PID.TID 0000.0001)     ;
(PID.TID 0000.0001) tempSOM_Advection = /* use 2nd Order Moment Advection for Temp */
(PID.TID 0000.0001)                   F
(PID.TID 0000.0001)     ;
(PID.TID 0000.0001) AdamsBashforthGt = /* apply Adams-Bashforth extrapolation on Gt */
(PID.TID 0000.0001)                   F
(PID.TID 0000.0001)     ;
(PID.TID 0000.0001) AdamsBashforth_T = /* apply Adams-Bashforth extrapolation on Temp */
(PID.TID 0000.0001)                   F
(PID.TID 0000.0001)     ;
(PID.TID 0000.0001) saltAdvScheme =   /* Salt. Horiz.advection scheme selector */
(PID.TID 0000.0001)                       2
(PID.TID 0000.0001)     ;
(PID.TID 0000.0001) saltVertAdvScheme =   /* Salt. Vert. Advection scheme selector */
(PID.TID 0000.0001)                       2
(PID.TID 0000.0001)     ;
(PID.TID 0000.0001) saltMultiDimAdvec =   /* use Muti-Dim Advec method for Salt */
(PID.TID 0000.0001)                   F
(PID.TID 0000.0001)     ;
(PID.TID 0000.0001) saltSOM_Advection = /* use 2nd Order Moment Advection for Salt */
(PID.TID 0000.0001)                   F
(PID.TID 0000.0001)     ;
(PID.TID 0000.0001) AdamsBashforthGs = /* apply Adams-Bashforth extrapolation on Gs */
(PID.TID 0000.0001)                   F
(PID.TID 0000.0001)     ;
(PID.TID 0000.0001) AdamsBashforth_S = /* apply Adams-Bashforth extrapolation on Salt */
(PID.TID 0000.0001)                   F
(PID.TID 0000.0001)     ;
(PID.TID 0000.0001) // ===================================
(PID.TID 0000.0001) ------------------------------------------------------------
(PID.TID 0000.0001) DIAGNOSTICS_SET_LEVELS: done
(PID.TID 0000.0001)  Total Nb of available Diagnostics: ndiagt=   221
(PID.TID 0000.0001)  write list of available Diagnostics to file: available_diagnostics.log
(PID.TID 0000.0001) SETDIAG: Allocate  1 x  1 Levels for Diagnostic #    23 ETAN
(PID.TID 0000.0001) SETDIAG: Allocate  1 x  1 Levels for Diagnostic #    25 DETADT2
(PID.TID 0000.0001) SETDIAG: Allocate  1 x  1 Levels for Diagnostic #   214 GEOMeE
(PID.TID 0000.0001) SETDIAG: Allocate  1 x  1 Levels for Diagnostic #   216 GEOMEgen
(PID.TID 0000.0001) SETDIAG: Allocate  1 x  1 Levels for Diagnostic #   217 GEOMEdis
(PID.TID 0000.0001) SETDIAG: Allocate  1 x  1 Levels for Diagnostic #   218 GEOMEadv
(PID.TID 0000.0001) SETDIAG: Allocate  1 x  1 Levels for Diagnostic #   219 GEOMEwav
(PID.TID 0000.0001) SETDIAG: Allocate  1 x  1 Levels for Diagnostic #   220 GEOMElap
(PID.TID 0000.0001) SETDIAG: Allocate  1 x  1 Levels for Diagnostic #   221 GEOM_c1
(PID.TID 0000.0001) SETDIAG: Allocate 15 x  1 Levels for Diagnostic #    77 DRHODR
(PID.TID 0000.0001) SETDIAG: Allocate 15 x  1 Levels for Diagnostic #    64 RHOAnoma
(PID.TID 0000.0001) SETDIAG: Allocate 15 x  1 Levels for Diagnostic #   213 GM_GEOMK
(PID.TID 0000.0001) SETDIAG: Allocate 15 x  1 Levels for Diagnostic #   215 GEOMstru
(PID.TID 0000.0001) SETDIAG: Allocate 15 x  1 Levels for Diagnostic #   204 GM_PsiY
(PID.TID 0000.0001) SETDIAG: Allocate 15 x  1 Levels for Diagnostic #   197 GM_Kvy
(PID.TID 0000.0001) SETDIAG: Allocate 15 x  1 Levels for Diagnostic #   199 GM_Kvz
(PID.TID 0000.0001) SETDIAG: Allocate 15 x  1 Levels for Diagnostic #   201 GM_Kwy
(PID.TID 0000.0001) SETDIAG: Allocate 15 x  1 Levels for Diagnostic #   202 GM_Kwz
(PID.TID 0000.0001)   space allocated for all diagnostics:     144 levels
(PID.TID 0000.0001) DIAGNOSTICS_SET_POINTERS: done
(PID.TID 0000.0001) ------------------------------------------------------------
(PID.TID 0000.0001) DIAGSTATS_SET_REGIONS: define no region
(PID.TID 0000.0001) ------------------------------------------------------------
(PID.TID 0000.0001) SETDIAG: Allocate  1 Levels for Stats-Diag #   214 GEOMeE
(PID.TID 0000.0001) SETDIAG: Allocate  1 Levels for Stats-Diag #   216 GEOMEgen
(PID.TID 0000.0001) SETDIAG: Allocate  1 Levels for Stats-Diag #   217 GEOMEdis
(PID.TID 0000.0001) SETDIAG: Allocate  1 Levels for Stats-Diag #   218 GEOMEadv
(PID.TID 0000.0001) SETDIAG: Allocate  1 Levels for Stats-Diag #   219 GEOMEwav
(PID.TID 0000.0001) SETDIAG: Allocate  1 Levels for Stats-Diag #   220 GEOMElap
(PID.TID 0000.0001) SETDIAG: Allocate  1 Levels for Stats-Diag #   221 GEOM_c1
(PID.TID 0000.0001) SETDIAG: Allocate 15 Levels for Stats-Diag #   213 GM_GEOMK
(PID.TID 0000.0001) SETDIAG: Allocate 15 Levels for Stats-Diag #   215 GEOMstru
(PID.TID 0000.0001)   space allocated for all stats-diags:      37 levels
(PID.TID 0000.0001) DIAGSTATS_SET_POINTERS: done
(PID.TID 0000.0001) ------------------------------------------------------------
(PID.TID 0000.0001) DIAGSTATS_INI_IO: open file: dynStDiag.0000036000.txt , unit=     9
(PID.TID 0000.0001) %MON fCori_max                    =   1.4459476778846E-04
(PID.TID 0000.0001) %MON fCori_min                    =  -1.4459476778846E-04
(PID.TID 0000.0001) %MON fCori_mean                   =   0.0000000000000E+00
(PID.TID 0000.0001) %MON fCori_sd                     =   9.9401036497041E-05
(PID.TID 0000.0001) %MON fCoriG_max                   =   1.4404690751822E-04
(PID.TID 0000.0001) %MON fCoriG_min                   =  -1.4504353002754E-04
(PID.TID 0000.0001) %MON fCoriG_mean                  =  -2.5900630362060E-06
(PID.TID 0000.0001) %MON fCoriG_sd                    =   9.9372489017716E-05
(PID.TID 0000.0001) %MON fCoriCos_max                 =   1.4579249376772E-04
(PID.TID 0000.0001) %MON fCoriCos_min                 =   1.9036262317421E-05
(PID.TID 0000.0001) %MON fCoriCos_mean                =   9.8944422617323E-05
(PID.TID 0000.0001) %MON fCoriCos_sd                  =   3.9993266071379E-05
(PID.TID 0000.0001) INI_CG2D: CG2D normalisation factor =  3.5045293363874508E-05
(PID.TID 0000.0001) INI_CG2D: cg2dTolerance = 1.225676511460127E-12 (Area=4.1968882910E+12)
(PID.TID 0000.0001) 
(PID.TID 0000.0001) // =======================================================
(PID.TID 0000.0001) // Model configuration
(PID.TID 0000.0001) // =======================================================
(PID.TID 0000.0001) //
(PID.TID 0000.0001) // "Physical" paramters ( PARM01 in namelist )
(PID.TID 0000.0001) //
(PID.TID 0000.0001) buoyancyRelation = /* Type of relation to get Buoyancy */
(PID.TID 0000.0001)               'OCEANIC'
(PID.TID 0000.0001)     ;
(PID.TID 0000.0001) fluidIsAir   =  /* fluid major constituent is Air */
(PID.TID 0000.0001)                   F
(PID.TID 0000.0001)     ;
(PID.TID 0000.0001) fluidIsWater =  /* fluid major constituent is Water */
(PID.TID 0000.0001)                   T
(PID.TID 0000.0001)     ;
(PID.TID 0000.0001) usingPCoords =  /* use p (or p*) vertical coordinate */
(PID.TID 0000.0001)                   F
(PID.TID 0000.0001)     ;
(PID.TID 0000.0001) usingZCoords =  /* use z (or z*) vertical coordinate */
(PID.TID 0000.0001)                   T
(PID.TID 0000.0001)     ;
(PID.TID 0000.0001) tRef =   /* Reference temperature profile ( oC or K ) */
(PID.TID 0000.0001)                 1.880000000000000E+01,      /* K =  1 */
(PID.TID 0000.0001)                 1.630000000000000E+01,      /* K =  2 */
(PID.TID 0000.0001)                 1.310000000000000E+01,      /* K =  3 */
(PID.TID 0000.0001)                 1.040000000000000E+01,      /* K =  4 */
(PID.TID 0000.0001)                 8.100000000000000E+00,      /* K =  5 */
(PID.TID 0000.0001)                 6.000000000000000E+00,      /* K =  6 */
(PID.TID 0000.0001)                 4.500000000000000E+00,      /* K =  7 */
(PID.TID 0000.0001)                 3.400000000000000E+00,      /* K =  8 */
(PID.TID 0000.0001)                 2.700000000000000E+00,      /* K =  9 */
(PID.TID 0000.0001)                 2.200000000000000E+00,      /* K = 10 */
(PID.TID 0000.0001)                 1.800000000000000E+00,      /* K = 11 */
(PID.TID 0000.0001)                 1.500000000000000E+00,      /* K = 12 */
(PID.TID 0000.0001)                 1.200000000000000E+00,      /* K = 13 */
(PID.TID 0000.0001)                 1.000000000000000E+00,      /* K = 14 */
(PID.TID 0000.0001)                 9.000000000000000E-01       /* K = 15 */
(PID.TID 0000.0001)     ;
(PID.TID 0000.0001) sRef =   /* Reference salinity profile ( g/kg ) */
(PID.TID 0000.0001)    15 @  3.470000000000000E+01              /* K =  1: 15 */
(PID.TID 0000.0001)     ;
(PID.TID 0000.0001) rhoRef =   /* Density vertical profile from (Ref,sRef)( kg/m^3 ) */
(PID.TID 0000.0001)                 1.035000000000000E+03,      /* K =  1 */
(PID.TID 0000.0001)                 1.035517500000000E+03,      /* K =  2 */
(PID.TID 0000.0001)                 1.036179900000000E+03,      /* K =  3 */
(PID.TID 0000.0001)                 1.036738800000000E+03,      /* K =  4 */
(PID.TID 0000.0001)                 1.037214900000000E+03,      /* K =  5 */
(PID.TID 0000.0001)                 1.037649600000000E+03,      /* K =  6 */
(PID.TID 0000.0001)                 1.037960100000000E+03,      /* K =  7 */
(PID.TID 0000.0001)                 1.038187800000000E+03,      /* K =  8 */
(PID.TID 0000.0001)                 1.038332700000000E+03,      /* K =  9 */
(PID.TID 0000.0001)                 1.038436200000000E+03,      /* K = 10 */
(PID.TID 0000.0001)                 1.038519000000000E+03,      /* K = 11 */
(PID.TID 0000.0001)                 1.038581100000000E+03,      /* K = 12 */
(PID.TID 0000.0001)                 1.038643200000000E+03,      /* K = 13 */
(PID.TID 0000.0001)                 1.038684600000000E+03,      /* K = 14 */
(PID.TID 0000.0001)                 1.038705300000000E+03       /* K = 15 */
(PID.TID 0000.0001)     ;
(PID.TID 0000.0001) dBdrRef = /* Vertical grad. of reference buoyancy [(m/s/r)^2] */
(PID.TID 0000.0001)                 0.000000000000000E+00,      /* K =  1 */
(PID.TID 0000.0001)                 8.175000000000001E-05,      /* K =  2 */
(PID.TID 0000.0001)                 7.386352941176473E-05,      /* K =  3 */
(PID.TID 0000.0001)                 4.414500000000000E-05,      /* K =  4 */
(PID.TID 0000.0001)                 2.734909090909092E-05,      /* K =  5 */
(PID.TID 0000.0001)                 1.916372093023256E-05,      /* K =  6 */
(PID.TID 0000.0001)                 1.110566037735849E-05,      /* K =  7 */
(PID.TID 0000.0001)                 6.851428571428573E-06,      /* K =  8 */
(PID.TID 0000.0001)                 3.762739726027396E-06,      /* K =  9 */
(PID.TID 0000.0001)                 2.363855421686748E-06,      /* K = 10 */
(PID.TID 0000.0001)                 1.687741935483872E-06,      /* K = 11 */
(PID.TID 0000.0001)                 1.142912621359224E-06,      /* K = 12 */
(PID.TID 0000.0001)                 1.041769911504425E-06,      /* K = 13 */
(PID.TID 0000.0001)                 6.380487804878048E-07,      /* K = 14 */
(PID.TID 0000.0001)                 2.950375939849624E-07       /* K = 15 */
(PID.TID 0000.0001)     ;
(PID.TID 0000.0001) useStrainTensionVisc= /* Use StrainTension Form of Viscous Operator */
(PID.TID 0000.0001)                   F
(PID.TID 0000.0001)     ;
(PID.TID 0000.0001) useVariableVisc = /* Use variable horizontal viscosity */
(PID.TID 0000.0001)                   F
(PID.TID 0000.0001)     ;
(PID.TID 0000.0001) useHarmonicVisc = /* Use harmonic horizontal viscosity */
(PID.TID 0000.0001)                   T
(PID.TID 0000.0001)     ;
(PID.TID 0000.0001) useBiharmonicVisc= /* Use biharmonic horiz.  viscosity */
(PID.TID 0000.0001)                   F
(PID.TID 0000.0001)     ;
(PID.TID 0000.0001) useSmag3D = /* Use isotropic 3-D Smagorinsky viscosity */
(PID.TID 0000.0001)                   F
(PID.TID 0000.0001)     ;
(PID.TID 0000.0001) viscAh  =   /* Lateral harmonic viscosity ( m^2/s ) */
(PID.TID 0000.0001)                 1.200000000000000E+06
(PID.TID 0000.0001)     ;
(PID.TID 0000.0001) viscA4  =   /* Lateral biharmonic viscosity ( m^4/s ) */
(PID.TID 0000.0001)                 0.000000000000000E+00
(PID.TID 0000.0001)     ;
(PID.TID 0000.0001) no_slip_sides =  /* Viscous BCs: No-slip sides */
(PID.TID 0000.0001)                   F
(PID.TID 0000.0001)     ;
(PID.TID 0000.0001) sideDragFactor = /* side-drag scaling factor (non-dim) */
(PID.TID 0000.0001)                 2.000000000000000E+00
(PID.TID 0000.0001)     ;
(PID.TID 0000.0001) viscArNr = /* vertical profile of vertical viscosity ( m^2/s )*/
(PID.TID 0000.0001)    15 @  1.000000000000000E-03              /* K =  1: 15 */
(PID.TID 0000.0001)     ;
(PID.TID 0000.0001) no_slip_bottom =  /* Viscous BCs: No-slip bottom */
(PID.TID 0000.0001)                   T
(PID.TID 0000.0001)     ;
(PID.TID 0000.0001) bottomVisc_pCell = /* Partial-cell in bottom Visc. BC */
(PID.TID 0000.0001)                   F
(PID.TID 0000.0001)     ;
(PID.TID 0000.0001) bottomDragLinear = /* linear bottom-drag coefficient ( m/s ) */
(PID.TID 0000.0001)                 1.000000000000000E-03
(PID.TID 0000.0001)     ;
(PID.TID 0000.0001) bottomDragQuadratic = /* quadratic bottom-drag coefficient (-) */
(PID.TID 0000.0001)                 0.000000000000000E+00
(PID.TID 0000.0001)     ;
(PID.TID 0000.0001) selectBotDragQuadr = /* select quadratic bottom drag options */
(PID.TID 0000.0001)                      -1
(PID.TID 0000.0001)     ;
(PID.TID 0000.0001) diffKhT =   /* Laplacian diffusion of heat laterally ( m^2/s ) */
(PID.TID 0000.0001)                 0.000000000000000E+00
(PID.TID 0000.0001)     ;
(PID.TID 0000.0001) diffK4T =   /* Biharmonic diffusion of heat laterally ( m^4/s ) */
(PID.TID 0000.0001)                 0.000000000000000E+00
(PID.TID 0000.0001)     ;
(PID.TID 0000.0001) diffKhS =   /* Laplacian diffusion of salt laterally ( m^2/s ) */
(PID.TID 0000.0001)                 0.000000000000000E+00
(PID.TID 0000.0001)     ;
(PID.TID 0000.0001) diffK4S =   /* Biharmonic diffusion of salt laterally ( m^4/s ) */
(PID.TID 0000.0001)                 0.000000000000000E+00
(PID.TID 0000.0001)     ;
(PID.TID 0000.0001) diffKrNrT = /* vertical profile of vertical diffusion of Temp ( m^2/s )*/
(PID.TID 0000.0001)                 1.000000000000000E-04,      /* K =  1 */
(PID.TID 0000.0001)    14 @  1.000000000000000E-05              /* K =  2: 15 */
(PID.TID 0000.0001)     ;
(PID.TID 0000.0001) diffKrNrS = /* vertical profile of vertical diffusion of Salt ( m^2/s )*/
(PID.TID 0000.0001)                 1.000000000000000E-04,      /* K =  1 */
(PID.TID 0000.0001)    14 @  1.000000000000000E-05              /* K =  2: 15 */
(PID.TID 0000.0001)     ;
(PID.TID 0000.0001) diffKrBL79surf = /* Surface diffusion for Bryan and Lewis 79 ( m^2/s ) */
(PID.TID 0000.0001)                 0.000000000000000E+00
(PID.TID 0000.0001)     ;
(PID.TID 0000.0001) diffKrBL79deep = /* Deep diffusion for Bryan and Lewis 1979 ( m^2/s ) */
(PID.TID 0000.0001)                 0.000000000000000E+00
(PID.TID 0000.0001)     ;
(PID.TID 0000.0001) diffKrBL79scl = /* Depth scale for Bryan and Lewis 1979 ( m ) */
(PID.TID 0000.0001)                 2.000000000000000E+02
(PID.TID 0000.0001)     ;
(PID.TID 0000.0001) diffKrBL79Ho = /* Turning depth for Bryan and Lewis 1979 ( m ) */
(PID.TID 0000.0001)                -2.000000000000000E+03
(PID.TID 0000.0001)     ;
(PID.TID 0000.0001) ivdc_kappa = /* Implicit Vertical Diffusivity for Convection ( m^2/s) */
(PID.TID 0000.0001)                 1.000000000000000E+02
(PID.TID 0000.0001)     ;
(PID.TID 0000.0001) hMixCriteria=  /* Criteria for mixed-layer diagnostic */
(PID.TID 0000.0001)                -8.000000000000000E-01
(PID.TID 0000.0001)     ;
(PID.TID 0000.0001) dRhoSmall =  /* Parameter for mixed-layer diagnostic */
(PID.TID 0000.0001)                 1.000000000000000E-06
(PID.TID 0000.0001)     ;
(PID.TID 0000.0001) hMixSmooth=  /* Smoothing parameter for mixed-layer diagnostic */
(PID.TID 0000.0001)                 0.000000000000000E+00
(PID.TID 0000.0001)     ;
(PID.TID 0000.0001) eosType =  /* Type of Equation of State */
(PID.TID 0000.0001)               'LINEAR'
(PID.TID 0000.0001)     ;
(PID.TID 0000.0001) tAlpha = /* Linear EOS thermal expansion coefficient ( 1/oC ) */
(PID.TID 0000.0001)                 2.000000000000000E-04
(PID.TID 0000.0001)     ;
(PID.TID 0000.0001) sBeta  = /* Linear EOS haline contraction coefficient ( 1/(g/kg) ) */
(PID.TID 0000.0001)                 0.000000000000000E+00
(PID.TID 0000.0001)     ;
(PID.TID 0000.0001) rhoNil    = /* Reference density for Linear EOS ( kg/m^3 ) */
(PID.TID 0000.0001)                 1.035000000000000E+03
(PID.TID 0000.0001)     ;
(PID.TID 0000.0001) selectP_inEOS_Zc = /* select pressure to use in EOS (0,1,2,3) */
(PID.TID 0000.0001)                       0
(PID.TID 0000.0001)     0= -g*rhoConst*z ; 1= pRef (from tRef,sRef); 2= Hyd P ; 3= Hyd+NH P
(PID.TID 0000.0001)     ;
(PID.TID 0000.0001) surf_pRef = /* Surface reference pressure ( Pa ) */
(PID.TID 0000.0001)                 1.013250000000000E+05
(PID.TID 0000.0001)     ;
(PID.TID 0000.0001) HeatCapacity_Cp =  /* Specific heat capacity ( J/kg/K ) */
(PID.TID 0000.0001)                 3.994000000000000E+03
(PID.TID 0000.0001)     ;
(PID.TID 0000.0001) celsius2K = /* 0 degree Celsius converted to Kelvin ( K ) */
(PID.TID 0000.0001)                 2.731500000000000E+02
(PID.TID 0000.0001)     ;
(PID.TID 0000.0001) rhoConst  = /* Reference density (Boussinesq)  ( kg/m^3 ) */
(PID.TID 0000.0001)                 1.035000000000000E+03
(PID.TID 0000.0001)     ;
(PID.TID 0000.0001) rhoFacC = /* normalized Reference density @ cell-Center (-) */
(PID.TID 0000.0001)    15 @  1.000000000000000E+00              /* K =  1: 15 */
(PID.TID 0000.0001)     ;
(PID.TID 0000.0001) rhoFacF = /* normalized Reference density @ W-Interface (-) */
(PID.TID 0000.0001)    16 @  1.000000000000000E+00              /* K =  1: 16 */
(PID.TID 0000.0001)     ;
(PID.TID 0000.0001) rhoConstFresh = /* Fresh-water reference density ( kg/m^3 ) */
(PID.TID 0000.0001)                 1.035000000000000E+03
(PID.TID 0000.0001)     ;
(PID.TID 0000.0001) gravity =   /* Gravitational acceleration ( m/s^2 ) */
(PID.TID 0000.0001)                 9.810000000000000E+00
(PID.TID 0000.0001)     ;
(PID.TID 0000.0001) gBaro =   /* Barotropic gravity ( m/s^2 ) */
(PID.TID 0000.0001)                 9.810000000000000E+00
(PID.TID 0000.0001)     ;
(PID.TID 0000.0001) gravFacC = /* gravity factor (vs surf.) @ cell-Center (-) */
(PID.TID 0000.0001)    15 @  1.000000000000000E+00              /* K =  1: 15 */
(PID.TID 0000.0001)     ;
(PID.TID 0000.0001) gravFacF = /* gravity factor (vs surf.) @ W-Interface (-) */
(PID.TID 0000.0001)    16 @  1.000000000000000E+00              /* K =  1: 16 */
(PID.TID 0000.0001)     ;
(PID.TID 0000.0001) rotationPeriod =   /* Rotation Period ( s ) */
(PID.TID 0000.0001)                 8.616400000000000E+04
(PID.TID 0000.0001)     ;
(PID.TID 0000.0001) omega =   /* Angular velocity ( rad/s ) */
(PID.TID 0000.0001)                 7.292123516990375E-05
(PID.TID 0000.0001)     ;
(PID.TID 0000.0001) f0 =   /* Reference coriolis parameter ( 1/s ) */
(PID.TID 0000.0001)                 1.000000000000000E-04
(PID.TID 0000.0001)     ;
(PID.TID 0000.0001) beta =   /* Beta ( 1/(m.s) ) */
(PID.TID 0000.0001)                 9.999999999999999E-12
(PID.TID 0000.0001)     ;
(PID.TID 0000.0001) fPrime =   /* Second coriolis parameter ( 1/s ) */
(PID.TID 0000.0001)                 0.000000000000000E+00
(PID.TID 0000.0001)     ;
(PID.TID 0000.0001) rigidLid =   /* Rigid lid on/off flag */
(PID.TID 0000.0001)                   F
(PID.TID 0000.0001)     ;
(PID.TID 0000.0001) implicitFreeSurface =   /* Implicit free surface on/off flag */
(PID.TID 0000.0001)                   T
(PID.TID 0000.0001)     ;
(PID.TID 0000.0001) freeSurfFac =   /* Implicit free surface factor */
(PID.TID 0000.0001)                 1.000000000000000E+00
(PID.TID 0000.0001)     ;
(PID.TID 0000.0001) implicSurfPress =  /* Surface Pressure implicit factor (0-1) */
(PID.TID 0000.0001)                 1.000000000000000E+00
(PID.TID 0000.0001)     ;
(PID.TID 0000.0001) implicDiv2DFlow =  /* Barot. Flow Div. implicit factor (0-1) */
(PID.TID 0000.0001)                 1.000000000000000E+00
(PID.TID 0000.0001)     ;
(PID.TID 0000.0001) uniformLin_PhiSurf = /* use uniform Bo_surf on/off flag */
(PID.TID 0000.0001)                   T
(PID.TID 0000.0001)     ;
(PID.TID 0000.0001) uniformFreeSurfLev = /* free-surface level-index is uniform */
(PID.TID 0000.0001)                   T
(PID.TID 0000.0001)     ;
(PID.TID 0000.0001) sIceLoadFac =  /* scale factor for sIceLoad (0-1) */
(PID.TID 0000.0001)                 1.000000000000000E+00
(PID.TID 0000.0001)     ;
(PID.TID 0000.0001) hFacMin =   /* minimum partial cell factor (hFac) */
(PID.TID 0000.0001)                 1.000000000000000E+00
(PID.TID 0000.0001)     ;
(PID.TID 0000.0001) hFacMinDr = /* minimum partial cell thickness ( m) */
(PID.TID 0000.0001)                 0.000000000000000E+00
(PID.TID 0000.0001)     ;
(PID.TID 0000.0001) exactConserv =  /* Exact Volume Conservation on/off flag */
(PID.TID 0000.0001)                   T
(PID.TID 0000.0001)     ;
(PID.TID 0000.0001) linFSConserveTr = /* Tracer correction for Lin Free Surface on/off flag */
(PID.TID 0000.0001)                   F
(PID.TID 0000.0001)     ;
(PID.TID 0000.0001) nonlinFreeSurf = /* Non-linear Free Surf. options (-1,0,1,2,3)*/
(PID.TID 0000.0001)                       0
(PID.TID 0000.0001)      -1,0= Off ; 1,2,3= On, 2=+rescale gU,gV, 3=+update cg2d solv.
(PID.TID 0000.0001)     ;
(PID.TID 0000.0001) hFacInf =   /* lower threshold for hFac (nonlinFreeSurf only)*/
(PID.TID 0000.0001)                 2.000000000000000E-01
(PID.TID 0000.0001)     ;
(PID.TID 0000.0001) hFacSup =   /* upper threshold for hFac (nonlinFreeSurf only)*/
(PID.TID 0000.0001)                 2.000000000000000E+00
(PID.TID 0000.0001)     ;
(PID.TID 0000.0001) select_rStar = /* r* Vertical coord. options (=0 r coord.; >0 uses r*)*/
(PID.TID 0000.0001)                       0
(PID.TID 0000.0001)     ;
(PID.TID 0000.0001) useRealFreshWaterFlux = /* Real Fresh Water Flux on/off flag*/
(PID.TID 0000.0001)                   F
(PID.TID 0000.0001)     ;
(PID.TID 0000.0001) temp_EvPrRn = /* Temp. of Evap/Prec/R (UNSET=use local T)(oC)*/
(PID.TID 0000.0001)                 1.234567000000000E+05
(PID.TID 0000.0001)     ;
(PID.TID 0000.0001) salt_EvPrRn = /* Salin. of Evap/Prec/R (UNSET=use local S)(g/kg)*/
(PID.TID 0000.0001)                 0.000000000000000E+00
(PID.TID 0000.0001)     ;
(PID.TID 0000.0001) selectAddFluid = /* option for mass source/sink of fluid (=0: off) */
(PID.TID 0000.0001)                       0
(PID.TID 0000.0001)     ;
(PID.TID 0000.0001) temp_addMass = /* Temp. of addMass array (UNSET=use local T)(oC)*/
(PID.TID 0000.0001)                 1.234567000000000E+05
(PID.TID 0000.0001)     ;
(PID.TID 0000.0001) salt_addMass = /* Salin. of addMass array (UNSET=use local S)(g/kg)*/
(PID.TID 0000.0001)                 0.000000000000000E+00
(PID.TID 0000.0001)     ;
(PID.TID 0000.0001) convertFW2Salt = /* convert F.W. Flux to Salt Flux (-1=use local S)(g/kg)*/
(PID.TID 0000.0001)                 3.500000000000000E+01
(PID.TID 0000.0001)     ;
(PID.TID 0000.0001) use3Dsolver = /* use 3-D pressure solver on/off flag */
(PID.TID 0000.0001)                   F
(PID.TID 0000.0001)     ;
(PID.TID 0000.0001) nonHydrostatic =  /* Non-Hydrostatic on/off flag */
(PID.TID 0000.0001)                   F
(PID.TID 0000.0001)     ;
(PID.TID 0000.0001) nh_Am2 = /* Non-Hydrostatic terms scaling factor */
(PID.TID 0000.0001)                 1.000000000000000E+00
(PID.TID 0000.0001)     ;
(PID.TID 0000.0001) implicitNHPress = /* Non-Hyd Pressure implicit factor (0-1)*/
(PID.TID 0000.0001)                 1.000000000000000E+00
(PID.TID 0000.0001)     ;
(PID.TID 0000.0001) selectNHfreeSurf = /* Non-Hyd (free-)Surface option */
(PID.TID 0000.0001)                       0
(PID.TID 0000.0001)     ;
(PID.TID 0000.0001) quasiHydrostatic = /* Quasi-Hydrostatic on/off flag */
(PID.TID 0000.0001)                   F
(PID.TID 0000.0001)     ;
(PID.TID 0000.0001) calc_wVelocity = /* vertical velocity calculation on/off flag */
(PID.TID 0000.0001)                   T
(PID.TID 0000.0001)     ;
(PID.TID 0000.0001) momStepping =  /* Momentum equation on/off flag */
(PID.TID 0000.0001)                   T
(PID.TID 0000.0001)     ;
(PID.TID 0000.0001) vectorInvariantMomentum= /* Vector-Invariant Momentum on/off */
(PID.TID 0000.0001)                   F
(PID.TID 0000.0001)     ;
(PID.TID 0000.0001) momAdvection =  /* Momentum advection on/off flag */
(PID.TID 0000.0001)                   T
(PID.TID 0000.0001)     ;
(PID.TID 0000.0001) momViscosity =  /* Momentum viscosity on/off flag */
(PID.TID 0000.0001)                   T
(PID.TID 0000.0001)     ;
(PID.TID 0000.0001) momImplVertAdv= /* Momentum implicit vert. advection on/off*/
(PID.TID 0000.0001)                   F
(PID.TID 0000.0001)     ;
(PID.TID 0000.0001) implicitViscosity = /* Implicit viscosity on/off flag */
(PID.TID 0000.0001)                   F
(PID.TID 0000.0001)     ;
(PID.TID 0000.0001) selectImplicitDrag= /* Implicit bot Drag options (0,1,2)*/
(PID.TID 0000.0001)                       0
(PID.TID 0000.0001)     0= Expl. ; 1= Impl. on provis. Vel ; 2= Fully Impl (with surf.P)
(PID.TID 0000.0001)     ;
(PID.TID 0000.0001) selectMetricTerms= /* Metric-Terms on/off flag (=0/1) */
(PID.TID 0000.0001)                       1
(PID.TID 0000.0001)     ;
(PID.TID 0000.0001) useNHMTerms = /* Non-Hydrostatic Metric-Terms on/off */
(PID.TID 0000.0001)                   F
(PID.TID 0000.0001)     ;
(PID.TID 0000.0001) selectCoriMap = /* Coriolis Map options (0,1,2,3)*/
(PID.TID 0000.0001)                       2
(PID.TID 0000.0001)     0= f-Plane ; 1= Beta-Plane ; 2= Spherical ; 3= read from file
(PID.TID 0000.0001)     ;
(PID.TID 0000.0001) select3dCoriScheme= /* 3-D Coriolis on/off flag (=0/1) */
(PID.TID 0000.0001)                       0
(PID.TID 0000.0001)     ;
(PID.TID 0000.0001) useCoriolis =  /* Coriolis on/off flag */
(PID.TID 0000.0001)                   T
(PID.TID 0000.0001)     ;
(PID.TID 0000.0001) useCDscheme =  /* CD scheme on/off flag */
(PID.TID 0000.0001)                   T
(PID.TID 0000.0001)     ;
(PID.TID 0000.0001) selectCoriScheme= /* Scheme selector for Coriolis-Term */
(PID.TID 0000.0001)                       0
(PID.TID 0000.0001)    = 0 : original discretization (simple averaging, no hFac)
(PID.TID 0000.0001)    = 1 : Wet-point averaging (Jamar & Ozer 1986)
(PID.TID 0000.0001)    = 2 : energy conserving scheme (no hFac weight)
(PID.TID 0000.0001)    = 3 : energy conserving scheme using Wet-point averaging
(PID.TID 0000.0001)     ;
(PID.TID 0000.0001) momForcing =  /* Momentum forcing on/off flag */
(PID.TID 0000.0001)                   T
(PID.TID 0000.0001)     ;
(PID.TID 0000.0001) momTidalForcing = /* Momentum Tidal forcing on/off flag */
(PID.TID 0000.0001)                   T
(PID.TID 0000.0001)     ;
(PID.TID 0000.0001) momPressureForcing =  /* Momentum pressure term on/off flag */
(PID.TID 0000.0001)                   T
(PID.TID 0000.0001)     ;
(PID.TID 0000.0001) implicitIntGravWave= /* Implicit Internal Gravity Wave flag */
(PID.TID 0000.0001)                   F
(PID.TID 0000.0001)     ;
(PID.TID 0000.0001) staggerTimeStep =    /* Stagger time stepping on/off flag */
(PID.TID 0000.0001)                   T
(PID.TID 0000.0001)     ;
(PID.TID 0000.0001) doResetHFactors = /* reset thickness factors @ each time-step */
(PID.TID 0000.0001)                   F
(PID.TID 0000.0001)     ;
(PID.TID 0000.0001) multiDimAdvection =  /* enable/disable Multi-Dim Advection */
(PID.TID 0000.0001)                   T
(PID.TID 0000.0001)     ;
(PID.TID 0000.0001) useMultiDimAdvec =   /* Multi-Dim Advection is/is-not used */
(PID.TID 0000.0001)                   T
(PID.TID 0000.0001)     ;
(PID.TID 0000.0001) implicitDiffusion = /* Implicit Diffusion on/off flag */
(PID.TID 0000.0001)                   T
(PID.TID 0000.0001)     ;
(PID.TID 0000.0001) tempStepping =  /* Temperature equation on/off flag */
(PID.TID 0000.0001)                   T
(PID.TID 0000.0001)     ;
(PID.TID 0000.0001) tempAdvection = /* Temperature advection on/off flag */
(PID.TID 0000.0001)                   T
(PID.TID 0000.0001)     ;
(PID.TID 0000.0001) tempImplVertAdv = /* Temp. implicit vert. advection on/off */
(PID.TID 0000.0001)                   F
(PID.TID 0000.0001)     ;
(PID.TID 0000.0001) tempForcing  =  /* Temperature forcing on/off flag */
(PID.TID 0000.0001)                   T
(PID.TID 0000.0001)     ;
(PID.TID 0000.0001) doThetaClimRelax = /* apply SST relaxation on/off flag */
(PID.TID 0000.0001)                   T
(PID.TID 0000.0001)     ;
(PID.TID 0000.0001) tempIsActiveTr = /* Temp. is a dynamically Active Tracer */
(PID.TID 0000.0001)                   T
(PID.TID 0000.0001)     ;
(PID.TID 0000.0001) saltStepping =  /* Salinity equation on/off flag */
(PID.TID 0000.0001)                   F
(PID.TID 0000.0001)     ;
(PID.TID 0000.0001) saltAdvection = /* Salinity advection on/off flag */
(PID.TID 0000.0001)                   F
(PID.TID 0000.0001)     ;
(PID.TID 0000.0001) saltImplVertAdv = /* Sali. implicit vert. advection on/off */
(PID.TID 0000.0001)                   F
(PID.TID 0000.0001)     ;
(PID.TID 0000.0001) saltForcing  =  /* Salinity forcing on/off flag */
(PID.TID 0000.0001)                   F
(PID.TID 0000.0001)     ;
(PID.TID 0000.0001) doSaltClimRelax = /* apply SSS relaxation on/off flag */
(PID.TID 0000.0001)                   F
(PID.TID 0000.0001)     ;
(PID.TID 0000.0001) saltIsActiveTr = /* Salt  is a dynamically Active Tracer */
(PID.TID 0000.0001)                   F
(PID.TID 0000.0001)     ;
(PID.TID 0000.0001)  readBinaryPrec = /* Precision used for reading binary files */
(PID.TID 0000.0001)                      64
(PID.TID 0000.0001)     ;
(PID.TID 0000.0001) writeBinaryPrec = /* Precision used for writing binary files */
(PID.TID 0000.0001)                      32
(PID.TID 0000.0001)     ;
(PID.TID 0000.0001)  rwSuffixType =   /* select format of mds file suffix */
(PID.TID 0000.0001)                       0
(PID.TID 0000.0001)    = 0 : myIter (I10.10) ;   = 1 : 100*myTime (100th sec) ;
(PID.TID 0000.0001)    = 2 : myTime (seconds);   = 3 : myTime/360 (10th of hr);
(PID.TID 0000.0001)    = 4 : myTime/3600 (hours)
(PID.TID 0000.0001)     ;
(PID.TID 0000.0001)  globalFiles = /* write "global" (=not per tile) files */
(PID.TID 0000.0001)                   F
(PID.TID 0000.0001)     ;
(PID.TID 0000.0001)  useSingleCpuIO = /* only master MPI process does I/O */
(PID.TID 0000.0001)                   F
(PID.TID 0000.0001)     ;
(PID.TID 0000.0001)  useSingleCpuInput = /* only master process reads input */
(PID.TID 0000.0001)                   F
(PID.TID 0000.0001)     ;
(PID.TID 0000.0001) /* debLev[*]  : level of debug & auxiliary message printing */
(PID.TID 0000.0001) debLevZero =  0 ; /* level of disabled aux. msg printing */
(PID.TID 0000.0001)    debLevA =  1 ; /* level of minimum  aux. msg printing */
(PID.TID 0000.0001)    debLevB =  2 ; /* level of low aux. print (report read-file opening)*/
(PID.TID 0000.0001)    debLevC =  3 ; /* level of moderate debug prt (most pkgs debug msg) */
(PID.TID 0000.0001)    debLevD =  4 ; /* level of enhanced debug prt (add DEBUG_STATS prt) */
(PID.TID 0000.0001)    debLevE =  5 ; /* level of extensive debug printing */
(PID.TID 0000.0001) debugLevel =  /* select debug printing level */
(PID.TID 0000.0001)                       2
(PID.TID 0000.0001)     ;
(PID.TID 0000.0001)  plotLevel =  /* select PLOT_FIELD printing level */
(PID.TID 0000.0001)                       2
(PID.TID 0000.0001)     ;
(PID.TID 0000.0001) //
(PID.TID 0000.0001) // Elliptic solver(s) paramters ( PARM02 in namelist )
(PID.TID 0000.0001) //
(PID.TID 0000.0001) cg2dMaxIters =   /* Upper limit on 2d con. grad iterations  */
(PID.TID 0000.0001)                    1000
(PID.TID 0000.0001)     ;
(PID.TID 0000.0001) cg2dMinItersNSA =   /* Minimum number of iterations of 2d con. grad solver  */
(PID.TID 0000.0001)                       0
(PID.TID 0000.0001)     ;
(PID.TID 0000.0001) cg2dUseMinResSol= /* use cg2d last-iter(=0) / min-resid.(=1) solution */
(PID.TID 0000.0001)                       0
(PID.TID 0000.0001)     ;
(PID.TID 0000.0001) cg2dTargetResidual =   /* 2d con. grad target residual  */
(PID.TID 0000.0001)                 1.000000000000000E-07
(PID.TID 0000.0001)     ;
(PID.TID 0000.0001) cg2dTargetResWunit =   /* CG2d target residual [W units] */
(PID.TID 0000.0001)                 1.000000000000000E-17
(PID.TID 0000.0001)     ;
(PID.TID 0000.0001) cg2dPreCondFreq =   /* Freq. for updating cg2d preconditioner */
(PID.TID 0000.0001)                       1
(PID.TID 0000.0001)     ;
(PID.TID 0000.0001) useSRCGSolver =  /* use single reduction CG solver(s) */
(PID.TID 0000.0001)                   F
(PID.TID 0000.0001)     ;
(PID.TID 0000.0001) useNSACGSolver =  /* use not-self-adjoint CG solver */
(PID.TID 0000.0001)                   F
(PID.TID 0000.0001)     ;
(PID.TID 0000.0001) printResidualFreq = /* Freq. for printing CG residual */
(PID.TID 0000.0001)                       0
(PID.TID 0000.0001)     ;
(PID.TID 0000.0001) //
(PID.TID 0000.0001) // Time stepping paramters ( PARM03 in namelist )
(PID.TID 0000.0001) //
(PID.TID 0000.0001) deltaTMom =   /* Momentum equation timestep ( s ) */
(PID.TID 0000.0001)                 1.200000000000000E+03
(PID.TID 0000.0001)     ;
(PID.TID 0000.0001) deltaTFreeSurf = /* FreeSurface equation timestep ( s ) */
(PID.TID 0000.0001)                 3.600000000000000E+03
(PID.TID 0000.0001)     ;
(PID.TID 0000.0001) dTtracerLev =  /* Tracer equation timestep ( s ) */
(PID.TID 0000.0001)    15 @  8.640000000000000E+04              /* K =  1: 15 */
(PID.TID 0000.0001)     ;
(PID.TID 0000.0001) deltaTClock  =   /* Model clock timestep ( s ) */
(PID.TID 0000.0001)                 8.640000000000000E+04
(PID.TID 0000.0001)     ;
(PID.TID 0000.0001) cAdjFreq =   /* Convective adjustment interval ( s ) */
(PID.TID 0000.0001)                 0.000000000000000E+00
(PID.TID 0000.0001)     ;
(PID.TID 0000.0001) momForcingOutAB = /* =1: take Momentum Forcing out of Adams-Bash. stepping */
(PID.TID 0000.0001)                       0
(PID.TID 0000.0001)     ;
(PID.TID 0000.0001) tracForcingOutAB = /* =1: take T,S,pTr Forcing out of Adams-Bash. stepping */
(PID.TID 0000.0001)                       0
(PID.TID 0000.0001)     ;
(PID.TID 0000.0001) momDissip_In_AB = /* put Dissipation Tendency in Adams-Bash. stepping */
(PID.TID 0000.0001)                   T
(PID.TID 0000.0001)     ;
(PID.TID 0000.0001) doAB_onGtGs = /* apply AB on Tendencies (rather than on T,S)*/
(PID.TID 0000.0001)                   T
(PID.TID 0000.0001)     ;
(PID.TID 0000.0001) abEps =   /* Adams-Bashforth-2 stabilizing weight */
(PID.TID 0000.0001)                 1.000000000000000E-01
(PID.TID 0000.0001)     ;
(PID.TID 0000.0001) applyExchUV_early = /* Apply EXCH to U,V earlier in time-step */
(PID.TID 0000.0001)                   F
(PID.TID 0000.0001)     ;
(PID.TID 0000.0001) tauCD =   /* CD coupling time-scale ( s ) */
(PID.TID 0000.0001)                 3.214280000000000E+05
(PID.TID 0000.0001)     ;
(PID.TID 0000.0001) rCD =   /* Normalised CD coupling parameter */
(PID.TID 0000.0001)                 9.962666600296178E-01
(PID.TID 0000.0001)     ;
(PID.TID 0000.0001) epsAB_CD = /* AB-2 stabilizing weight for CD-scheme*/
(PID.TID 0000.0001)                 1.000000000000000E-01
(PID.TID 0000.0001)     ;
(PID.TID 0000.0001) pickupStrictlyMatch= /* stop if pickup do not strictly match */
(PID.TID 0000.0001)                   F
(PID.TID 0000.0001)     ;
(PID.TID 0000.0001) nIter0   =   /* Run starting timestep number */
(PID.TID 0000.0001)                   36000
(PID.TID 0000.0001)     ;
(PID.TID 0000.0001) nTimeSteps = /* Number of timesteps */
(PID.TID 0000.0001)                      20
(PID.TID 0000.0001)     ;
(PID.TID 0000.0001) nEndIter =   /* Run ending timestep number */
(PID.TID 0000.0001)                   36020
(PID.TID 0000.0001)     ;
(PID.TID 0000.0001) baseTime =   /* Model base time ( s ) */
(PID.TID 0000.0001)                 0.000000000000000E+00
(PID.TID 0000.0001)     ;
(PID.TID 0000.0001) startTime =  /* Run start time ( s ) */
(PID.TID 0000.0001)                 3.110400000000000E+09
(PID.TID 0000.0001)     ;
(PID.TID 0000.0001) endTime  =   /* Integration ending time ( s ) */
(PID.TID 0000.0001)                 3.112128000000000E+09
(PID.TID 0000.0001)     ;
(PID.TID 0000.0001) pChkPtFreq = /* Permanent restart/pickup file interval ( s ) */
(PID.TID 0000.0001)                 3.110400000000000E+09
(PID.TID 0000.0001)     ;
(PID.TID 0000.0001) chkPtFreq  = /* Rolling restart/pickup file interval ( s ) */
(PID.TID 0000.0001)                 0.000000000000000E+00
(PID.TID 0000.0001)     ;
(PID.TID 0000.0001) pickup_write_mdsio =   /* Model IO flag. */
(PID.TID 0000.0001)                   T
(PID.TID 0000.0001)     ;
(PID.TID 0000.0001) pickup_read_mdsio =   /* Model IO flag. */
(PID.TID 0000.0001)                   T
(PID.TID 0000.0001)     ;
(PID.TID 0000.0001) pickup_write_mnc =   /* Model IO flag. */
(PID.TID 0000.0001)                   F
(PID.TID 0000.0001)     ;
(PID.TID 0000.0001) pickup_read_mnc =   /* Model IO flag. */
(PID.TID 0000.0001)                   F
(PID.TID 0000.0001)     ;
(PID.TID 0000.0001) writePickupAtEnd =   /* Model IO flag. */
(PID.TID 0000.0001)                   T
(PID.TID 0000.0001)     ;
(PID.TID 0000.0001) dumpFreq =   /* Model state write out interval ( s ). */
(PID.TID 0000.0001)                 1.555200000000000E+09
(PID.TID 0000.0001)     ;
(PID.TID 0000.0001) dumpInitAndLast= /* write out Initial & Last iter. model state */
(PID.TID 0000.0001)                   T
(PID.TID 0000.0001)     ;
(PID.TID 0000.0001) snapshot_mdsio =   /* Model IO flag. */
(PID.TID 0000.0001)                   T
(PID.TID 0000.0001)     ;
(PID.TID 0000.0001) snapshot_mnc =   /* Model IO flag. */
(PID.TID 0000.0001)                   F
(PID.TID 0000.0001)     ;
(PID.TID 0000.0001) monitorFreq =   /* Monitor output interval ( s ). */
(PID.TID 0000.0001)                 1.000000000000000E+00
(PID.TID 0000.0001)     ;
(PID.TID 0000.0001) monitorSelect = /* select group of variables to monitor */
(PID.TID 0000.0001)                       2
(PID.TID 0000.0001)     ;
(PID.TID 0000.0001) monitor_stdio =   /* Model IO flag. */
(PID.TID 0000.0001)                   T
(PID.TID 0000.0001)     ;
(PID.TID 0000.0001) monitor_mnc =   /* Model IO flag. */
(PID.TID 0000.0001)                   F
(PID.TID 0000.0001)     ;
(PID.TID 0000.0001) externForcingPeriod =   /* forcing period (s) */
(PID.TID 0000.0001)                 0.000000000000000E+00
(PID.TID 0000.0001)     ;
(PID.TID 0000.0001) externForcingCycle =   /* period of the cyle (s). */
(PID.TID 0000.0001)                 0.000000000000000E+00
(PID.TID 0000.0001)     ;
(PID.TID 0000.0001) tauThetaClimRelax =   /* relaxation time scale (s) */
(PID.TID 0000.0001)                 2.592000000000000E+06
(PID.TID 0000.0001)     ;
(PID.TID 0000.0001) tauSaltClimRelax =   /* relaxation time scale (s) */
(PID.TID 0000.0001)                 0.000000000000000E+00
(PID.TID 0000.0001)     ;
(PID.TID 0000.0001) latBandClimRelax =   /* max. Lat. where relaxation */
(PID.TID 0000.0001)                 1.800000000000000E+02
(PID.TID 0000.0001)     ;
(PID.TID 0000.0001) //
(PID.TID 0000.0001) // Gridding paramters ( PARM04 in namelist )
(PID.TID 0000.0001) //
(PID.TID 0000.0001) usingCartesianGrid = /* Cartesian coordinates flag ( True/False ) */
(PID.TID 0000.0001)                   F
(PID.TID 0000.0001)     ;
(PID.TID 0000.0001) usingCylindricalGrid = /* Cylindrical coordinates flag ( True/False ) */
(PID.TID 0000.0001)                   F
(PID.TID 0000.0001)     ;
(PID.TID 0000.0001) usingSphericalPolarGrid = /* Spherical coordinates flag ( True/False ) */
(PID.TID 0000.0001)                   T
(PID.TID 0000.0001)     ;
(PID.TID 0000.0001) usingCurvilinearGrid = /* Curvilinear coordinates flag ( True/False ) */
(PID.TID 0000.0001)                   F
(PID.TID 0000.0001)     ;
(PID.TID 0000.0001) useMin4hFacEdges = /* set hFacW,S as minimum of adjacent hFacC factor */
(PID.TID 0000.0001)                   F
(PID.TID 0000.0001)     ;
(PID.TID 0000.0001) interViscAr_pCell = /* account for partial-cell in interior vert. viscosity */
(PID.TID 0000.0001)                   F
(PID.TID 0000.0001)     ;
(PID.TID 0000.0001) interDiffKr_pCell = /* account for partial-cell in interior vert. diffusion */
(PID.TID 0000.0001)                   F
(PID.TID 0000.0001)     ;
(PID.TID 0000.0001) pCellMix_select = /* option to enhance mixing near surface & bottom */
(PID.TID 0000.0001)                       0
(PID.TID 0000.0001)     ;
(PID.TID 0000.0001) selectSigmaCoord = /* Hybrid-Sigma Vert. Coordinate option */
(PID.TID 0000.0001)                       0
(PID.TID 0000.0001)     ;
(PID.TID 0000.0001) rSigmaBnd = /* r/sigma transition ( units of r ==  m ) */
(PID.TID 0000.0001)                 1.234567000000000E+05
(PID.TID 0000.0001)     ;
(PID.TID 0000.0001) rkSign =   /* index orientation relative to vertical coordinate */
(PID.TID 0000.0001)                -1.000000000000000E+00
(PID.TID 0000.0001)     ;
(PID.TID 0000.0001) gravitySign = /* gravity orientation relative to vertical coordinate */
(PID.TID 0000.0001)                -1.000000000000000E+00
(PID.TID 0000.0001)     ;
(PID.TID 0000.0001) seaLev_Z =  /* reference height of sea-level [m] */
(PID.TID 0000.0001)                 0.000000000000000E+00
(PID.TID 0000.0001)     ;
(PID.TID 0000.0001) top_Pres =  /* reference pressure at the top [Pa] */
(PID.TID 0000.0001)                 0.000000000000000E+00
(PID.TID 0000.0001)     ;
(PID.TID 0000.0001) mass2rUnit = /* convert mass per unit area [kg/m2] to r-units [m] */
(PID.TID 0000.0001)                 9.661835748792270E-04
(PID.TID 0000.0001)     ;
(PID.TID 0000.0001) rUnit2mass = /* convert r-units [m] to mass per unit area [kg/m2] */
(PID.TID 0000.0001)                 1.035000000000000E+03
(PID.TID 0000.0001)     ;
(PID.TID 0000.0001) drC =   /* C spacing ( units of r ) */
(PID.TID 0000.0001)                 2.000000000000000E+01,      /* K =  1 */
(PID.TID 0000.0001)                 6.000000000000000E+01,      /* K =  2 */
(PID.TID 0000.0001)                 8.500000000000000E+01,      /* K =  3 */
(PID.TID 0000.0001)                 1.200000000000000E+02,      /* K =  4 */
(PID.TID 0000.0001)                 1.650000000000000E+02,      /* K =  5 */
(PID.TID 0000.0001)                 2.150000000000000E+02,      /* K =  6 */
(PID.TID 0000.0001)                 2.650000000000000E+02,      /* K =  7 */
(PID.TID 0000.0001)                 3.150000000000000E+02,      /* K =  8 */
(PID.TID 0000.0001)                 3.650000000000000E+02,      /* K =  9 */
(PID.TID 0000.0001)                 4.150000000000000E+02,      /* K = 10 */
(PID.TID 0000.0001)                 4.650000000000000E+02,      /* K = 11 */
(PID.TID 0000.0001)                 5.150000000000000E+02,      /* K = 12 */
(PID.TID 0000.0001)                 5.650000000000000E+02,      /* K = 13 */
(PID.TID 0000.0001)                 6.150000000000000E+02,      /* K = 14 */
(PID.TID 0000.0001)                 6.650000000000000E+02,      /* K = 15 */
(PID.TID 0000.0001)                 3.500000000000000E+02       /* K = 16 */
(PID.TID 0000.0001)     ;
(PID.TID 0000.0001) drF =   /* W spacing ( units of r ) */
(PID.TID 0000.0001)                 5.000000000000000E+01,      /* K =  1 */
(PID.TID 0000.0001)                 7.250000000000000E+01,      /* K =  2 */
(PID.TID 0000.0001)                 1.025000000000000E+02,      /* K =  3 */
(PID.TID 0000.0001)                 1.425000000000000E+02,      /* K =  4 */
(PID.TID 0000.0001)                 1.900000000000000E+02,      /* K =  5 */
(PID.TID 0000.0001)                 2.400000000000000E+02,      /* K =  6 */
(PID.TID 0000.0001)                 2.900000000000000E+02,      /* K =  7 */
(PID.TID 0000.0001)                 3.400000000000000E+02,      /* K =  8 */
(PID.TID 0000.0001)                 3.900000000000000E+02,      /* K =  9 */
(PID.TID 0000.0001)                 4.400000000000000E+02,      /* K = 10 */
(PID.TID 0000.0001)                 4.900000000000000E+02,      /* K = 11 */
(PID.TID 0000.0001)                 5.400000000000000E+02,      /* K = 12 */
(PID.TID 0000.0001)                 5.900000000000000E+02,      /* K = 13 */
(PID.TID 0000.0001)                 6.400000000000000E+02,      /* K = 14 */
(PID.TID 0000.0001)                 6.825000000000000E+02       /* K = 15 */
(PID.TID 0000.0001)     ;
(PID.TID 0000.0001) delX = /* U spacing ( m - cartesian, degrees - spherical ) */
(PID.TID 0000.0001)                 3.000000000000000E+00       /* I =  1 */
(PID.TID 0000.0001)     ;
(PID.TID 0000.0001) delY = /* V spacing ( m - cartesian, degrees - spherical ) */
(PID.TID 0000.0001)    56 @  3.000000000000000E+00              /* J =  1: 56 */
(PID.TID 0000.0001)     ;
(PID.TID 0000.0001) xgOrigin = /* X-axis origin of West  edge (cartesian: m, lat-lon: deg) */
(PID.TID 0000.0001)                 0.000000000000000E+00
(PID.TID 0000.0001)     ;
(PID.TID 0000.0001) ygOrigin = /* Y-axis origin of South edge (cartesian: m, lat-lon: deg) */
(PID.TID 0000.0001)                -8.400000000000000E+01
(PID.TID 0000.0001)     ;
(PID.TID 0000.0001) rSphere =  /* Radius ( ignored - cartesian, m - spherical ) */
(PID.TID 0000.0001)                 6.370000000000000E+06
(PID.TID 0000.0001)     ;
(PID.TID 0000.0001) deepAtmosphere = /* Deep/Shallow Atmosphere flag (True/False) */
(PID.TID 0000.0001)                   F
(PID.TID 0000.0001)     ;
(PID.TID 0000.0001) xC =  /* xC(:,1,:,1) : P-point X coord ( deg. or m if cartesian) */
(PID.TID 0000.0001)                 1.500000000000000E+00       /* I =  1 */
(PID.TID 0000.0001)     ;
(PID.TID 0000.0001) yC =  /* yC(1,:,1,:) : P-point Y coord ( deg. or m if cartesian) */
(PID.TID 0000.0001)                -8.250000000000000E+01,      /* J =  1 */
(PID.TID 0000.0001)                -7.950000000000000E+01,      /* J =  2 */
(PID.TID 0000.0001)                -7.650000000000000E+01,      /* J =  3 */
(PID.TID 0000.0001)                -7.350000000000000E+01,      /* J =  4 */
(PID.TID 0000.0001)                -7.050000000000000E+01,      /* J =  5 */
(PID.TID 0000.0001)                -6.750000000000000E+01,      /* J =  6 */
(PID.TID 0000.0001)                -6.450000000000000E+01,      /* J =  7 */
(PID.TID 0000.0001)                -6.150000000000000E+01,      /* J =  8 */
(PID.TID 0000.0001)                -5.850000000000000E+01,      /* J =  9 */
(PID.TID 0000.0001)                -5.550000000000000E+01,      /* J = 10 */
(PID.TID 0000.0001)                -5.250000000000000E+01,      /* J = 11 */
(PID.TID 0000.0001)                -4.950000000000000E+01,      /* J = 12 */
(PID.TID 0000.0001)                -4.650000000000000E+01,      /* J = 13 */
(PID.TID 0000.0001)                -4.350000000000000E+01,      /* J = 14 */
(PID.TID 0000.0001)                -4.050000000000000E+01,      /* J = 15 */
(PID.TID 0000.0001)                -3.750000000000000E+01,      /* J = 16 */
(PID.TID 0000.0001)                -3.450000000000000E+01,      /* J = 17 */
(PID.TID 0000.0001)                -3.150000000000000E+01,      /* J = 18 */
(PID.TID 0000.0001)                -2.850000000000000E+01,      /* J = 19 */
(PID.TID 0000.0001)                -2.550000000000000E+01,      /* J = 20 */
(PID.TID 0000.0001)                -2.250000000000000E+01,      /* J = 21 */
(PID.TID 0000.0001)                -1.950000000000000E+01,      /* J = 22 */
(PID.TID 0000.0001)                -1.650000000000000E+01,      /* J = 23 */
(PID.TID 0000.0001)                -1.350000000000000E+01,      /* J = 24 */
(PID.TID 0000.0001)                -1.050000000000000E+01,      /* J = 25 */
(PID.TID 0000.0001)                -7.500000000000000E+00,      /* J = 26 */
(PID.TID 0000.0001)                -4.500000000000000E+00,      /* J = 27 */
(PID.TID 0000.0001)                -1.500000000000000E+00,      /* J = 28 */
(PID.TID 0000.0001)                 1.500000000000000E+00,      /* J = 29 */
(PID.TID 0000.0001)                 4.500000000000000E+00,      /* J = 30 */
(PID.TID 0000.0001)                 7.500000000000000E+00,      /* J = 31 */
(PID.TID 0000.0001)                 1.050000000000000E+01,      /* J = 32 */
(PID.TID 0000.0001)                 1.350000000000000E+01,      /* J = 33 */
(PID.TID 0000.0001)                 1.650000000000000E+01,      /* J = 34 */
(PID.TID 0000.0001)                 1.950000000000000E+01,      /* J = 35 */
(PID.TID 0000.0001)                 2.250000000000000E+01,      /* J = 36 */
(PID.TID 0000.0001)                 2.550000000000000E+01,      /* J = 37 */
(PID.TID 0000.0001)                 2.850000000000000E+01,      /* J = 38 */
(PID.TID 0000.0001)                 3.150000000000000E+01,      /* J = 39 */
(PID.TID 0000.0001)                 3.450000000000000E+01,      /* J = 40 */
(PID.TID 0000.0001)                 3.750000000000000E+01,      /* J = 41 */
(PID.TID 0000.0001)                 4.050000000000000E+01,      /* J = 42 */
(PID.TID 0000.0001)                 4.350000000000000E+01,      /* J = 43 */
(PID.TID 0000.0001)                 4.650000000000000E+01,      /* J = 44 */
(PID.TID 0000.0001)                 4.950000000000000E+01,      /* J = 45 */
(PID.TID 0000.0001)                 5.250000000000000E+01,      /* J = 46 */
(PID.TID 0000.0001)                 5.550000000000000E+01,      /* J = 47 */
(PID.TID 0000.0001)                 5.850000000000000E+01,      /* J = 48 */
(PID.TID 0000.0001)                 6.150000000000000E+01,      /* J = 49 */
(PID.TID 0000.0001)                 6.450000000000000E+01,      /* J = 50 */
(PID.TID 0000.0001)                 6.750000000000000E+01,      /* J = 51 */
(PID.TID 0000.0001)                 7.050000000000000E+01,      /* J = 52 */
(PID.TID 0000.0001)                 7.350000000000000E+01,      /* J = 53 */
(PID.TID 0000.0001)                 7.650000000000000E+01,      /* J = 54 */
(PID.TID 0000.0001)                 7.950000000000000E+01,      /* J = 55 */
(PID.TID 0000.0001)                 8.250000000000000E+01       /* J = 56 */
(PID.TID 0000.0001)     ;
(PID.TID 0000.0001) rcoord = /* P-point R coordinate (  units of r ) */
(PID.TID 0000.0001)                -2.000000000000000E+01,      /* K =  1 */
(PID.TID 0000.0001)                -8.000000000000000E+01,      /* K =  2 */
(PID.TID 0000.0001)                -1.650000000000000E+02,      /* K =  3 */
(PID.TID 0000.0001)                -2.850000000000000E+02,      /* K =  4 */
(PID.TID 0000.0001)                -4.500000000000000E+02,      /* K =  5 */
(PID.TID 0000.0001)                -6.650000000000000E+02,      /* K =  6 */
(PID.TID 0000.0001)                -9.300000000000000E+02,      /* K =  7 */
(PID.TID 0000.0001)                -1.245000000000000E+03,      /* K =  8 */
(PID.TID 0000.0001)                -1.610000000000000E+03,      /* K =  9 */
(PID.TID 0000.0001)                -2.025000000000000E+03,      /* K = 10 */
(PID.TID 0000.0001)                -2.490000000000000E+03,      /* K = 11 */
(PID.TID 0000.0001)                -3.005000000000000E+03,      /* K = 12 */
(PID.TID 0000.0001)                -3.570000000000000E+03,      /* K = 13 */
(PID.TID 0000.0001)                -4.185000000000000E+03,      /* K = 14 */
(PID.TID 0000.0001)                -4.850000000000000E+03       /* K = 15 */
(PID.TID 0000.0001)     ;
(PID.TID 0000.0001) rF =   /* W-Interf. R coordinate (  units of r ) */
(PID.TID 0000.0001)                 0.000000000000000E+00,      /* K =  1 */
(PID.TID 0000.0001)                -5.000000000000000E+01,      /* K =  2 */
(PID.TID 0000.0001)                -1.225000000000000E+02,      /* K =  3 */
(PID.TID 0000.0001)                -2.250000000000000E+02,      /* K =  4 */
(PID.TID 0000.0001)                -3.675000000000000E+02,      /* K =  5 */
(PID.TID 0000.0001)                -5.575000000000000E+02,      /* K =  6 */
(PID.TID 0000.0001)                -7.975000000000000E+02,      /* K =  7 */
(PID.TID 0000.0001)                -1.087500000000000E+03,      /* K =  8 */
(PID.TID 0000.0001)                -1.427500000000000E+03,      /* K =  9 */
(PID.TID 0000.0001)                -1.817500000000000E+03,      /* K = 10 */
(PID.TID 0000.0001)                -2.257500000000000E+03,      /* K = 11 */
(PID.TID 0000.0001)                -2.747500000000000E+03,      /* K = 12 */
(PID.TID 0000.0001)                -3.287500000000000E+03,      /* K = 13 */
(PID.TID 0000.0001)                -3.877500000000000E+03,      /* K = 14 */
(PID.TID 0000.0001)                -4.517500000000000E+03,      /* K = 15 */
(PID.TID 0000.0001)                -5.200000000000000E+03       /* K = 16 */
(PID.TID 0000.0001)     ;
(PID.TID 0000.0001) deepFacC = /* deep-model grid factor @ cell-Center (-) */
(PID.TID 0000.0001)    15 @  1.000000000000000E+00              /* K =  1: 15 */
(PID.TID 0000.0001)     ;
(PID.TID 0000.0001) deepFacF = /* deep-model grid factor @ W-Interface (-) */
(PID.TID 0000.0001)    16 @  1.000000000000000E+00              /* K =  1: 16 */
(PID.TID 0000.0001)     ;
(PID.TID 0000.0001) rotateGrid = /* use rotated grid ( True/False ) */
(PID.TID 0000.0001)                   F
(PID.TID 0000.0001)     ;
(PID.TID 0000.0001) phiEuler = /* Euler angle, rotation about original z-coordinate [rad] */
(PID.TID 0000.0001)                 0.000000000000000E+00
(PID.TID 0000.0001)     ;
(PID.TID 0000.0001) thetaEuler = /* Euler angle, rotation about new x-coordinate [rad] */
(PID.TID 0000.0001)                 0.000000000000000E+00
(PID.TID 0000.0001)     ;
(PID.TID 0000.0001) psiEuler = /* Euler angle, rotation about new z-coordinate [rad] */
(PID.TID 0000.0001)                 0.000000000000000E+00
(PID.TID 0000.0001)     ;
(PID.TID 0000.0001) dxF =  /* dxF(:,1,:,1) ( units: m ) */
(PID.TID 0000.0001)                 4.353471677186367E+04       /* I =  1 */
(PID.TID 0000.0001)     ;
(PID.TID 0000.0001) dxF =  /* dxF(1,:,1,:) ( units: m ) */
(PID.TID 0000.0001)                 4.353471677186367E+04,      /* J =  1 */
(PID.TID 0000.0001)                 6.078145583759403E+04,      /* J =  2 */
(PID.TID 0000.0001)                 7.786159715774079E+04,      /* J =  3 */
(PID.TID 0000.0001)                 9.472832525217145E+04,      /* J =  4 */
(PID.TID 0000.0001)                 1.113354095915710E+05,      /* J =  5 */
(PID.TID 0000.0001)                 1.276373313121096E+05,      /* J =  6 */
(PID.TID 0000.0001)                 1.435894079794837E+05,      /* J =  7 */
(PID.TID 0000.0001)                 1.591479160603634E+05,      /* J =  8 */
(PID.TID 0000.0001)                 1.742702107655578E+05,      /* J =  9 */
(PID.TID 0000.0001)                 1.889148429364175E+05,      /* J = 10 */
(PID.TID 0000.0001)                 2.030416726540983E+05,      /* J = 11 */
(PID.TID 0000.0001)                 2.166119792602878E+05,      /* J = 12 */
(PID.TID 0000.0001)                 2.295885674878389E+05,      /* J = 13 */
(PID.TID 0000.0001)                 2.419358694104115E+05,      /* J = 14 */
(PID.TID 0000.0001)                 2.536200419316863E+05,      /* J = 15 */
(PID.TID 0000.0001)                 2.646090595469393E+05,      /* J = 16 */
(PID.TID 0000.0001)                 2.748728021227243E+05,      /* J = 17 */
(PID.TID 0000.0001)                 2.843831374540652E+05,      /* J = 18 */
(PID.TID 0000.0001)                 2.931139983728740E+05,      /* J = 19 */
(PID.TID 0000.0001)                 3.010414541962470E+05,      /* J = 20 */
(PID.TID 0000.0001)                 3.081437763188029E+05,      /* J = 21 */
(PID.TID 0000.0001)                 3.144014977692803E+05,      /* J = 22 */
(PID.TID 0000.0001)                 3.197974665681523E+05,      /* J = 23 */
(PID.TID 0000.0001)                 3.243168927400103E+05,      /* J = 24 */
(PID.TID 0000.0001)                 3.279473888518588E+05,      /* J = 25 */
(PID.TID 0000.0001)                 3.306790039662077E+05,      /* J = 26 */
(PID.TID 0000.0001)                 3.325042509159012E+05,      /* J = 27 */
(PID.TID 0000.0001)     2 @  3.334181268259212E+05,             /* J = 28: 29 */
(PID.TID 0000.0001)                 3.325042509159012E+05,      /* J = 30 */
(PID.TID 0000.0001)                 3.306790039662077E+05,      /* J = 31 */
(PID.TID 0000.0001)                 3.279473888518588E+05,      /* J = 32 */
(PID.TID 0000.0001)                 3.243168927400103E+05,      /* J = 33 */
(PID.TID 0000.0001)                 3.197974665681523E+05,      /* J = 34 */
(PID.TID 0000.0001)                 3.144014977692803E+05,      /* J = 35 */
(PID.TID 0000.0001)                 3.081437763188029E+05,      /* J = 36 */
(PID.TID 0000.0001)                 3.010414541962470E+05,      /* J = 37 */
(PID.TID 0000.0001)                 2.931139983728740E+05,      /* J = 38 */
(PID.TID 0000.0001)                 2.843831374540652E+05,      /* J = 39 */
(PID.TID 0000.0001)                 2.748728021227243E+05,      /* J = 40 */
(PID.TID 0000.0001)                 2.646090595469393E+05,      /* J = 41 */
(PID.TID 0000.0001)                 2.536200419316863E+05,      /* J = 42 */
(PID.TID 0000.0001)                 2.419358694104115E+05,      /* J = 43 */
(PID.TID 0000.0001)                 2.295885674878389E+05,      /* J = 44 */
(PID.TID 0000.0001)                 2.166119792602878E+05,      /* J = 45 */
(PID.TID 0000.0001)                 2.030416726540983E+05,      /* J = 46 */
(PID.TID 0000.0001)                 1.889148429364175E+05,      /* J = 47 */
(PID.TID 0000.0001)                 1.742702107655578E+05,      /* J = 48 */
(PID.TID 0000.0001)                 1.591479160603634E+05,      /* J = 49 */
(PID.TID 0000.0001)                 1.435894079794837E+05,      /* J = 50 */
(PID.TID 0000.0001)                 1.276373313121096E+05,      /* J = 51 */
(PID.TID 0000.0001)                 1.113354095915710E+05,      /* J = 52 */
(PID.TID 0000.0001)                 9.472832525217145E+04,      /* J = 53 */
(PID.TID 0000.0001)                 7.786159715774079E+04,      /* J = 54 */
(PID.TID 0000.0001)                 6.078145583759403E+04,      /* J = 55 */
(PID.TID 0000.0001)                 4.353471677186367E+04       /* J = 56 */
(PID.TID 0000.0001)     ;
(PID.TID 0000.0001) dyF =  /* dyF(:,1,:,1) ( units: m ) */
(PID.TID 0000.0001)                 3.335324200561164E+05       /* I =  1 */
(PID.TID 0000.0001)     ;
(PID.TID 0000.0001) dyF =  /* dyF(1,:,1,:) ( units: m ) */
(PID.TID 0000.0001)    56 @  3.335324200561164E+05              /* J =  1: 56 */
(PID.TID 0000.0001)     ;
(PID.TID 0000.0001) dxG =  /* dxG(:,1,:,1) ( units: m ) */
(PID.TID 0000.0001)                 3.486363131840732E+04       /* I =  1 */
(PID.TID 0000.0001)     ;
(PID.TID 0000.0001) dxG =  /* dxG(1,:,1,:) ( units: m ) */
(PID.TID 0000.0001)                 3.486363131840732E+04,      /* J =  1 */
(PID.TID 0000.0001)                 5.217596570505216E+04,      /* J =  2 */
(PID.TID 0000.0001)                 6.934528939640634E+04,      /* J =  3 */
(PID.TID 0000.0001)                 8.632454246965688E+04,      /* J =  4 */
(PID.TID 0000.0001)                 1.030671859723435E+05,      /* J =  5 */
(PID.TID 0000.0001)                 1.195273294823923E+05,      /* J =  6 */
(PID.TID 0000.0001)                 1.356598568905725E+05,      /* J =  7 */
(PID.TID 0000.0001)                 1.514205500606167E+05,      /* J =  8 */
(PID.TID 0000.0001)                 1.667662100280583E+05,      /* J =  9 */
(PID.TID 0000.0001)                 1.816547754055899E+05,      /* J = 10 */
(PID.TID 0000.0001)                 1.960454376704035E+05,      /* J = 11 */
(PID.TID 0000.0001)                 2.098987530175138E+05,      /* J = 12 */
(PID.TID 0000.0001)                 2.231767504724866E+05,      /* J = 13 */
(PID.TID 0000.0001)                 2.358430359672399E+05,      /* J = 14 */
(PID.TID 0000.0001)                 2.478628920936556E+05,      /* J = 15 */
(PID.TID 0000.0001)                 2.592033732615808E+05,      /* J = 16 */
(PID.TID 0000.0001)                 2.698333960004017E+05,      /* J = 17 */
(PID.TID 0000.0001)                 2.797238241566748E+05,      /* J = 18 */
(PID.TID 0000.0001)                 2.888475487542992E+05,      /* J = 19 */
(PID.TID 0000.0001)                 2.971795622983349E+05,      /* J = 20 */
(PID.TID 0000.0001)                 3.046970273188090E+05,      /* J = 21 */
(PID.TID 0000.0001)                 3.113793389666330E+05,      /* J = 22 */
(PID.TID 0000.0001)                 3.172081814900618E+05,      /* J = 23 */
(PID.TID 0000.0001)                 3.221675784368968E+05,      /* J = 24 */
(PID.TID 0000.0001)                 3.262439364448300E+05,      /* J = 25 */
(PID.TID 0000.0001)                 3.294260824999061E+05,      /* J = 26 */
(PID.TID 0000.0001)                 3.317052945609759E+05,      /* J = 27 */
(PID.TID 0000.0001)                 3.330753254662066E+05,      /* J = 28 */
(PID.TID 0000.0001)                 3.335324200561164E+05,      /* J = 29 */
(PID.TID 0000.0001)                 3.330753254662066E+05,      /* J = 30 */
(PID.TID 0000.0001)                 3.317052945609759E+05,      /* J = 31 */
(PID.TID 0000.0001)                 3.294260824999061E+05,      /* J = 32 */
(PID.TID 0000.0001)                 3.262439364448300E+05,      /* J = 33 */
(PID.TID 0000.0001)                 3.221675784368968E+05,      /* J = 34 */
(PID.TID 0000.0001)                 3.172081814900618E+05,      /* J = 35 */
(PID.TID 0000.0001)                 3.113793389666330E+05,      /* J = 36 */
(PID.TID 0000.0001)                 3.046970273188090E+05,      /* J = 37 */
(PID.TID 0000.0001)                 2.971795622983349E+05,      /* J = 38 */
(PID.TID 0000.0001)                 2.888475487542992E+05,      /* J = 39 */
(PID.TID 0000.0001)                 2.797238241566748E+05,      /* J = 40 */
(PID.TID 0000.0001)                 2.698333960004017E+05,      /* J = 41 */
(PID.TID 0000.0001)                 2.592033732615808E+05,      /* J = 42 */
(PID.TID 0000.0001)                 2.478628920936556E+05,      /* J = 43 */
(PID.TID 0000.0001)                 2.358430359672399E+05,      /* J = 44 */
(PID.TID 0000.0001)                 2.231767504724866E+05,      /* J = 45 */
(PID.TID 0000.0001)                 2.098987530175138E+05,      /* J = 46 */
(PID.TID 0000.0001)                 1.960454376704035E+05,      /* J = 47 */
(PID.TID 0000.0001)                 1.816547754055899E+05,      /* J = 48 */
(PID.TID 0000.0001)                 1.667662100280583E+05,      /* J = 49 */
(PID.TID 0000.0001)                 1.514205500606167E+05,      /* J = 50 */
(PID.TID 0000.0001)                 1.356598568905725E+05,      /* J = 51 */
(PID.TID 0000.0001)                 1.195273294823923E+05,      /* J = 52 */
(PID.TID 0000.0001)                 1.030671859723435E+05,      /* J = 53 */
(PID.TID 0000.0001)                 8.632454246965688E+04,      /* J = 54 */
(PID.TID 0000.0001)                 6.934528939640634E+04,      /* J = 55 */
(PID.TID 0000.0001)                 5.217596570505216E+04       /* J = 56 */
(PID.TID 0000.0001)     ;
(PID.TID 0000.0001) dyG =  /* dyG(:,1,:,1) ( units: m ) */
(PID.TID 0000.0001)                 3.335324200561164E+05       /* I =  1 */
(PID.TID 0000.0001)     ;
(PID.TID 0000.0001) dyG =  /* dyG(1,:,1,:) ( units: m ) */
(PID.TID 0000.0001)    56 @  3.335324200561164E+05              /* J =  1: 56 */
(PID.TID 0000.0001)     ;
(PID.TID 0000.0001) dxC =  /* dxC(:,1,:,1) ( units: m ) */
(PID.TID 0000.0001)                 4.353471677186367E+04       /* I =  1 */
(PID.TID 0000.0001)     ;
(PID.TID 0000.0001) dxC =  /* dxC(1,:,1,:) ( units: m ) */
(PID.TID 0000.0001)                 4.353471677186367E+04,      /* J =  1 */
(PID.TID 0000.0001)                 6.078145583759403E+04,      /* J =  2 */
(PID.TID 0000.0001)                 7.786159715774079E+04,      /* J =  3 */
(PID.TID 0000.0001)                 9.472832525217145E+04,      /* J =  4 */
(PID.TID 0000.0001)                 1.113354095915710E+05,      /* J =  5 */
(PID.TID 0000.0001)                 1.276373313121096E+05,      /* J =  6 */
(PID.TID 0000.0001)                 1.435894079794837E+05,      /* J =  7 */
(PID.TID 0000.0001)                 1.591479160603634E+05,      /* J =  8 */
(PID.TID 0000.0001)                 1.742702107655578E+05,      /* J =  9 */
(PID.TID 0000.0001)                 1.889148429364175E+05,      /* J = 10 */
(PID.TID 0000.0001)                 2.030416726540983E+05,      /* J = 11 */
(PID.TID 0000.0001)                 2.166119792602878E+05,      /* J = 12 */
(PID.TID 0000.0001)                 2.295885674878389E+05,      /* J = 13 */
(PID.TID 0000.0001)                 2.419358694104115E+05,      /* J = 14 */
(PID.TID 0000.0001)                 2.536200419316863E+05,      /* J = 15 */
(PID.TID 0000.0001)                 2.646090595469393E+05,      /* J = 16 */
(PID.TID 0000.0001)                 2.748728021227243E+05,      /* J = 17 */
(PID.TID 0000.0001)                 2.843831374540652E+05,      /* J = 18 */
(PID.TID 0000.0001)                 2.931139983728740E+05,      /* J = 19 */
(PID.TID 0000.0001)                 3.010414541962470E+05,      /* J = 20 */
(PID.TID 0000.0001)                 3.081437763188029E+05,      /* J = 21 */
(PID.TID 0000.0001)                 3.144014977692803E+05,      /* J = 22 */
(PID.TID 0000.0001)                 3.197974665681523E+05,      /* J = 23 */
(PID.TID 0000.0001)                 3.243168927400103E+05,      /* J = 24 */
(PID.TID 0000.0001)                 3.279473888518588E+05,      /* J = 25 */
(PID.TID 0000.0001)                 3.306790039662077E+05,      /* J = 26 */
(PID.TID 0000.0001)                 3.325042509159012E+05,      /* J = 27 */
(PID.TID 0000.0001)     2 @  3.334181268259212E+05,             /* J = 28: 29 */
(PID.TID 0000.0001)                 3.325042509159012E+05,      /* J = 30 */
(PID.TID 0000.0001)                 3.306790039662077E+05,      /* J = 31 */
(PID.TID 0000.0001)                 3.279473888518588E+05,      /* J = 32 */
(PID.TID 0000.0001)                 3.243168927400103E+05,      /* J = 33 */
(PID.TID 0000.0001)                 3.197974665681523E+05,      /* J = 34 */
(PID.TID 0000.0001)                 3.144014977692803E+05,      /* J = 35 */
(PID.TID 0000.0001)                 3.081437763188029E+05,      /* J = 36 */
(PID.TID 0000.0001)                 3.010414541962470E+05,      /* J = 37 */
(PID.TID 0000.0001)                 2.931139983728740E+05,      /* J = 38 */
(PID.TID 0000.0001)                 2.843831374540652E+05,      /* J = 39 */
(PID.TID 0000.0001)                 2.748728021227243E+05,      /* J = 40 */
(PID.TID 0000.0001)                 2.646090595469393E+05,      /* J = 41 */
(PID.TID 0000.0001)                 2.536200419316863E+05,      /* J = 42 */
(PID.TID 0000.0001)                 2.419358694104115E+05,      /* J = 43 */
(PID.TID 0000.0001)                 2.295885674878389E+05,      /* J = 44 */
(PID.TID 0000.0001)                 2.166119792602878E+05,      /* J = 45 */
(PID.TID 0000.0001)                 2.030416726540983E+05,      /* J = 46 */
(PID.TID 0000.0001)                 1.889148429364175E+05,      /* J = 47 */
(PID.TID 0000.0001)                 1.742702107655578E+05,      /* J = 48 */
(PID.TID 0000.0001)                 1.591479160603634E+05,      /* J = 49 */
(PID.TID 0000.0001)                 1.435894079794837E+05,      /* J = 50 */
(PID.TID 0000.0001)                 1.276373313121096E+05,      /* J = 51 */
(PID.TID 0000.0001)                 1.113354095915710E+05,      /* J = 52 */
(PID.TID 0000.0001)                 9.472832525217145E+04,      /* J = 53 */
(PID.TID 0000.0001)                 7.786159715774079E+04,      /* J = 54 */
(PID.TID 0000.0001)                 6.078145583759403E+04,      /* J = 55 */
(PID.TID 0000.0001)                 4.353471677186367E+04       /* J = 56 */
(PID.TID 0000.0001)     ;
(PID.TID 0000.0001) dyC =  /* dyC(:,1,:,1) ( units: m ) */
(PID.TID 0000.0001)                 3.335324200561164E+05       /* I =  1 */
(PID.TID 0000.0001)     ;
(PID.TID 0000.0001) dyC =  /* dyC(1,:,1,:) ( units: m ) */
(PID.TID 0000.0001)    56 @  3.335324200561164E+05              /* J =  1: 56 */
(PID.TID 0000.0001)     ;
(PID.TID 0000.0001) dxV =  /* dxV(:,1,:,1) ( units: m ) */
(PID.TID 0000.0001)                 3.486363131840732E+04       /* I =  1 */
(PID.TID 0000.0001)     ;
(PID.TID 0000.0001) dxV =  /* dxV(1,:,1,:) ( units: m ) */
(PID.TID 0000.0001)                 3.486363131840732E+04,      /* J =  1 */
(PID.TID 0000.0001)                 5.217596570505216E+04,      /* J =  2 */
(PID.TID 0000.0001)                 6.934528939640634E+04,      /* J =  3 */
(PID.TID 0000.0001)                 8.632454246965688E+04,      /* J =  4 */
(PID.TID 0000.0001)                 1.030671859723435E+05,      /* J =  5 */
(PID.TID 0000.0001)                 1.195273294823923E+05,      /* J =  6 */
(PID.TID 0000.0001)                 1.356598568905725E+05,      /* J =  7 */
(PID.TID 0000.0001)                 1.514205500606167E+05,      /* J =  8 */
(PID.TID 0000.0001)                 1.667662100280583E+05,      /* J =  9 */
(PID.TID 0000.0001)                 1.816547754055899E+05,      /* J = 10 */
(PID.TID 0000.0001)                 1.960454376704035E+05,      /* J = 11 */
(PID.TID 0000.0001)                 2.098987530175138E+05,      /* J = 12 */
(PID.TID 0000.0001)                 2.231767504724866E+05,      /* J = 13 */
(PID.TID 0000.0001)                 2.358430359672399E+05,      /* J = 14 */
(PID.TID 0000.0001)                 2.478628920936556E+05,      /* J = 15 */
(PID.TID 0000.0001)                 2.592033732615808E+05,      /* J = 16 */
(PID.TID 0000.0001)                 2.698333960004017E+05,      /* J = 17 */
(PID.TID 0000.0001)                 2.797238241566748E+05,      /* J = 18 */
(PID.TID 0000.0001)                 2.888475487542992E+05,      /* J = 19 */
(PID.TID 0000.0001)                 2.971795622983349E+05,      /* J = 20 */
(PID.TID 0000.0001)                 3.046970273188090E+05,      /* J = 21 */
(PID.TID 0000.0001)                 3.113793389666330E+05,      /* J = 22 */
(PID.TID 0000.0001)                 3.172081814900618E+05,      /* J = 23 */
(PID.TID 0000.0001)                 3.221675784368968E+05,      /* J = 24 */
(PID.TID 0000.0001)                 3.262439364448300E+05,      /* J = 25 */
(PID.TID 0000.0001)                 3.294260824999061E+05,      /* J = 26 */
(PID.TID 0000.0001)                 3.317052945609759E+05,      /* J = 27 */
(PID.TID 0000.0001)                 3.330753254662066E+05,      /* J = 28 */
(PID.TID 0000.0001)                 3.335324200561164E+05,      /* J = 29 */
(PID.TID 0000.0001)                 3.330753254662066E+05,      /* J = 30 */
(PID.TID 0000.0001)                 3.317052945609759E+05,      /* J = 31 */
(PID.TID 0000.0001)                 3.294260824999061E+05,      /* J = 32 */
(PID.TID 0000.0001)                 3.262439364448300E+05,      /* J = 33 */
(PID.TID 0000.0001)                 3.221675784368968E+05,      /* J = 34 */
(PID.TID 0000.0001)                 3.172081814900618E+05,      /* J = 35 */
(PID.TID 0000.0001)                 3.113793389666330E+05,      /* J = 36 */
(PID.TID 0000.0001)                 3.046970273188090E+05,      /* J = 37 */
(PID.TID 0000.0001)                 2.971795622983349E+05,      /* J = 38 */
(PID.TID 0000.0001)                 2.888475487542992E+05,      /* J = 39 */
(PID.TID 0000.0001)                 2.797238241566748E+05,      /* J = 40 */
(PID.TID 0000.0001)                 2.698333960004017E+05,      /* J = 41 */
(PID.TID 0000.0001)                 2.592033732615808E+05,      /* J = 42 */
(PID.TID 0000.0001)                 2.478628920936556E+05,      /* J = 43 */
(PID.TID 0000.0001)                 2.358430359672399E+05,      /* J = 44 */
(PID.TID 0000.0001)                 2.231767504724866E+05,      /* J = 45 */
(PID.TID 0000.0001)                 2.098987530175138E+05,      /* J = 46 */
(PID.TID 0000.0001)                 1.960454376704035E+05,      /* J = 47 */
(PID.TID 0000.0001)                 1.816547754055899E+05,      /* J = 48 */
(PID.TID 0000.0001)                 1.667662100280583E+05,      /* J = 49 */
(PID.TID 0000.0001)                 1.514205500606167E+05,      /* J = 50 */
(PID.TID 0000.0001)                 1.356598568905725E+05,      /* J = 51 */
(PID.TID 0000.0001)                 1.195273294823923E+05,      /* J = 52 */
(PID.TID 0000.0001)                 1.030671859723435E+05,      /* J = 53 */
(PID.TID 0000.0001)                 8.632454246965688E+04,      /* J = 54 */
(PID.TID 0000.0001)                 6.934528939640634E+04,      /* J = 55 */
(PID.TID 0000.0001)                 5.217596570505216E+04       /* J = 56 */
(PID.TID 0000.0001)     ;
(PID.TID 0000.0001) dyU =  /* dyU(:,1,:,1) ( units: m ) */
(PID.TID 0000.0001)                 3.335324200561164E+05       /* I =  1 */
(PID.TID 0000.0001)     ;
(PID.TID 0000.0001) dyU =  /* dyU(1,:,1,:) ( units: m ) */
(PID.TID 0000.0001)    56 @  3.335324200561164E+05              /* J =  1: 56 */
(PID.TID 0000.0001)     ;
(PID.TID 0000.0001) rA  =  /* rA (:,1,:,1) ( units: m^2 ) */
(PID.TID 0000.0001)                 1.451858082901536E+10       /* I =  1 */
(PID.TID 0000.0001)     ;
(PID.TID 0000.0001) rA  =  /* rA (1,:,1,:) ( units: m^2 ) */
(PID.TID 0000.0001)                 1.451858082901536E+10,      /* J =  1 */
(PID.TID 0000.0001)                 2.027027037083401E+10,      /* J =  2 */
(PID.TID 0000.0001)                 2.596640051053460E+10,      /* J =  3 */
(PID.TID 0000.0001)                 3.159135855133891E+10,      /* J =  4 */
(PID.TID 0000.0001)                 3.712972687424187E+10,      /* J =  5 */
(PID.TID 0000.0001)                 4.256632519663855E+10,      /* J =  6 */
(PID.TID 0000.0001)                 4.788625218042016E+10,      /* J =  7 */
(PID.TID 0000.0001)                 5.307492627550761E+10,      /* J =  8 */
(PID.TID 0000.0001)                 5.811812568686684E+10,      /* J =  9 */
(PID.TID 0000.0001)                 6.300202735545998E+10,      /* J = 10 */
(PID.TID 0000.0001)                 6.771324484628893E+10,      /* J = 11 */
(PID.TID 0000.0001)                 7.223886503968413E+10,      /* J = 12 */
(PID.TID 0000.0001)                 7.656648352526761E+10,      /* J = 13 */
(PID.TID 0000.0001)                 8.068423860157887E+10,      /* J = 14 */
(PID.TID 0000.0001)                 8.458084378817659E+10,      /* J = 15 */
(PID.TID 0000.0001)                 8.824561876109258E+10,      /* J = 16 */
(PID.TID 0000.0001)                 9.166851862686266E+10,      /* J = 17 */
(PID.TID 0000.0001)                 9.484016145487706E+10,      /* J = 18 */
(PID.TID 0000.0001)                 9.775185399260217E+10,      /* J = 19 */
(PID.TID 0000.0001)                 1.003956154931817E+11,      /* J = 20 */
(PID.TID 0000.0001)                 1.027641995901083E+11,      /* J = 21 */
(PID.TID 0000.0001)                 1.048511141590102E+11,      /* J = 22 */
(PID.TID 0000.0001)                 1.066506391121138E+11,      /* J = 23 */
(PID.TID 0000.0001)                 1.081578420766062E+11,      /* J = 24 */
(PID.TID 0000.0001)                 1.093685919139261E+11,      /* J = 25 */
(PID.TID 0000.0001)                 1.102795700429274E+11,      /* J = 26 */
(PID.TID 0000.0001)                 1.108882795358801E+11,      /* J = 27 */
(PID.TID 0000.0001)     2 @  1.111930519623746E+11,             /* J = 28: 29 */
(PID.TID 0000.0001)                 1.108882795358801E+11,      /* J = 30 */
(PID.TID 0000.0001)                 1.102795700429274E+11,      /* J = 31 */
(PID.TID 0000.0001)                 1.093685919139261E+11,      /* J = 32 */
(PID.TID 0000.0001)                 1.081578420766062E+11,      /* J = 33 */
(PID.TID 0000.0001)                 1.066506391121138E+11,      /* J = 34 */
(PID.TID 0000.0001)                 1.048511141590102E+11,      /* J = 35 */
(PID.TID 0000.0001)                 1.027641995901083E+11,      /* J = 36 */
(PID.TID 0000.0001)                 1.003956154931817E+11,      /* J = 37 */
(PID.TID 0000.0001)                 9.775185399260217E+10,      /* J = 38 */
(PID.TID 0000.0001)                 9.484016145487706E+10,      /* J = 39 */
(PID.TID 0000.0001)                 9.166851862686266E+10,      /* J = 40 */
(PID.TID 0000.0001)                 8.824561876109258E+10,      /* J = 41 */
(PID.TID 0000.0001)                 8.458084378817659E+10,      /* J = 42 */
(PID.TID 0000.0001)                 8.068423860157887E+10,      /* J = 43 */
(PID.TID 0000.0001)                 7.656648352526761E+10,      /* J = 44 */
(PID.TID 0000.0001)                 7.223886503968413E+10,      /* J = 45 */
(PID.TID 0000.0001)                 6.771324484628893E+10,      /* J = 46 */
(PID.TID 0000.0001)                 6.300202735545998E+10,      /* J = 47 */
(PID.TID 0000.0001)                 5.811812568686684E+10,      /* J = 48 */
(PID.TID 0000.0001)                 5.307492627550761E+10,      /* J = 49 */
(PID.TID 0000.0001)                 4.788625218042016E+10,      /* J = 50 */
(PID.TID 0000.0001)                 4.256632519663855E+10,      /* J = 51 */
(PID.TID 0000.0001)                 3.712972687424187E+10,      /* J = 52 */
(PID.TID 0000.0001)                 3.159135855133891E+10,      /* J = 53 */
(PID.TID 0000.0001)                 2.596640051053460E+10,      /* J = 54 */
(PID.TID 0000.0001)                 2.027027037083401E+10,      /* J = 55 */
(PID.TID 0000.0001)                 1.451858082901536E+10       /* J = 56 */
(PID.TID 0000.0001)     ;
(PID.TID 0000.0001) rAw =  /* rAw(:,1,:,1) ( units: m^2 ) */
(PID.TID 0000.0001)                 1.451858082901536E+10       /* I =  1 */
(PID.TID 0000.0001)     ;
(PID.TID 0000.0001) rAw =  /* rAw(1,:,1,:) ( units: m^2 ) */
(PID.TID 0000.0001)                 1.451858082901536E+10,      /* J =  1 */
(PID.TID 0000.0001)                 2.027027037083401E+10,      /* J =  2 */
(PID.TID 0000.0001)                 2.596640051053460E+10,      /* J =  3 */
(PID.TID 0000.0001)                 3.159135855133891E+10,      /* J =  4 */
(PID.TID 0000.0001)                 3.712972687424187E+10,      /* J =  5 */
(PID.TID 0000.0001)                 4.256632519663855E+10,      /* J =  6 */
(PID.TID 0000.0001)                 4.788625218042016E+10,      /* J =  7 */
(PID.TID 0000.0001)                 5.307492627550761E+10,      /* J =  8 */
(PID.TID 0000.0001)                 5.811812568686684E+10,      /* J =  9 */
(PID.TID 0000.0001)                 6.300202735545998E+10,      /* J = 10 */
(PID.TID 0000.0001)                 6.771324484628893E+10,      /* J = 11 */
(PID.TID 0000.0001)                 7.223886503968413E+10,      /* J = 12 */
(PID.TID 0000.0001)                 7.656648352526761E+10,      /* J = 13 */
(PID.TID 0000.0001)                 8.068423860157887E+10,      /* J = 14 */
(PID.TID 0000.0001)                 8.458084378817659E+10,      /* J = 15 */
(PID.TID 0000.0001)                 8.824561876109258E+10,      /* J = 16 */
(PID.TID 0000.0001)                 9.166851862686266E+10,      /* J = 17 */
(PID.TID 0000.0001)                 9.484016145487706E+10,      /* J = 18 */
(PID.TID 0000.0001)                 9.775185399260217E+10,      /* J = 19 */
(PID.TID 0000.0001)                 1.003956154931817E+11,      /* J = 20 */
(PID.TID 0000.0001)                 1.027641995901083E+11,      /* J = 21 */
(PID.TID 0000.0001)                 1.048511141590102E+11,      /* J = 22 */
(PID.TID 0000.0001)                 1.066506391121138E+11,      /* J = 23 */
(PID.TID 0000.0001)                 1.081578420766062E+11,      /* J = 24 */
(PID.TID 0000.0001)                 1.093685919139261E+11,      /* J = 25 */
(PID.TID 0000.0001)                 1.102795700429274E+11,      /* J = 26 */
(PID.TID 0000.0001)                 1.108882795358801E+11,      /* J = 27 */
(PID.TID 0000.0001)     2 @  1.111930519623746E+11,             /* J = 28: 29 */
(PID.TID 0000.0001)                 1.108882795358801E+11,      /* J = 30 */
(PID.TID 0000.0001)                 1.102795700429274E+11,      /* J = 31 */
(PID.TID 0000.0001)                 1.093685919139261E+11,      /* J = 32 */
(PID.TID 0000.0001)                 1.081578420766062E+11,      /* J = 33 */
(PID.TID 0000.0001)                 1.066506391121138E+11,      /* J = 34 */
(PID.TID 0000.0001)                 1.048511141590102E+11,      /* J = 35 */
(PID.TID 0000.0001)                 1.027641995901083E+11,      /* J = 36 */
(PID.TID 0000.0001)                 1.003956154931817E+11,      /* J = 37 */
(PID.TID 0000.0001)                 9.775185399260217E+10,      /* J = 38 */
(PID.TID 0000.0001)                 9.484016145487706E+10,      /* J = 39 */
(PID.TID 0000.0001)                 9.166851862686266E+10,      /* J = 40 */
(PID.TID 0000.0001)                 8.824561876109258E+10,      /* J = 41 */
(PID.TID 0000.0001)                 8.458084378817659E+10,      /* J = 42 */
(PID.TID 0000.0001)                 8.068423860157887E+10,      /* J = 43 */
(PID.TID 0000.0001)                 7.656648352526761E+10,      /* J = 44 */
(PID.TID 0000.0001)                 7.223886503968413E+10,      /* J = 45 */
(PID.TID 0000.0001)                 6.771324484628893E+10,      /* J = 46 */
(PID.TID 0000.0001)                 6.300202735545998E+10,      /* J = 47 */
(PID.TID 0000.0001)                 5.811812568686684E+10,      /* J = 48 */
(PID.TID 0000.0001)                 5.307492627550761E+10,      /* J = 49 */
(PID.TID 0000.0001)                 4.788625218042016E+10,      /* J = 50 */
(PID.TID 0000.0001)                 4.256632519663855E+10,      /* J = 51 */
(PID.TID 0000.0001)                 3.712972687424187E+10,      /* J = 52 */
(PID.TID 0000.0001)                 3.159135855133891E+10,      /* J = 53 */
(PID.TID 0000.0001)                 2.596640051053460E+10,      /* J = 54 */
(PID.TID 0000.0001)                 2.027027037083401E+10,      /* J = 55 */
(PID.TID 0000.0001)                 1.451858082901536E+10       /* J = 56 */
(PID.TID 0000.0001)     ;
(PID.TID 0000.0001) rAs =  /* rAs(:,1,:,1) ( units: m^2 ) */
(PID.TID 0000.0001)                 1.162682306954695E+10       /* I =  1 */
(PID.TID 0000.0001)     ;
(PID.TID 0000.0001) rAs =  /* rAs(1,:,1,:) ( units: m^2 ) */
(PID.TID 0000.0001)                 1.162682306954695E+10,      /* J =  1 */
(PID.TID 0000.0001)                 1.740038827840316E+10,      /* J =  2 */
(PID.TID 0000.0001)                 2.312626023247488E+10,      /* J =  3 */
(PID.TID 0000.0001)                 2.878874471473547E+10,      /* J =  4 */
(PID.TID 0000.0001)                 3.437232124881438E+10,      /* J =  5 */
(PID.TID 0000.0001)                 3.986168563954120E+10,      /* J =  6 */
(PID.TID 0000.0001)                 4.524179192068169E+10,      /* J =  7 */
(PID.TID 0000.0001)                 5.049789359488558E+10,      /* J =  8 */
(PID.TID 0000.0001)                 5.561558405281213E+10,      /* J =  9 */
(PID.TID 0000.0001)                 6.058083606064116E+10,      /* J = 10 */
(PID.TID 0000.0001)                 6.538004020775079E+10,      /* J = 11 */
(PID.TID 0000.0001)                 7.000004220916154E+10,      /* J = 12 */
(PID.TID 0000.0001)                 7.442817896052029E+10,      /* J = 13 */
(PID.TID 0000.0001)                 7.865231324678772E+10,      /* J = 14 */
(PID.TID 0000.0001)                 8.266086700950050E+10,      /* J = 15 */
(PID.TID 0000.0001)                 8.644285308142711E+10,      /* J = 16 */
(PID.TID 0000.0001)                 8.998790530162651E+10,      /* J = 17 */
(PID.TID 0000.0001)                 9.328630692837677E+10,      /* J = 18 */
(PID.TID 0000.0001)                 9.632901727208771E+10,      /* J = 19 */
(PID.TID 0000.0001)                 9.910769647520410E+10,      /* J = 20 */
(PID.TID 0000.0001)                 1.016147283711733E+11,      /* J = 21 */
(PID.TID 0000.0001)                 1.038432413598305E+11,      /* J = 22 */
(PID.TID 0000.0001)                 1.057871272419753E+11,      /* J = 23 */
(PID.TID 0000.0001)                 1.074410579615233E+11,      /* J = 24 */
(PID.TID 0000.0001)                 1.088005002093347E+11,      /* J = 25 */
(PID.TID 0000.0001)                 1.098617278487027E+11,      /* J = 26 */
(PID.TID 0000.0001)                 1.106218321284322E+11,      /* J = 27 */
(PID.TID 0000.0001)                 1.110787296555271E+11,      /* J = 28 */
(PID.TID 0000.0001)                 1.112311681056240E+11,      /* J = 29 */
(PID.TID 0000.0001)                 1.110787296555271E+11,      /* J = 30 */
(PID.TID 0000.0001)                 1.106218321284322E+11,      /* J = 31 */
(PID.TID 0000.0001)                 1.098617278487027E+11,      /* J = 32 */
(PID.TID 0000.0001)                 1.088005002093347E+11,      /* J = 33 */
(PID.TID 0000.0001)                 1.074410579615233E+11,      /* J = 34 */
(PID.TID 0000.0001)                 1.057871272419753E+11,      /* J = 35 */
(PID.TID 0000.0001)                 1.038432413598305E+11,      /* J = 36 */
(PID.TID 0000.0001)                 1.016147283711733E+11,      /* J = 37 */
(PID.TID 0000.0001)                 9.910769647520410E+10,      /* J = 38 */
(PID.TID 0000.0001)                 9.632901727208771E+10,      /* J = 39 */
(PID.TID 0000.0001)                 9.328630692837677E+10,      /* J = 40 */
(PID.TID 0000.0001)                 8.998790530162651E+10,      /* J = 41 */
(PID.TID 0000.0001)                 8.644285308142711E+10,      /* J = 42 */
(PID.TID 0000.0001)                 8.266086700950050E+10,      /* J = 43 */
(PID.TID 0000.0001)                 7.865231324678772E+10,      /* J = 44 */
(PID.TID 0000.0001)                 7.442817896052029E+10,      /* J = 45 */
(PID.TID 0000.0001)                 7.000004220916154E+10,      /* J = 46 */
(PID.TID 0000.0001)                 6.538004020775079E+10,      /* J = 47 */
(PID.TID 0000.0001)                 6.058083606064116E+10,      /* J = 48 */
(PID.TID 0000.0001)                 5.561558405281213E+10,      /* J = 49 */
(PID.TID 0000.0001)                 5.049789359488558E+10,      /* J = 50 */
(PID.TID 0000.0001)                 4.524179192068169E+10,      /* J = 51 */
(PID.TID 0000.0001)                 3.986168563954120E+10,      /* J = 52 */
(PID.TID 0000.0001)                 3.437232124881438E+10,      /* J = 53 */
(PID.TID 0000.0001)                 2.878874471473547E+10,      /* J = 54 */
(PID.TID 0000.0001)                 2.312626023247488E+10,      /* J = 55 */
(PID.TID 0000.0001)                 1.740038827840316E+10       /* J = 56 */
(PID.TID 0000.0001)     ;
(PID.TID 0000.0001) globalArea = /* Integrated horizontal Area (m^2) */
(PID.TID 0000.0001)                 4.196888291048803E+12
(PID.TID 0000.0001)     ;
(PID.TID 0000.0001) // =======================================================
(PID.TID 0000.0001) // End of Model config. summary
(PID.TID 0000.0001) // =======================================================
(PID.TID 0000.0001) 
(PID.TID 0000.0001) == Packages configuration : Check & print summary ==
(PID.TID 0000.0001) 
(PID.TID 0000.0001) GMREDI_CHECK: #define GMREDI
(PID.TID 0000.0001) GM_AdvForm =     /* if FALSE => use SkewFlux Form */
(PID.TID 0000.0001)                   T
(PID.TID 0000.0001)     ;
(PID.TID 0000.0001) GM_InMomAsStress = /* if TRUE => apply as Eddy Stress */
(PID.TID 0000.0001)                   F
(PID.TID 0000.0001)     ;
(PID.TID 0000.0001) GM_AdvSeparate = /* Calc Bolus & Euler Adv. separately */
(PID.TID 0000.0001)                   F
(PID.TID 0000.0001)     ;
(PID.TID 0000.0001) GM_ExtraDiag =   /* Tensor Extra Diag (line 1&2) non 0 */
(PID.TID 0000.0001)                   T
(PID.TID 0000.0001)     ;
(PID.TID 0000.0001) GM_isopycK =    /* Background Isopyc. Diffusivity [m^2/s] */
(PID.TID 0000.0001)                 1.000000000000000E+01
(PID.TID 0000.0001)     ;
(PID.TID 0000.0001) GM_advec*K =    /* Backg. GM-Advec(=Bolus) Diffusivity [m^2/s] */
(PID.TID 0000.0001)                 1.000000000000000E+01
(PID.TID 0000.0001)     ;
(PID.TID 0000.0001) GM_skewflx*K =  /* Background GM_SkewFlx Diffusivity [m^2/s] */
(PID.TID 0000.0001)                 0.000000000000000E+00
(PID.TID 0000.0001)     ;
(PID.TID 0000.0001) GM_isoFac_calcK = /* Fraction of dynamic K added to Redi tensor */
(PID.TID 0000.0001)                 1.000000000000000E+00
(PID.TID 0000.0001)     ;
(PID.TID 0000.0001) GM_Kmin_horiz = /* Minimum Horizontal Diffusivity [m^2/s] */
(PID.TID 0000.0001)                 0.000000000000000E+00
(PID.TID 0000.0001)     ;
(PID.TID 0000.0001) GM_Visbeck_alpha = /* Visbeck alpha coeff. [-] */
(PID.TID 0000.0001)                 0.000000000000000E+00
(PID.TID 0000.0001)     ;
(PID.TID 0000.0001) GM_Small_Number =  /* epsilon used in slope calc */
(PID.TID 0000.0001)                 1.000000000000000E-18
(PID.TID 0000.0001)     ;
(PID.TID 0000.0001) GM_slopeSqCutoff = /* Slope^2 cut-off value */
(PID.TID 0000.0001)                 1.000000000000000E+48
(PID.TID 0000.0001)     ;
(PID.TID 0000.0001) GM_taper_scheme =  /* Type of Tapering/Clipping scheme */
(PID.TID 0000.0001)               'linear                                  '
(PID.TID 0000.0001)     ;
(PID.TID 0000.0001) GM_maxSlope =  /* Maximum Slope (Tapering/Clipping) */
(PID.TID 0000.0001)                 1.000000000000000E-02
(PID.TID 0000.0001)     ;
(PID.TID 0000.0001) GM_facTrL2dz = /* Minimum Trans.Layer Thick. (factor of dz) */
(PID.TID 0000.0001)                 1.000000000000000E+00
(PID.TID 0000.0001)     ;
(PID.TID 0000.0001) GM_facTrL2ML = /* Max.Trans.Layer Thick. (factor of MxL Depth)*/
(PID.TID 0000.0001)                 5.000000000000000E+00
(PID.TID 0000.0001)     ;
(PID.TID 0000.0001) GM_maxTransLay = /* Maximum Transition Layer Thickness [m] */
(PID.TID 0000.0001)                 5.000000000000000E+02
(PID.TID 0000.0001)     ;
(PID.TID 0000.0001) GM_UseBVP = /* if TRUE => use bvp a la Ferrari et al. (2010) */
(PID.TID 0000.0001)                   F
(PID.TID 0000.0001)     ;
(PID.TID 0000.0001) GM_BVP_ModeNumber = /* Vertical mode number for BVP wave speed */
(PID.TID 0000.0001)                       1
(PID.TID 0000.0001)     ;
(PID.TID 0000.0001) GM_BVP_cMin = /* Minimum wave speed for BVP [m/s] */
(PID.TID 0000.0001)                 1.000000000000000E-01
(PID.TID 0000.0001)     ;
(PID.TID 0000.0001) GM_useSubMeso = /* if TRUE => use Sub-Meso param. (B.Fox-Kemper) */
(PID.TID 0000.0001)                   F
(PID.TID 0000.0001)     ;
(PID.TID 0000.0001) subMeso_Ceff = /* efficiency coeff. of Mixed-Layer Eddies [-] */
(PID.TID 0000.0001)                 7.000000000000001E-02
(PID.TID 0000.0001)     ;
(PID.TID 0000.0001) subMeso_invTau = /* inverse of Sub-Meso mixing time-scale [/s] */
(PID.TID 0000.0001)                 2.000000000000000E-06
(PID.TID 0000.0001)     ;
(PID.TID 0000.0001) subMeso_LfMin = /* minimum length-scale "Lf" [m] */
(PID.TID 0000.0001)                 1.000000000000000E+03
(PID.TID 0000.0001)     ;
(PID.TID 0000.0001) subMeso_Lmax = /* maximum grid-scale length [m] */
(PID.TID 0000.0001)                 1.100000000000000E+05
(PID.TID 0000.0001)     ;
(PID.TID 0000.0001) GM_useLeithQG = /* if TRUE => add QG Leith viscosity to GMRedi tensor */
(PID.TID 0000.0001)                   F
(PID.TID 0000.0001)     ;
(PID.TID 0000.0001) GM_useGEOM = /* using GEOMETRIC */
(PID.TID 0000.0001)                   T
(PID.TID 0000.0001)     ;
(PID.TID 0000.0001) GEOM_alpha      = /* GEOM alpha coeff. [-] */
(PID.TID 0000.0001)                 8.000000000000000E-02
(PID.TID 0000.0001)     ;
(PID.TID 0000.0001) GEOM_lmbda      = /* GEOM ene diss rate [/s] */
(PID.TID 0000.0001)                 1.160000000000000E-07
(PID.TID 0000.0001)     ;
(PID.TID 0000.0001) GEOM_diffKh_EKE = /* GEOM Eke diffusion coeff [m2/s] */
(PID.TID 0000.0001)                 5.000000000000000E+02
(PID.TID 0000.0001)     ;
(PID.TID 0000.0001) GEOM_vert_struc = /* GEOM vertical structure function */
(PID.TID 0000.0001)                   T
(PID.TID 0000.0001)     ;
(PID.TID 0000.0001) GEOM_vert_struc_min = /* vert struc min [-] */
(PID.TID 0000.0001)                 1.000000000000000E-01
(PID.TID 0000.0001)     ;
(PID.TID 0000.0001) GEOM_vert_struc_min = /* vert struc min [-] */
(PID.TID 0000.0001)                 1.000000000000000E+00
(PID.TID 0000.0001)     ;
(PID.TID 0000.0001) GEOM_minVal_K   = /* GEOM_K3d lower bound [m2/s] */
(PID.TID 0000.0001)                 5.000000000000000E+01
(PID.TID 0000.0001)     ;
(PID.TID 0000.0001) GEOM_maxVal_K   = /* GEOM_K3d upper bound [m2/s] */
(PID.TID 0000.0001)                 2.000000000000000E+04
(PID.TID 0000.0001)     ;
(PID.TID 0000.0001) GAD_CHECK: #define ALLOW_GENERIC_ADVDIFF
(PID.TID 0000.0001) // =======================================================
(PID.TID 0000.0001) // Check Model config. (CONFIG_CHECK):
(PID.TID 0000.0001) // CONFIG_CHECK : Normal End
(PID.TID 0000.0001) // =======================================================
(PID.TID 0000.0001) 
(PID.TID 0000.0001)  MDS_READ_META: opening file: pickup.0000036000.meta
(PID.TID 0000.0001)  nRecords =   0 ; filePrec =  64 ; fileIter =         0
(PID.TID 0000.0001)     nDims =   0 , dims:
(PID.TID 0000.0001)     nFlds =   0 , nFl3D =   0 , fields:
(PID.TID 0000.0001) missingVal=  1.00000000000000E+00 ; nTimRec =   0 , timeList:
(PID.TID 0000.0001)  MDS_READ_FIELD: opening global file: pickup.0000036000
(PID.TID 0000.0001)  MDS_READ_FIELD: opening global file: pickup.0000036000
(PID.TID 0000.0001)  MDS_READ_FIELD: opening global file: pickup.0000036000
(PID.TID 0000.0001)  MDS_READ_FIELD: opening global file: pickup.0000036000
(PID.TID 0000.0001)  MDS_READ_FIELD: opening global file: pickup.0000036000
(PID.TID 0000.0001)  MDS_READ_FIELD: opening global file: pickup.0000036000
(PID.TID 0000.0001)  MDS_READ_FIELD: opening global file: pickup.0000036000
(PID.TID 0000.0001)  MDS_READ_FIELD: opening global file: pickup.0000036000
(PID.TID 0000.0001)  MDS_READ_FIELD: opening global file: pickup.0000036000
(PID.TID 0000.0001)  MDS_READ_FIELD: opening global file: pickup.0000036000
(PID.TID 0000.0001)  MDS_READ_FIELD: opening global file: pickup.0000036000
(PID.TID 0000.0001) READ_MFLDS_CHECK: - normal end ; reset MFLDS file-name: pickup.0000036000
(PID.TID 0000.0001)  MDS_READ_FIELD: opening global file: taux_sl.bin
(PID.TID 0000.0001)  MDS_READ_FIELD: opening global file: sst_sl.bin
(PID.TID 0000.0001)  write diagnostics summary to file ioUnit:      6
Iter.Nb:     36000 ; Time(s):  3.1104000000000E+09
------------------------------------------------------------------------
2D/3D diagnostics: Number of lists:     2
------------------------------------------------------------------------
listId=    1 ; file name: surfDiag
 nFlds, nActive,       freq     &     phase        , nLev               
    9  |    9  |   -864000.000000    432000.000000 |   1
 levels:   1
 diag# | name   |   ipt  |  iMate | kLev|   count |   mate.C|           
    23 |ETAN    |      1 |      0 |   1 |       0 |
    25 |DETADT2 |      2 |      0 |   1 |       0 |
   214 |GEOMeE  |      3 |      0 |   1 |       0 |
   216 |GEOMEgen|      4 |      0 |   1 |       0 |
   217 |GEOMEdis|      5 |      0 |   1 |       0 |
   218 |GEOMEadv|      6 |      0 |   1 |       0 |
   219 |GEOMEwav|      7 |      0 |   1 |       0 |
   220 |GEOMElap|      8 |      0 |   1 |       0 |
   221 |GEOM_c1 |      9 |      0 |   1 |       0 |
------------------------------------------------------------------------
listId=    2 ; file name: oceDiag
 nFlds, nActive,       freq     &     phase        , nLev               
    9  |    9  |    864000.000000         0.000000 |  12
 levels:   2   3   4   5   6   7   8   9  10  11  12  13
 diag# | name   |   ipt  |  iMate | kLev|   count |   mate.C|           
    77 |DRHODR  |     10 |      0 |  15 |       0 |
    64 |RHOAnoma|     25 |      0 |  15 |       0 |
   213 |GM_GEOMK|     40 |      0 |  15 |       0 |
   215 |GEOMstru|     55 |      0 |  15 |       0 |
   204 |GM_PsiY |     70 |      0 |  15 |       0 |
   197 |GM_Kvy  |     85 |      0 |  15 |       0 |
   199 |GM_Kvz  |    100 |      0 |  15 |       0 |
   201 |GM_Kwy  |    115 |      0 |  15 |       0 |
   202 |GM_Kwz  |    130 |      0 |  15 |       0 |
------------------------------------------------------------------------
Global & Regional Statistics diagnostics: Number of lists:     1
------------------------------------------------------------------------
listId=   1 ; file name: dynStDiag
 nFlds, nActive,       freq     &     phase        |                    
    9  |    9  |   -864000.000000    -86400.000000 |
 Regions:   0
 diag# | name   |   ipt  |  iMate |    Volume   |   mate-Vol. |         
   214 |GEOMeE  |      1 |      0 | 0.00000E+00 |
   216 |GEOMEgen|      2 |      0 | 0.00000E+00 |
   217 |GEOMEdis|      3 |      0 | 0.00000E+00 |
   218 |GEOMEadv|      4 |      0 | 0.00000E+00 |
   219 |GEOMEwav|      5 |      0 | 0.00000E+00 |
   220 |GEOMElap|      6 |      0 | 0.00000E+00 |
   221 |GEOM_c1 |      7 |      0 | 0.00000E+00 |
   213 |GM_GEOMK|      8 |      0 | 0.00000E+00 |
   215 |GEOMstru|     23 |      0 | 0.00000E+00 |
------------------------------------------------------------------------
(PID.TID 0000.0001)  MDS_READ_FIELD: opening global file: pickup_cd.0000036000
(PID.TID 0000.0001)  MDS_READ_FIELD: opening global file: pickup_cd.0000036000
(PID.TID 0000.0001)  MDS_READ_FIELD: opening global file: pickup_cd.0000036000
(PID.TID 0000.0001)  MDS_READ_FIELD: opening global file: pickup_cd.0000036000
(PID.TID 0000.0001)  MDS_READ_FIELD: opening global file: pickup_cd.0000036000
(PID.TID 0000.0001)  nRecords =   0 ; filePrec =   0 ; fileIter =         0
(PID.TID 0000.0001)     nDims =   0 , dims:
(PID.TID 0000.0001)     nFlds =  -1 , nFl3D =   0 , fields:
(PID.TID 0000.0001) missingVal=  1.00000000000000E+00 ; nTimRec =   0 , timeList:
(PID.TID 0000.0001) READ_MFLDS_CHECK: - normal end ; reset MFLDS file-name: pickup_gmredi.0000036000
(PID.TID 0000.0001) // =======================================================
(PID.TID 0000.0001) // Model current state
(PID.TID 0000.0001) // =======================================================
(PID.TID 0000.0001) 
(PID.TID 0000.0001) // =======================================================
(PID.TID 0000.0001) // Begin MONITOR dynamic field statistics
(PID.TID 0000.0001) // =======================================================
(PID.TID 0000.0001) %MON time_tsnumber                =                 36000
(PID.TID 0000.0001) %MON time_secondsf                =   3.1104000000000E+09
(PID.TID 0000.0001) %MON dynstat_eta_max              =   1.6201005177854E+00
(PID.TID 0000.0001) %MON dynstat_eta_min              =  -3.9377441396023E+00
(PID.TID 0000.0001) %MON dynstat_eta_mean             =  -2.2337978401749E-16
(PID.TID 0000.0001) %MON dynstat_eta_sd               =   1.6563991723224E+00
(PID.TID 0000.0001) %MON dynstat_eta_del2             =   8.2898717888091E-03
(PID.TID 0000.0001) %MON dynstat_uvel_max             =   1.4272657430544E-01
(PID.TID 0000.0001) %MON dynstat_uvel_min             =  -3.8630916679110E-01
(PID.TID 0000.0001) %MON dynstat_uvel_mean            =   1.2659893360806E-02
(PID.TID 0000.0001) %MON dynstat_uvel_sd              =   3.8710511996223E-02
(PID.TID 0000.0001) %MON dynstat_uvel_del2            =   1.3225012120299E-04
(PID.TID 0000.0001) %MON dynstat_vvel_max             =   2.2999750655636E-02
(PID.TID 0000.0001) %MON dynstat_vvel_min             =  -2.2999750655604E-02
(PID.TID 0000.0001) %MON dynstat_vvel_mean            =   1.0386723279140E-15
(PID.TID 0000.0001) %MON dynstat_vvel_sd              =   1.5486266626369E-03
(PID.TID 0000.0001) %MON dynstat_vvel_del2            =   3.0853564726347E-05
(PID.TID 0000.0001) %MON dynstat_wvel_max             =   1.3691712526229E-06
(PID.TID 0000.0001) %MON dynstat_wvel_min             =  -8.1261601801594E-07
(PID.TID 0000.0001) %MON dynstat_wvel_mean            =   1.3909277297647E-23
(PID.TID 0000.0001) %MON dynstat_wvel_sd              =   2.5358259198888E-07
(PID.TID 0000.0001) %MON dynstat_wvel_del2            =   9.3390356470747E-09
(PID.TID 0000.0001) %MON dynstat_theta_max            =   2.6657021468384E+01
(PID.TID 0000.0001) %MON dynstat_theta_min            =  -9.3075890930299E-01
(PID.TID 0000.0001) %MON dynstat_theta_mean           =   2.2239378147708E+00
(PID.TID 0000.0001) %MON dynstat_theta_sd             =   3.9264791989428E+00
(PID.TID 0000.0001) %MON dynstat_theta_del2           =   1.3380453240852E-02
(PID.TID 0000.0001) %MON dynstat_salt_max             =   3.4700000000000E+01
(PID.TID 0000.0001) %MON dynstat_salt_min             =   3.4700000000000E+01
(PID.TID 0000.0001) %MON dynstat_salt_mean            =   3.4700000000000E+01
(PID.TID 0000.0001) %MON dynstat_salt_sd              =   7.1054273576010E-15
(PID.TID 0000.0001) %MON dynstat_salt_del2            =   0.0000000000000E+00
(PID.TID 0000.0001) %MON trAdv_CFL_u_max              =   0.0000000000000E+00
(PID.TID 0000.0001) %MON trAdv_CFL_v_max              =   0.0000000000000E+00
(PID.TID 0000.0001) %MON trAdv_CFL_w_max              =   0.0000000000000E+00
(PID.TID 0000.0001) %MON advcfl_uvel_max              =   1.0010587105295E-01
(PID.TID 0000.0001) %MON advcfl_vvel_max              =   5.9579769076500E-03
(PID.TID 0000.0001) %MON advcfl_wvel_max              =   1.9716066037770E-03
(PID.TID 0000.0001) %MON advcfl_W_hf_max              =   2.3659279245324E-03
(PID.TID 0000.0001) %MON pe_b_mean                    =   2.5880083768528E-03
(PID.TID 0000.0001) %MON ke_max                       =   7.4646746291426E-02
(PID.TID 0000.0001) %MON ke_mean                      =   8.3067694548141E-04
(PID.TID 0000.0001) %MON ke_vol                       =   2.1823819113454E+16
(PID.TID 0000.0001) %MON vort_r_min                   =  -1.7696079550502E-07
(PID.TID 0000.0001) %MON vort_r_max                   =   1.7696079550484E-07
(PID.TID 0000.0001) %MON vort_a_mean                  =   0.0000000000000E+00
(PID.TID 0000.0001) %MON vort_a_sd                    =   8.3492783019949E-05
(PID.TID 0000.0001) %MON vort_p_mean                  =   0.0000000000000E+00
(PID.TID 0000.0001) %MON vort_p_sd                    =   8.6788005162860E-05
(PID.TID 0000.0001) %MON surfExpan_theta_mean         =   8.7743901385969E-09
(PID.TID 0000.0001) %MON surfExpan_salt_mean          =  -6.3105052789025E-22
(PID.TID 0000.0001) // =======================================================
(PID.TID 0000.0001) // End MONITOR dynamic field statistics
(PID.TID 0000.0001) // =======================================================
(PID.TID 0000.0001) SOLVE_FOR_PRESSURE: putPmEinXvector =    F
 cg2d: Sum(rhs),rhsMax =   5.32907051820075E-15  1.48274215209469E+00
(PID.TID 0000.0001)      cg2d_init_res =   2.37439074302831E-03
(PID.TID 0000.0001)      cg2d_iters(min,last) =      -1      27
(PID.TID 0000.0001)      cg2d_last_res =   4.70653181899082E-18
(PID.TID 0000.0001) // =======================================================
(PID.TID 0000.0001) // Begin MONITOR dynamic field statistics
(PID.TID 0000.0001) // =======================================================
(PID.TID 0000.0001) %MON time_tsnumber                =                 36001
(PID.TID 0000.0001) %MON time_secondsf                =   3.1104864000000E+09
(PID.TID 0000.0001) %MON dynstat_eta_max              =   1.6197579170577E+00
(PID.TID 0000.0001) %MON dynstat_eta_min              =  -3.9378560706589E+00
(PID.TID 0000.0001) %MON dynstat_eta_mean             =  -5.2121949604080E-16
(PID.TID 0000.0001) %MON dynstat_eta_sd               =   1.6561523455920E+00
(PID.TID 0000.0001) %MON dynstat_eta_del2             =   8.2875508680172E-03
(PID.TID 0000.0001) %MON dynstat_uvel_max             =   1.4272482194427E-01
(PID.TID 0000.0001) %MON dynstat_uvel_min             =  -3.8630878499103E-01
(PID.TID 0000.0001) %MON dynstat_uvel_mean            =   1.2663283572500E-02
(PID.TID 0000.0001) %MON dynstat_uvel_sd              =   3.8711052389780E-02
(PID.TID 0000.0001) %MON dynstat_uvel_del2            =   1.3225389287797E-04
(PID.TID 0000.0001) %MON dynstat_vvel_max             =   2.3036901788254E-02
(PID.TID 0000.0001) %MON dynstat_vvel_min             =  -2.3036901788222E-02
(PID.TID 0000.0001) %MON dynstat_vvel_mean            =   9.5055794969760E-16
(PID.TID 0000.0001) %MON dynstat_vvel_sd              =   1.5499295000558E-03
(PID.TID 0000.0001) %MON dynstat_vvel_del2            =   3.0854078002705E-05
(PID.TID 0000.0001) %MON dynstat_wvel_max             =   1.4036135034579E-06
(PID.TID 0000.0001) %MON dynstat_wvel_min             =  -8.7718031987270E-07
(PID.TID 0000.0001) %MON dynstat_wvel_mean            =   1.4641344523839E-23
(PID.TID 0000.0001) %MON dynstat_wvel_sd              =   2.5756322370355E-07
(PID.TID 0000.0001) %MON dynstat_wvel_del2            =   9.3248347021035E-09
(PID.TID 0000.0001) %MON dynstat_theta_max            =   2.6657545077456E+01
(PID.TID 0000.0001) %MON dynstat_theta_min            =  -9.3092874547148E-01
(PID.TID 0000.0001) %MON dynstat_theta_mean           =   2.2239435285019E+00
(PID.TID 0000.0001) %MON dynstat_theta_sd             =   3.9265266021585E+00
(PID.TID 0000.0001) %MON dynstat_theta_del2           =   1.3381826812364E-02
(PID.TID 0000.0001) %MON dynstat_salt_max             =   3.4700000000000E+01
(PID.TID 0000.0001) %MON dynstat_salt_min             =   3.4700000000000E+01
(PID.TID 0000.0001) %MON dynstat_salt_mean            =   3.4700000000000E+01
(PID.TID 0000.0001) %MON dynstat_salt_sd              =   7.1054273576010E-15
(PID.TID 0000.0001) %MON dynstat_salt_del2            =   0.0000000000000E+00
(PID.TID 0000.0001) %MON trAdv_CFL_u_max              =   1.0011720826574E-01
(PID.TID 0000.0001) %MON trAdv_CFL_v_max              =   5.9012226739421E-03
(PID.TID 0000.0001) %MON trAdv_CFL_w_max              =   5.8853094029227E-03
(PID.TID 0000.0001) %MON advcfl_uvel_max              =   1.0010577211554E-01
(PID.TID 0000.0001) %MON advcfl_vvel_max              =   5.9676007332967E-03
(PID.TID 0000.0001) %MON advcfl_wvel_max              =   2.0212034449794E-03
(PID.TID 0000.0001) %MON advcfl_W_hf_max              =   2.4254441339753E-03
(PID.TID 0000.0001) %MON pe_b_mean                    =   2.5872371351592E-03
(PID.TID 0000.0001) %MON ke_max                       =   7.4646631385576E-02
(PID.TID 0000.0001) %MON ke_mean                      =   8.3074280692437E-04
(PID.TID 0000.0001) %MON ke_vol                       =   2.1823819113454E+16
(PID.TID 0000.0001) %MON vort_r_min                   =  -1.7696384836033E-07
(PID.TID 0000.0001) %MON vort_r_max                   =   1.7696384836015E-07
(PID.TID 0000.0001) %MON vort_a_mean                  =   0.0000000000000E+00
(PID.TID 0000.0001) %MON vort_a_sd                    =   8.3492783752788E-05
(PID.TID 0000.0001) %MON vort_p_mean                  =   0.0000000000000E+00
(PID.TID 0000.0001) %MON vort_p_sd                    =   8.6788005755102E-05
(PID.TID 0000.0001) %MON surfExpan_theta_mean         =  -8.6283812075682E-07
(PID.TID 0000.0001) %MON surfExpan_salt_mean          =   7.7667757278800E-22
(PID.TID 0000.0001) // =======================================================
(PID.TID 0000.0001) // End MONITOR dynamic field statistics
(PID.TID 0000.0001) // =======================================================
 cg2d: Sum(rhs),rhsMax =   1.24344978758018E-14  1.48217952273709E+00
(PID.TID 0000.0001)      cg2d_init_res =   3.73337394877749E-03
(PID.TID 0000.0001)      cg2d_iters(min,last) =      -1      27
(PID.TID 0000.0001)      cg2d_last_res =   1.31779686103729E-17
(PID.TID 0000.0001) // =======================================================
(PID.TID 0000.0001) // Begin MONITOR dynamic field statistics
(PID.TID 0000.0001) // =======================================================
(PID.TID 0000.0001) %MON time_tsnumber                =                 36002
(PID.TID 0000.0001) %MON time_secondsf                =   3.1105728000000E+09
(PID.TID 0000.0001) %MON dynstat_eta_max              =   1.6191783538662E+00
(PID.TID 0000.0001) %MON dynstat_eta_min              =  -3.9378507398895E+00
(PID.TID 0000.0001) %MON dynstat_eta_mean             =  -2.9783971202332E-16
(PID.TID 0000.0001) %MON dynstat_eta_sd               =   1.6556927140778E+00
(PID.TID 0000.0001) %MON dynstat_eta_del2             =   8.2838992460108E-03
(PID.TID 0000.0001) %MON dynstat_uvel_max             =   1.4272581157863E-01
(PID.TID 0000.0001) %MON dynstat_uvel_min             =  -3.8630829687787E-01
(PID.TID 0000.0001) %MON dynstat_uvel_mean            =   1.2669679380618E-02
(PID.TID 0000.0001) %MON dynstat_uvel_sd              =   3.8712187815514E-02
(PID.TID 0000.0001) %MON dynstat_uvel_del2            =   1.3225872280980E-04
(PID.TID 0000.0001) %MON dynstat_vvel_max             =   2.3076982250610E-02
(PID.TID 0000.0001) %MON dynstat_vvel_min             =  -2.3076982250578E-02
(PID.TID 0000.0001) %MON dynstat_vvel_mean            =   1.0475986081671E-15
(PID.TID 0000.0001) %MON dynstat_vvel_sd              =   1.5520272068790E-03
(PID.TID 0000.0001) %MON dynstat_vvel_del2            =   3.0855429415435E-05
(PID.TID 0000.0001) %MON dynstat_wvel_max             =   1.3279490083832E-06
(PID.TID 0000.0001) %MON dynstat_wvel_min             =  -9.3227280944555E-07
(PID.TID 0000.0001) %MON dynstat_wvel_mean            =   2.9282689047677E-23
(PID.TID 0000.0001) %MON dynstat_wvel_sd              =   2.7166346984657E-07
(PID.TID 0000.0001) %MON dynstat_wvel_del2            =   9.3542465403481E-09
(PID.TID 0000.0001) %MON dynstat_theta_max            =   2.6658422790997E+01
(PID.TID 0000.0001) %MON dynstat_theta_min            =  -9.3076934549257E-01
(PID.TID 0000.0001) %MON dynstat_theta_mean           =   2.2239631737945E+00
(PID.TID 0000.0001) %MON dynstat_theta_sd             =   3.9266184490317E+00
(PID.TID 0000.0001) %MON dynstat_theta_del2           =   1.3383283274559E-02
(PID.TID 0000.0001) %MON dynstat_salt_max             =   3.4700000000000E+01
(PID.TID 0000.0001) %MON dynstat_salt_min             =   3.4700000000000E+01
(PID.TID 0000.0001) %MON dynstat_salt_mean            =   3.4700000000000E+01
(PID.TID 0000.0001) %MON dynstat_salt_sd              =   7.1054273576010E-15
(PID.TID 0000.0001) %MON dynstat_salt_del2            =   0.0000000000000E+00
(PID.TID 0000.0001) %MON trAdv_CFL_u_max              =   1.0011708176454E-01
(PID.TID 0000.0001) %MON trAdv_CFL_v_max              =   5.9118301751764E-03
(PID.TID 0000.0001) %MON trAdv_CFL_w_max              =   7.1904879010236E-03
(PID.TID 0000.0001) %MON advcfl_uvel_max              =   1.0010564562878E-01
(PID.TID 0000.0001) %MON advcfl_vvel_max              =   5.9779833879935E-03
(PID.TID 0000.0001) %MON advcfl_wvel_max              =   1.9122465720718E-03
(PID.TID 0000.0001) %MON advcfl_W_hf_max              =   2.2946958864861E-03
(PID.TID 0000.0001) %MON pe_b_mean                    =   2.5858012639853E-03
(PID.TID 0000.0001) %MON ke_max                       =   7.4646506856213E-02
(PID.TID 0000.0001) %MON ke_mean                      =   8.3087102701929E-04
(PID.TID 0000.0001) %MON ke_vol                       =   2.1823819113454E+16
(PID.TID 0000.0001) %MON vort_r_min                   =  -1.7696877158886E-07
(PID.TID 0000.0001) %MON vort_r_max                   =   1.7696877158868E-07
(PID.TID 0000.0001) %MON vort_a_mean                  =   1.1144501822451E-20
(PID.TID 0000.0001) %MON vort_a_sd                    =   8.3492785114774E-05
(PID.TID 0000.0001) %MON vort_p_mean                  =   1.1213977667274E-20
(PID.TID 0000.0001) %MON vort_p_sd                    =   8.6788006977172E-05
(PID.TID 0000.0001) %MON surfExpan_theta_mean         =  -1.6272443078759E-06
(PID.TID 0000.0001) %MON surfExpan_salt_mean          =   2.2190787793943E-22
(PID.TID 0000.0001) // =======================================================
(PID.TID 0000.0001) // End MONITOR dynamic field statistics
(PID.TID 0000.0001) // =======================================================
 cg2d: Sum(rhs),rhsMax =   1.06581410364015E-14  1.48151462318250E+00
(PID.TID 0000.0001)      cg2d_init_res =   4.65284696147616E-03
(PID.TID 0000.0001)      cg2d_iters(min,last) =      -1      27
(PID.TID 0000.0001)      cg2d_last_res =   1.48225462165508E-17
(PID.TID 0000.0001) // =======================================================
(PID.TID 0000.0001) // Begin MONITOR dynamic field statistics
(PID.TID 0000.0001) // =======================================================
(PID.TID 0000.0001) %MON time_tsnumber                =                 36003
(PID.TID 0000.0001) %MON time_secondsf                =   3.1106592000000E+09
(PID.TID 0000.0001) %MON dynstat_eta_max              =   1.6184920696784E+00
(PID.TID 0000.0001) %MON dynstat_eta_min              =  -3.9375745625691E+00
(PID.TID 0000.0001) %MON dynstat_eta_mean             =  -4.4675956803497E-16
(PID.TID 0000.0001) %MON dynstat_eta_sd               =   1.6550638684379E+00
(PID.TID 0000.0001) %MON dynstat_eta_del2             =   8.2803218573724E-03
(PID.TID 0000.0001) %MON dynstat_uvel_max             =   1.4272860688676E-01
(PID.TID 0000.0001) %MON dynstat_uvel_min             =  -3.8630792905626E-01
(PID.TID 0000.0001) %MON dynstat_uvel_mean            =   1.2678801085393E-02
(PID.TID 0000.0001) %MON dynstat_uvel_sd              =   3.8713837125542E-02
(PID.TID 0000.0001) %MON dynstat_uvel_del2            =   1.3226408748594E-04
(PID.TID 0000.0001) %MON dynstat_vvel_max             =   2.3119840570908E-02
(PID.TID 0000.0001) %MON dynstat_vvel_min             =  -2.3119840570875E-02
(PID.TID 0000.0001) %MON dynstat_vvel_mean            =   1.1782255365574E-15
(PID.TID 0000.0001) %MON dynstat_vvel_sd              =   1.5544988204947E-03
(PID.TID 0000.0001) %MON dynstat_vvel_del2            =   3.0857681314313E-05
(PID.TID 0000.0001) %MON dynstat_wvel_max             =   1.2082330434728E-06
(PID.TID 0000.0001) %MON dynstat_wvel_min             =  -9.6295184556872E-07
(PID.TID 0000.0001) %MON dynstat_wvel_mean            =  -5.8565378095355E-24
(PID.TID 0000.0001) %MON dynstat_wvel_sd              =   2.8766954026238E-07
(PID.TID 0000.0001) %MON dynstat_wvel_del2            =   9.3552871995480E-09
(PID.TID 0000.0001) %MON dynstat_theta_max            =   2.6659665971417E+01
(PID.TID 0000.0001) %MON dynstat_theta_min            =  -9.3077022970137E-01
(PID.TID 0000.0001) %MON dynstat_theta_mean           =   2.2239943805307E+00
(PID.TID 0000.0001) %MON dynstat_theta_sd             =   3.9267471082097E+00
(PID.TID 0000.0001) %MON dynstat_theta_del2           =   1.3384370868128E-02
(PID.TID 0000.0001) %MON dynstat_salt_max             =   3.4700000000000E+01
(PID.TID 0000.0001) %MON dynstat_salt_min             =   3.4700000000000E+01
(PID.TID 0000.0001) %MON dynstat_salt_mean            =   3.4700000000000E+01
(PID.TID 0000.0001) %MON dynstat_salt_sd              =   7.1054273576010E-15
(PID.TID 0000.0001) %MON dynstat_salt_del2            =   0.0000000000000E+00
(PID.TID 0000.0001) %MON trAdv_CFL_u_max              =   1.0011698643853E-01
(PID.TID 0000.0001) %MON trAdv_CFL_v_max              =   6.3832539107905E-03
(PID.TID 0000.0001) %MON trAdv_CFL_w_max              =   8.1770062547618E-03
(PID.TID 0000.0001) %MON advcfl_uvel_max              =   1.0010555031367E-01
(PID.TID 0000.0001) %MON advcfl_vvel_max              =   5.9890856336855E-03
(PID.TID 0000.0001) %MON advcfl_wvel_max              =   1.7398555826008E-03
(PID.TID 0000.0001) %MON advcfl_W_hf_max              =   2.0878266991210E-03
(PID.TID 0000.0001) %MON pe_b_mean                    =   2.5838374200434E-03
(PID.TID 0000.0001) %MON ke_max                       =   7.4646441562745E-02
(PID.TID 0000.0001) %MON ke_mean                      =   8.3105433022853E-04
(PID.TID 0000.0001) %MON ke_vol                       =   2.1823819113454E+16
(PID.TID 0000.0001) %MON vort_r_min                   =  -1.7697517274943E-07
(PID.TID 0000.0001) %MON vort_r_max                   =   1.7697517274925E-07
(PID.TID 0000.0001) %MON vort_a_mean                  =   2.7861254556126E-21
(PID.TID 0000.0001) %MON vort_a_sd                    =   8.3492787031150E-05
(PID.TID 0000.0001) %MON vort_p_mean                  =   2.8034944168185E-21
(PID.TID 0000.0001) %MON vort_p_sd                    =   8.6788008793731E-05
(PID.TID 0000.0001) %MON surfExpan_theta_mean         =  -2.2547854160952E-06
(PID.TID 0000.0001) %MON surfExpan_salt_mean          =   6.6572363381829E-22
(PID.TID 0000.0001) // =======================================================
(PID.TID 0000.0001) // End MONITOR dynamic field statistics
(PID.TID 0000.0001) // =======================================================
 cg2d: Sum(rhs),rhsMax =   8.88178419700125E-15  1.48087096439108E+00
(PID.TID 0000.0001)      cg2d_init_res =   5.25924472681044E-03
(PID.TID 0000.0001)      cg2d_iters(min,last) =      -1      27
(PID.TID 0000.0001)      cg2d_last_res =   7.10142173750505E-18
(PID.TID 0000.0001) // =======================================================
(PID.TID 0000.0001) // Begin MONITOR dynamic field statistics
(PID.TID 0000.0001) // =======================================================
(PID.TID 0000.0001) %MON time_tsnumber                =                 36004
(PID.TID 0000.0001) %MON time_secondsf                =   3.1107456000000E+09
(PID.TID 0000.0001) %MON dynstat_eta_max              =   1.6178239095329E+00
(PID.TID 0000.0001) %MON dynstat_eta_min              =  -3.9369141174251E+00
(PID.TID 0000.0001) %MON dynstat_eta_mean             =  -3.7229964002914E-16
(PID.TID 0000.0001) %MON dynstat_eta_sd               =   1.6543110450193E+00
(PID.TID 0000.0001) %MON dynstat_eta_del2             =   8.2777111279356E-03
(PID.TID 0000.0001) %MON dynstat_uvel_max             =   1.4273220523095E-01
(PID.TID 0000.0001) %MON dynstat_uvel_min             =  -3.8630767894311E-01
(PID.TID 0000.0001) %MON dynstat_uvel_mean            =   1.2690251210543E-02
(PID.TID 0000.0001) %MON dynstat_uvel_sd              =   3.8715893470875E-02
(PID.TID 0000.0001) %MON dynstat_uvel_del2            =   1.3226913653509E-04
(PID.TID 0000.0001) %MON dynstat_vvel_max             =   2.3162984374698E-02
(PID.TID 0000.0001) %MON dynstat_vvel_min             =  -2.3162984374664E-02
(PID.TID 0000.0001) %MON dynstat_vvel_mean            =   1.3351660758894E-15
(PID.TID 0000.0001) %MON dynstat_vvel_sd              =   1.5569427313900E-03
(PID.TID 0000.0001) %MON dynstat_vvel_del2            =   3.0860792421791E-05
(PID.TID 0000.0001) %MON dynstat_wvel_max             =   1.1672266499176E-06
(PID.TID 0000.0001) %MON dynstat_wvel_min             =  -9.6660228589087E-07
(PID.TID 0000.0001) %MON dynstat_wvel_mean            =   1.7569613428606E-23
(PID.TID 0000.0001) %MON dynstat_wvel_sd              =   3.0204482601630E-07
(PID.TID 0000.0001) %MON dynstat_wvel_del2            =   9.3392208098446E-09
(PID.TID 0000.0001) %MON dynstat_theta_max            =   2.6661331984509E+01
(PID.TID 0000.0001) %MON dynstat_theta_min            =  -9.3077237508809E-01
(PID.TID 0000.0001) %MON dynstat_theta_mean           =   2.2240344886453E+00
(PID.TID 0000.0001) %MON dynstat_theta_sd             =   3.9269035258957E+00
(PID.TID 0000.0001) %MON dynstat_theta_del2           =   1.3385039460855E-02
(PID.TID 0000.0001) %MON dynstat_salt_max             =   3.4700000000000E+01
(PID.TID 0000.0001) %MON dynstat_salt_min             =   3.4700000000000E+01
(PID.TID 0000.0001) %MON dynstat_salt_mean            =   3.4700000000000E+01
(PID.TID 0000.0001) %MON dynstat_salt_sd              =   7.1054273576010E-15
(PID.TID 0000.0001) %MON dynstat_salt_del2            =   0.0000000000000E+00
(PID.TID 0000.0001) %MON trAdv_CFL_u_max              =   1.0011692161829E-01
(PID.TID 0000.0001) %MON trAdv_CFL_v_max              =   7.3813869411304E-03
(PID.TID 0000.0001) %MON trAdv_CFL_w_max              =   9.2372070764137E-03
(PID.TID 0000.0001) %MON advcfl_uvel_max              =   1.0010548550083E-01
(PID.TID 0000.0001) %MON advcfl_vvel_max              =   6.0002618325294E-03
(PID.TID 0000.0001) %MON advcfl_wvel_max              =   1.8427213135909E-03
(PID.TID 0000.0001) %MON advcfl_W_hf_max              =   2.0140519620895E-03
(PID.TID 0000.0001) %MON pe_b_mean                    =   2.5814873827240E-03
(PID.TID 0000.0001) %MON ke_max                       =   7.4646422602488E-02
(PID.TID 0000.0001) %MON ke_mean                      =   8.3128299186916E-04
(PID.TID 0000.0001) %MON ke_vol                       =   2.1823819113454E+16
(PID.TID 0000.0001) %MON vort_r_min                   =  -1.7698270870404E-07
(PID.TID 0000.0001) %MON vort_r_max                   =   1.7698270870386E-07
(PID.TID 0000.0001) %MON vort_a_mean                  =   2.7861254556126E-21
(PID.TID 0000.0001) %MON vort_a_sd                    =   8.3492789403986E-05
(PID.TID 0000.0001) %MON vort_p_mean                  =   2.8034944168185E-21
(PID.TID 0000.0001) %MON vort_p_sd                    =   8.6788011133943E-05
(PID.TID 0000.0001) %MON surfExpan_theta_mean         =  -2.7290159837487E-06
(PID.TID 0000.0001) %MON surfExpan_salt_mean          =   1.7752630235154E-21
(PID.TID 0000.0001) // =======================================================
(PID.TID 0000.0001) // End MONITOR dynamic field statistics
(PID.TID 0000.0001) // =======================================================
 cg2d: Sum(rhs),rhsMax =   1.24344978758018E-14  1.48034399509698E+00
(PID.TID 0000.0001)      cg2d_init_res =   5.64762822431343E-03
(PID.TID 0000.0001)      cg2d_iters(min,last) =      -1      27
(PID.TID 0000.0001)      cg2d_last_res =   9.31278867355746E-18
(PID.TID 0000.0001) // =======================================================
(PID.TID 0000.0001) // Begin MONITOR dynamic field statistics
(PID.TID 0000.0001) // =======================================================
(PID.TID 0000.0001) %MON time_tsnumber                =                 36005
(PID.TID 0000.0001) %MON time_secondsf                =   3.1108320000000E+09
(PID.TID 0000.0001) %MON dynstat_eta_max              =   1.6172643867157E+00
(PID.TID 0000.0001) %MON dynstat_eta_min              =  -3.9358005567784E+00
(PID.TID 0000.0001) %MON dynstat_eta_mean             =  -2.9783971202332E-16
(PID.TID 0000.0001) %MON dynstat_eta_sd               =   1.6534773381874E+00
(PID.TID 0000.0001) %MON dynstat_eta_del2             =   8.2764598716120E-03
(PID.TID 0000.0001) %MON dynstat_uvel_max             =   1.4273564003570E-01
(PID.TID 0000.0001) %MON dynstat_uvel_min             =  -3.8630751397539E-01
(PID.TID 0000.0001) %MON dynstat_uvel_mean            =   1.2703523857102E-02
(PID.TID 0000.0001) %MON dynstat_uvel_sd              =   3.8718226824150E-02
(PID.TID 0000.0001) %MON dynstat_uvel_del2            =   1.3227318733129E-04
(PID.TID 0000.0001) %MON dynstat_vvel_max             =   2.3202877359522E-02
(PID.TID 0000.0001) %MON dynstat_vvel_min             =  -2.3202877359488E-02
(PID.TID 0000.0001) %MON dynstat_vvel_mean            =   1.4651932118346E-15
(PID.TID 0000.0001) %MON dynstat_vvel_sd              =   1.5590219873687E-03
(PID.TID 0000.0001) %MON dynstat_vvel_del2            =   3.0864714633886E-05
(PID.TID 0000.0001) %MON dynstat_wvel_max             =   1.1968465438735E-06
(PID.TID 0000.0001) %MON dynstat_wvel_min             =  -1.0035678072588E-06
(PID.TID 0000.0001) %MON dynstat_wvel_mean            =   1.1713075619071E-23
(PID.TID 0000.0001) %MON dynstat_wvel_sd              =   3.1365575476883E-07
(PID.TID 0000.0001) %MON dynstat_wvel_del2            =   9.3196947104733E-09
(PID.TID 0000.0001) %MON dynstat_theta_max            =   2.6663386371453E+01
(PID.TID 0000.0001) %MON dynstat_theta_min            =  -9.3077474665030E-01
(PID.TID 0000.0001) %MON dynstat_theta_mean           =   2.2240807392794E+00
(PID.TID 0000.0001) %MON dynstat_theta_sd             =   3.9270781552915E+00
(PID.TID 0000.0001) %MON dynstat_theta_del2           =   1.3385370230555E-02
(PID.TID 0000.0001) %MON dynstat_salt_max             =   3.4700000000000E+01
(PID.TID 0000.0001) %MON dynstat_salt_min             =   3.4700000000000E+01
(PID.TID 0000.0001) %MON dynstat_salt_mean            =   3.4700000000000E+01
(PID.TID 0000.0001) %MON dynstat_salt_sd              =   7.1054273576010E-15
(PID.TID 0000.0001) %MON dynstat_salt_del2            =   0.0000000000000E+00
(PID.TID 0000.0001) %MON trAdv_CFL_u_max              =   1.0011687886464E-01
(PID.TID 0000.0001) %MON trAdv_CFL_v_max              =   7.8963156758284E-03
(PID.TID 0000.0001) %MON trAdv_CFL_w_max              =   9.6280986281888E-03
(PID.TID 0000.0001) %MON advcfl_uvel_max              =   1.0010544275207E-01
(PID.TID 0000.0001) %MON advcfl_vvel_max              =   6.0105959220558E-03
(PID.TID 0000.0001) %MON advcfl_wvel_max              =   1.9117458999656E-03
(PID.TID 0000.0001) %MON advcfl_W_hf_max              =   2.0642588957117E-03
(PID.TID 0000.0001) %MON pe_b_mean                    =   2.5788861048551E-03
(PID.TID 0000.0001) %MON ke_max                       =   7.4646431151117E-02
(PID.TID 0000.0001) %MON ke_mean                      =   8.3154510859312E-04
(PID.TID 0000.0001) %MON ke_vol                       =   2.1823819113454E+16
(PID.TID 0000.0001) %MON vort_r_min                   =  -1.7699113664219E-07
(PID.TID 0000.0001) %MON vort_r_max                   =   1.7699113664201E-07
(PID.TID 0000.0001) %MON vort_a_mean                  =  -2.7861254556126E-21
(PID.TID 0000.0001) %MON vort_a_sd                    =   8.3492792117297E-05
(PID.TID 0000.0001) %MON vort_p_mean                  =  -2.8034944168185E-21
(PID.TID 0000.0001) %MON vort_p_sd                    =   8.6788013906221E-05
(PID.TID 0000.0001) %MON surfExpan_theta_mean         =  -3.0440664353672E-06
(PID.TID 0000.0001) %MON surfExpan_salt_mean          =  -4.4381575587886E-22
(PID.TID 0000.0001) // =======================================================
(PID.TID 0000.0001) // End MONITOR dynamic field statistics
(PID.TID 0000.0001) // =======================================================
 cg2d: Sum(rhs),rhsMax =   7.10542735760100E-15  1.47997773327499E+00
(PID.TID 0000.0001)      cg2d_init_res =   5.86077471504580E-03
(PID.TID 0000.0001)      cg2d_iters(min,last) =      -1      27
(PID.TID 0000.0001)      cg2d_last_res =   1.24190930863513E-17
(PID.TID 0000.0001) // =======================================================
(PID.TID 0000.0001) // Begin MONITOR dynamic field statistics
(PID.TID 0000.0001) // =======================================================
(PID.TID 0000.0001) %MON time_tsnumber                =                 36006
(PID.TID 0000.0001) %MON time_secondsf                =   3.1109184000000E+09
(PID.TID 0000.0001) %MON dynstat_eta_max              =   1.6168511200014E+00
(PID.TID 0000.0001) %MON dynstat_eta_min              =  -3.9342309570490E+00
(PID.TID 0000.0001) %MON dynstat_eta_mean             =  -3.7229964002914E-16
(PID.TID 0000.0001) %MON dynstat_eta_sd               =   1.6526020400690E+00
(PID.TID 0000.0001) %MON dynstat_eta_del2             =   8.2765959435906E-03
(PID.TID 0000.0001) %MON dynstat_uvel_max             =   1.4273805493376E-01
(PID.TID 0000.0001) %MON dynstat_uvel_min             =  -3.8630739295258E-01
(PID.TID 0000.0001) %MON dynstat_uvel_mean            =   1.2718020941005E-02
(PID.TID 0000.0001) %MON dynstat_uvel_sd              =   3.8720689237417E-02
(PID.TID 0000.0001) %MON dynstat_uvel_del2            =   1.3227581724425E-04
(PID.TID 0000.0001) %MON dynstat_vvel_max             =   2.3236495488683E-02
(PID.TID 0000.0001) %MON dynstat_vvel_min             =  -2.3236495488648E-02
(PID.TID 0000.0001) %MON dynstat_vvel_mean            =   1.5586456506303E-15
(PID.TID 0000.0001) %MON dynstat_vvel_sd              =   1.5604831436432E-03
(PID.TID 0000.0001) %MON dynstat_vvel_del2            =   3.0869357340720E-05
(PID.TID 0000.0001) %MON dynstat_wvel_max             =   1.1991314829676E-06
(PID.TID 0000.0001) %MON dynstat_wvel_min             =  -1.0297636792347E-06
(PID.TID 0000.0001) %MON dynstat_wvel_mean            =  -2.9282689047677E-23
(PID.TID 0000.0001) %MON dynstat_wvel_sd              =   3.2174355041888E-07
(PID.TID 0000.0001) %MON dynstat_wvel_del2            =   9.3000385905899E-09
(PID.TID 0000.0001) %MON dynstat_theta_max            =   2.6665691322992E+01
(PID.TID 0000.0001) %MON dynstat_theta_min            =  -9.3077726955668E-01
(PID.TID 0000.0001) %MON dynstat_theta_mean           =   2.2241304181119E+00
(PID.TID 0000.0001) %MON dynstat_theta_sd             =   3.9272616077992E+00
(PID.TID 0000.0001) %MON dynstat_theta_del2           =   1.3385469436339E-02
(PID.TID 0000.0001) %MON dynstat_salt_max             =   3.4700000000000E+01
(PID.TID 0000.0001) %MON dynstat_salt_min             =   3.4700000000000E+01
(PID.TID 0000.0001) %MON dynstat_salt_mean            =   3.4700000000000E+01
(PID.TID 0000.0001) %MON dynstat_salt_sd              =   7.1054273576010E-15
(PID.TID 0000.0001) %MON dynstat_salt_del2            =   0.0000000000000E+00
(PID.TID 0000.0001) %MON trAdv_CFL_u_max              =   1.0011684749993E-01
(PID.TID 0000.0001) %MON trAdv_CFL_v_max              =   7.8718314226679E-03
(PID.TID 0000.0001) %MON trAdv_CFL_w_max              =   9.5763679446161E-03
(PID.TID 0000.0001) %MON advcfl_uvel_max              =   1.0010541139093E-01
(PID.TID 0000.0001) %MON advcfl_vvel_max              =   6.0193045398238E-03
(PID.TID 0000.0001) %MON advcfl_wvel_max              =   1.9787873195295E-03
(PID.TID 0000.0001) %MON advcfl_W_hf_max              =   2.0666712849356E-03
(PID.TID 0000.0001) %MON pe_b_mean                    =   2.5761564675830E-03
(PID.TID 0000.0001) %MON ke_max                       =   7.4646447873357E-02
(PID.TID 0000.0001) %MON ke_mean                      =   8.3182702204883E-04
(PID.TID 0000.0001) %MON ke_vol                       =   2.1823819113454E+16
(PID.TID 0000.0001) %MON vort_r_min                   =  -1.7700024501534E-07
(PID.TID 0000.0001) %MON vort_r_max                   =   1.7700024501517E-07
(PID.TID 0000.0001) %MON vort_a_mean                  =   0.0000000000000E+00
(PID.TID 0000.0001) %MON vort_a_sd                    =   8.3492795042572E-05
(PID.TID 0000.0001) %MON vort_p_mean                  =   0.0000000000000E+00
(PID.TID 0000.0001) %MON vort_p_sd                    =   8.6788016997097E-05
(PID.TID 0000.0001) %MON surfExpan_theta_mean         =  -3.2018137450800E-06
(PID.TID 0000.0001) %MON surfExpan_salt_mean          =   4.4381575587886E-22
(PID.TID 0000.0001) // =======================================================
(PID.TID 0000.0001) // End MONITOR dynamic field statistics
(PID.TID 0000.0001) // =======================================================
 Computing Diagnostic #     23  ETAN         Counter:       1   Parms: SM      M1      
 Computing Diagnostic #     25  DETADT2      Counter:       1   Parms: SM      M1      
 Computing Diagnostic #    214  GEOMeE       Counter:       1   Parms: SM P    M1      
 Computing Diagnostic #    216  GEOMEgen     Counter:       1   Parms: SM P    M1      
 Computing Diagnostic #    217  GEOMEdis     Counter:       1   Parms: SM      M1      
 Computing Diagnostic #    218  GEOMEadv     Counter:       1   Parms: SM      M1      
 Computing Diagnostic #    219  GEOMEwav     Counter:       1   Parms: SM      M1      
 Computing Diagnostic #    220  GEOMElap     Counter:       1   Parms: SM      M1      
 Computing Diagnostic #    221  GEOM_c1      Counter:       1   Parms: SM P    M1      
 cg2d: Sum(rhs),rhsMax =   7.10542735760100E-15  1.47975870918294E+00
(PID.TID 0000.0001)      cg2d_init_res =   5.86879000430899E-03
(PID.TID 0000.0001)      cg2d_iters(min,last) =      -1      27
(PID.TID 0000.0001)      cg2d_last_res =   1.03937231733644E-17
(PID.TID 0000.0001) // =======================================================
(PID.TID 0000.0001) // Begin MONITOR dynamic field statistics
(PID.TID 0000.0001) // =======================================================
(PID.TID 0000.0001) %MON time_tsnumber                =                 36007
(PID.TID 0000.0001) %MON time_secondsf                =   3.1110048000000E+09
(PID.TID 0000.0001) %MON dynstat_eta_max              =   1.6165698253676E+00
(PID.TID 0000.0001) %MON dynstat_eta_min              =  -3.9322793254012E+00
(PID.TID 0000.0001) %MON dynstat_eta_mean             =  -2.2337978401749E-16
(PID.TID 0000.0001) %MON dynstat_eta_sd               =   1.6517206394631E+00
(PID.TID 0000.0001) %MON dynstat_eta_del2             =   8.2778569255325E-03
(PID.TID 0000.0001) %MON dynstat_uvel_max             =   1.4273875541527E-01
(PID.TID 0000.0001) %MON dynstat_uvel_min             =  -3.8630727120080E-01
(PID.TID 0000.0001) %MON dynstat_uvel_mean            =   1.2733078140065E-02
(PID.TID 0000.0001) %MON dynstat_uvel_sd              =   3.8723120882889E-02
(PID.TID 0000.0001) %MON dynstat_uvel_del2            =   1.3227682599085E-04
(PID.TID 0000.0001) %MON dynstat_vvel_max             =   2.3262128734383E-02
(PID.TID 0000.0001) %MON dynstat_vvel_min             =  -2.3262128734348E-02
(PID.TID 0000.0001) %MON dynstat_vvel_mean            =   1.6324749033448E-15
(PID.TID 0000.0001) %MON dynstat_vvel_sd              =   1.5611759176642E-03
(PID.TID 0000.0001) %MON dynstat_vvel_del2            =   3.0874561772487E-05
(PID.TID 0000.0001) %MON dynstat_wvel_max             =   1.1818308890396E-06
(PID.TID 0000.0001) %MON dynstat_wvel_min             =  -1.0418816182390E-06
(PID.TID 0000.0001) %MON dynstat_wvel_mean            =  -4.6852302476284E-23
(PID.TID 0000.0001) %MON dynstat_wvel_sd              =   3.2530746303765E-07
(PID.TID 0000.0001) %MON dynstat_wvel_del2            =   9.2807405282026E-09
(PID.TID 0000.0001) %MON dynstat_theta_max            =   2.6668052363413E+01
(PID.TID 0000.0001) %MON dynstat_theta_min            =  -9.3077985376047E-01
(PID.TID 0000.0001) %MON dynstat_theta_mean           =   2.2241809511517E+00
(PID.TID 0000.0001) %MON dynstat_theta_sd             =   3.9274450444943E+00
(PID.TID 0000.0001) %MON dynstat_theta_del2           =   1.3385444988768E-02
(PID.TID 0000.0001) %MON dynstat_salt_max             =   3.4700000000000E+01
(PID.TID 0000.0001) %MON dynstat_salt_min             =   3.4700000000000E+01
(PID.TID 0000.0001) %MON dynstat_salt_mean            =   3.4700000000000E+01
(PID.TID 0000.0001) %MON dynstat_salt_sd              =   7.1054273576010E-15
(PID.TID 0000.0001) %MON dynstat_salt_del2            =   0.0000000000000E+00
(PID.TID 0000.0001) %MON trAdv_CFL_u_max              =   1.0011681594629E-01
(PID.TID 0000.0001) %MON trAdv_CFL_v_max              =   8.1777160076519E-03
(PID.TID 0000.0001) %MON trAdv_CFL_w_max              =   9.5247296590041E-03
(PID.TID 0000.0001) %MON advcfl_uvel_max              =   1.0010537984090E-01
(PID.TID 0000.0001) %MON advcfl_vvel_max              =   6.0259447111994E-03
(PID.TID 0000.0001) %MON advcfl_wvel_max              =   2.3419579775596E-03
(PID.TID 0000.0001) %MON advcfl_W_hf_max              =   2.0325023907779E-03
(PID.TID 0000.0001) %MON pe_b_mean                    =   2.5734092600796E-03
(PID.TID 0000.0001) %MON ke_max                       =   7.4646453681950E-02
(PID.TID 0000.0001) %MON ke_mean                      =   8.3211390034445E-04
(PID.TID 0000.0001) %MON ke_vol                       =   2.1823819113454E+16
(PID.TID 0000.0001) %MON vort_r_min                   =  -1.7700977574735E-07
(PID.TID 0000.0001) %MON vort_r_max                   =   1.7700977574717E-07
(PID.TID 0000.0001) %MON vort_a_mean                  =  -1.1144501822451E-20
(PID.TID 0000.0001) %MON vort_a_sd                    =   8.3492798044880E-05
(PID.TID 0000.0001) %MON vort_p_mean                  =  -1.1213977667274E-20
(PID.TID 0000.0001) %MON vort_p_sd                    =   8.6788020271030E-05
(PID.TID 0000.0001) %MON surfExpan_theta_mean         =  -3.2094217976187E-06
(PID.TID 0000.0001) %MON surfExpan_salt_mean          =   1.7752630235154E-21
(PID.TID 0000.0001) // =======================================================
(PID.TID 0000.0001) // End MONITOR dynamic field statistics
(PID.TID 0000.0001) // =======================================================
 cg2d: Sum(rhs),rhsMax =   1.06581410364015E-14  1.47963323061324E+00
(PID.TID 0000.0001)      cg2d_init_res =   5.62318705492703E-03
(PID.TID 0000.0001)      cg2d_iters(min,last) =      -1      27
(PID.TID 0000.0001)      cg2d_last_res =   1.68150914664480E-17
(PID.TID 0000.0001) // =======================================================
(PID.TID 0000.0001) // Begin MONITOR dynamic field statistics
(PID.TID 0000.0001) // =======================================================
(PID.TID 0000.0001) %MON time_tsnumber                =                 36008
(PID.TID 0000.0001) %MON time_secondsf                =   3.1110912000000E+09
(PID.TID 0000.0001) %MON dynstat_eta_max              =   1.6163733434142E+00
(PID.TID 0000.0001) %MON dynstat_eta_min              =  -3.9300884595221E+00
(PID.TID 0000.0001) %MON dynstat_eta_mean             =  -2.9783971202332E-16
(PID.TID 0000.0001) %MON dynstat_eta_sd               =   1.6508657518372E+00
(PID.TID 0000.0001) %MON dynstat_eta_del2             =   8.2797800158380E-03
(PID.TID 0000.0001) %MON dynstat_uvel_max             =   1.4273723123299E-01
(PID.TID 0000.0001) %MON dynstat_uvel_min             =  -3.8630710315040E-01
(PID.TID 0000.0001) %MON dynstat_uvel_mean            =   1.2747999411861E-02
(PID.TID 0000.0001) %MON dynstat_uvel_sd              =   3.8725356332852E-02
(PID.TID 0000.0001) %MON dynstat_uvel_del2            =   1.3227616922603E-04
(PID.TID 0000.0001) %MON dynstat_vvel_max             =   2.3279462233387E-02
(PID.TID 0000.0001) %MON dynstat_vvel_min             =  -2.3279462233353E-02
(PID.TID 0000.0001) %MON dynstat_vvel_mean            =   1.6601580637805E-15
(PID.TID 0000.0001) %MON dynstat_vvel_sd              =   1.5610748930679E-03
(PID.TID 0000.0001) %MON dynstat_vvel_del2            =   3.0880128097470E-05
(PID.TID 0000.0001) %MON dynstat_wvel_max             =   1.1502954441976E-06
(PID.TID 0000.0001) %MON dynstat_wvel_min             =  -1.0303953550779E-06
(PID.TID 0000.0001) %MON dynstat_wvel_mean            =  -2.3426151238142E-23
(PID.TID 0000.0001) %MON dynstat_wvel_sd              =   3.2362113980785E-07
(PID.TID 0000.0001) %MON dynstat_wvel_del2            =   9.2632307290472E-09
(PID.TID 0000.0001) %MON dynstat_theta_max            =   2.6670268168571E+01
(PID.TID 0000.0001) %MON dynstat_theta_min            =  -9.3078248239329E-01
(PID.TID 0000.0001) %MON dynstat_theta_mean           =   2.2242299667850E+00
(PID.TID 0000.0001) %MON dynstat_theta_sd             =   3.9276204284650E+00
(PID.TID 0000.0001) %MON dynstat_theta_del2           =   1.3385395910181E-02
(PID.TID 0000.0001) %MON dynstat_salt_max             =   3.4700000000000E+01
(PID.TID 0000.0001) %MON dynstat_salt_min             =   3.4700000000000E+01
(PID.TID 0000.0001) %MON dynstat_salt_mean            =   3.4700000000000E+01
(PID.TID 0000.0001) %MON dynstat_salt_sd              =   7.1054273576010E-15
(PID.TID 0000.0001) %MON dynstat_salt_del2            =   0.0000000000000E+00
(PID.TID 0000.0001) %MON trAdv_CFL_u_max              =   1.0011677239373E-01
(PID.TID 0000.0001) %MON trAdv_CFL_v_max              =   8.1694821032639E-03
(PID.TID 0000.0001) %MON trAdv_CFL_w_max              =   9.4729172338338E-03
(PID.TID 0000.0001) %MON advcfl_uvel_max              =   1.0010533629331E-01
(PID.TID 0000.0001) %MON advcfl_vvel_max              =   6.0304348723469E-03
(PID.TID 0000.0001) %MON advcfl_wvel_max              =   2.6290390550087E-03
(PID.TID 0000.0001) %MON advcfl_W_hf_max              =   1.9731677581494E-03
(PID.TID 0000.0001) %MON pe_b_mean                    =   2.5707460901036E-03
(PID.TID 0000.0001) %MON ke_max                       =   7.4646430586890E-02
(PID.TID 0000.0001) %MON ke_mean                      =   8.3239044606914E-04
(PID.TID 0000.0001) %MON ke_vol                       =   2.1823819113454E+16
(PID.TID 0000.0001) %MON vort_r_min                   =  -1.7701941190503E-07
(PID.TID 0000.0001) %MON vort_r_max                   =   1.7701941190485E-07
(PID.TID 0000.0001) %MON vort_a_mean                  =  -2.2289003644901E-20
(PID.TID 0000.0001) %MON vort_a_sd                    =   8.3492800989299E-05
(PID.TID 0000.0001) %MON vort_p_mean                  =  -2.2427955334548E-20
(PID.TID 0000.0001) %MON vort_p_sd                    =   8.6788023575284E-05
(PID.TID 0000.0001) %MON surfExpan_theta_mean         =  -3.0775499725587E-06
(PID.TID 0000.0001) %MON surfExpan_salt_mean          =   0.0000000000000E+00
(PID.TID 0000.0001) // =======================================================
(PID.TID 0000.0001) // End MONITOR dynamic field statistics
(PID.TID 0000.0001) // =======================================================
 cg2d: Sum(rhs),rhsMax =   1.06581410364015E-14  1.47953743134863E+00
(PID.TID 0000.0001)      cg2d_init_res =   5.10932173426716E-03
(PID.TID 0000.0001)      cg2d_iters(min,last) =      -1      27
(PID.TID 0000.0001)      cg2d_last_res =   5.23856015728512E-18
(PID.TID 0000.0001) // =======================================================
(PID.TID 0000.0001) // Begin MONITOR dynamic field statistics
(PID.TID 0000.0001) // =======================================================
(PID.TID 0000.0001) %MON time_tsnumber                =                 36009
(PID.TID 0000.0001) %MON time_secondsf                =   3.1111776000000E+09
(PID.TID 0000.0001) %MON dynstat_eta_max              =   1.6162077389742E+00
(PID.TID 0000.0001) %MON dynstat_eta_min              =  -3.9278451357184E+00
(PID.TID 0000.0001) %MON dynstat_eta_mean             =  -2.9783971202332E-16
(PID.TID 0000.0001) %MON dynstat_eta_sd               =   1.6500682088809E+00
(PID.TID 0000.0001) %MON dynstat_eta_del2             =   8.2818311773910E-03
(PID.TID 0000.0001) %MON dynstat_uvel_max             =   1.4273314556251E-01
(PID.TID 0000.0001) %MON dynstat_uvel_min             =  -3.8630684652171E-01
(PID.TID 0000.0001) %MON dynstat_uvel_mean            =   1.2762096901774E-02
(PID.TID 0000.0001) %MON dynstat_uvel_sd              =   3.8727230984398E-02
(PID.TID 0000.0001) %MON dynstat_uvel_del2            =   1.3227389092499E-04
(PID.TID 0000.0001) %MON dynstat_vvel_max             =   2.3289293741785E-02
(PID.TID 0000.0001) %MON dynstat_vvel_min             =  -2.3289293741751E-02
(PID.TID 0000.0001) %MON dynstat_vvel_mean            =   1.6411416934752E-15
(PID.TID 0000.0001) %MON dynstat_vvel_sd              =   1.5602863851099E-03
(PID.TID 0000.0001) %MON dynstat_vvel_del2            =   3.0885866659771E-05
(PID.TID 0000.0001) %MON dynstat_wvel_max             =   1.1096338119635E-06
(PID.TID 0000.0001) %MON dynstat_wvel_min             =  -9.8836987914447E-07
(PID.TID 0000.0001) %MON dynstat_wvel_mean            =  -4.0995764666748E-23
(PID.TID 0000.0001) %MON dynstat_wvel_sd              =   3.1688724391751E-07
(PID.TID 0000.0001) %MON dynstat_wvel_del2            =   9.2494889451070E-09
(PID.TID 0000.0001) %MON dynstat_theta_max            =   2.6672164646736E+01
(PID.TID 0000.0001) %MON dynstat_theta_min            =  -9.3078514989164E-01
(PID.TID 0000.0001) %MON dynstat_theta_mean           =   2.2242753401189E+00
(PID.TID 0000.0001) %MON dynstat_theta_sd             =   3.9277807296853E+00
(PID.TID 0000.0001) %MON dynstat_theta_del2           =   1.3385404436506E-02
(PID.TID 0000.0001) %MON dynstat_salt_max             =   3.4700000000000E+01
(PID.TID 0000.0001) %MON dynstat_salt_min             =   3.4700000000000E+01
(PID.TID 0000.0001) %MON dynstat_salt_mean            =   3.4700000000000E+01
(PID.TID 0000.0001) %MON dynstat_salt_sd              =   7.1054273576010E-15
(PID.TID 0000.0001) %MON dynstat_salt_del2            =   0.0000000000000E+00
(PID.TID 0000.0001) %MON trAdv_CFL_u_max              =   1.0011670588489E-01
(PID.TID 0000.0001) %MON trAdv_CFL_v_max              =   8.1599263318829E-03
(PID.TID 0000.0001) %MON trAdv_CFL_w_max              =   9.4207678584501E-03
(PID.TID 0000.0001) %MON advcfl_uvel_max              =   1.0010526979207E-01
(PID.TID 0000.0001) %MON advcfl_vvel_max              =   6.0329816782179E-03
(PID.TID 0000.0001) %MON advcfl_wvel_max              =   2.6919885645954E-03
(PID.TID 0000.0001) %MON advcfl_W_hf_max              =   1.8979650339508E-03
(PID.TID 0000.0001) %MON pe_b_mean                    =   2.5682628049753E-03
(PID.TID 0000.0001) %MON ke_max                       =   7.4646363306342E-02
(PID.TID 0000.0001) %MON ke_mean                      =   8.3264166214868E-04
(PID.TID 0000.0001) %MON ke_vol                       =   2.1823819113454E+16
(PID.TID 0000.0001) %MON vort_r_min                   =  -1.7702881576468E-07
(PID.TID 0000.0001) %MON vort_r_max                   =   1.7702881576450E-07
(PID.TID 0000.0001) %MON vort_a_mean                  =  -1.3930627278063E-20
(PID.TID 0000.0001) %MON vort_a_sd                    =   8.3492803747315E-05
(PID.TID 0000.0001) %MON vort_p_mean                  =  -1.4017472084093E-20
(PID.TID 0000.0001) %MON vort_p_sd                    =   8.6788026749461E-05
(PID.TID 0000.0001) %MON surfExpan_theta_mean         =  -2.8193834038765E-06
(PID.TID 0000.0001) %MON surfExpan_salt_mean          =   8.8763151175772E-22
(PID.TID 0000.0001) // =======================================================
(PID.TID 0000.0001) // End MONITOR dynamic field statistics
(PID.TID 0000.0001) // =======================================================
 cg2d: Sum(rhs),rhsMax =   1.42108547152020E-14  1.47942355090369E+00
(PID.TID 0000.0001)      cg2d_init_res =   4.36036774224332E-03
(PID.TID 0000.0001)      cg2d_iters(min,last) =      -1      27
(PID.TID 0000.0001)      cg2d_last_res =   3.36671558237614E-17
(PID.TID 0000.0001) // =======================================================
(PID.TID 0000.0001) // Begin MONITOR dynamic field statistics
(PID.TID 0000.0001) // =======================================================
(PID.TID 0000.0001) %MON time_tsnumber                =                 36010
(PID.TID 0000.0001) %MON time_secondsf                =   3.1112640000000E+09
(PID.TID 0000.0001) %MON dynstat_eta_max              =   1.6160336442727E+00
(PID.TID 0000.0001) %MON dynstat_eta_min              =  -3.9257467359313E+00
(PID.TID 0000.0001) %MON dynstat_eta_mean             =  -3.7229964002914E-16
(PID.TID 0000.0001) %MON dynstat_eta_sd               =   1.6493576715873E+00
(PID.TID 0000.0001) %MON dynstat_eta_del2             =   8.2835430736593E-03
(PID.TID 0000.0001) %MON dynstat_uvel_max             =   1.4272629836965E-01
(PID.TID 0000.0001) %MON dynstat_uvel_min             =  -3.8630646686759E-01
(PID.TID 0000.0001) %MON dynstat_uvel_mean            =   1.2774731883575E-02
(PID.TID 0000.0001) %MON dynstat_uvel_sd              =   3.8728587856885E-02
(PID.TID 0000.0001) %MON dynstat_uvel_del2            =   1.3227007697052E-04
(PID.TID 0000.0001) %MON dynstat_vvel_max             =   2.3293140990899E-02
(PID.TID 0000.0001) %MON dynstat_vvel_min             =  -2.3293140990866E-02
(PID.TID 0000.0001) %MON dynstat_vvel_mean            =   1.5769315945389E-15
(PID.TID 0000.0001) %MON dynstat_vvel_sd              =   1.5590268157312E-03
(PID.TID 0000.0001) %MON dynstat_vvel_del2            =   3.0891637927203E-05
(PID.TID 0000.0001) %MON dynstat_wvel_max             =   1.0631563019045E-06
(PID.TID 0000.0001) %MON dynstat_wvel_min             =  -9.3687774423918E-07
(PID.TID 0000.0001) %MON dynstat_wvel_mean            =  -1.1713075619071E-23
(PID.TID 0000.0001) %MON dynstat_wvel_sd              =   3.0640200229032E-07
(PID.TID 0000.0001) %MON dynstat_wvel_del2            =   9.2411147133230E-09
(PID.TID 0000.0001) %MON dynstat_theta_max            =   2.6673613291452E+01
(PID.TID 0000.0001) %MON dynstat_theta_min            =  -9.3078785438175E-01
(PID.TID 0000.0001) %MON dynstat_theta_mean           =   2.2243152254264E+00
(PID.TID 0000.0001) %MON dynstat_theta_sd             =   3.9279200927078E+00
(PID.TID 0000.0001) %MON dynstat_theta_del2           =   1.3385523447154E-02
(PID.TID 0000.0001) %MON dynstat_salt_max             =   3.4700000000000E+01
(PID.TID 0000.0001) %MON dynstat_salt_min             =   3.4700000000000E+01
(PID.TID 0000.0001) %MON dynstat_salt_mean            =   3.4700000000000E+01
(PID.TID 0000.0001) %MON dynstat_salt_sd              =   7.1054273576010E-15
(PID.TID 0000.0001) %MON dynstat_salt_del2            =   0.0000000000000E+00
(PID.TID 0000.0001) %MON trAdv_CFL_u_max              =   1.0011660749233E-01
(PID.TID 0000.0001) %MON trAdv_CFL_v_max              =   8.1489896652724E-03
(PID.TID 0000.0001) %MON trAdv_CFL_w_max              =   9.3678404642249E-03
(PID.TID 0000.0001) %MON advcfl_uvel_max              =   1.0010517141075E-01
(PID.TID 0000.0001) %MON advcfl_vvel_max              =   6.0339782899517E-03
(PID.TID 0000.0001) %MON advcfl_wvel_max              =   2.5180797446528E-03
(PID.TID 0000.0001) %MON advcfl_W_hf_max              =   1.8128564585413E-03
(PID.TID 0000.0001) %MON pe_b_mean                    =   2.5660514374771E-03
(PID.TID 0000.0001) %MON ke_max                       =   7.4646240762873E-02
(PID.TID 0000.0001) %MON ke_mean                      =   8.3285360819939E-04
(PID.TID 0000.0001) %MON ke_vol                       =   2.1823819113454E+16
(PID.TID 0000.0001) %MON vort_r_min                   =  -1.7703767558733E-07
(PID.TID 0000.0001) %MON vort_r_max                   =   1.7703767558716E-07
(PID.TID 0000.0001) %MON vort_a_mean                  =   1.3930627278063E-20
(PID.TID 0000.0001) %MON vort_a_sd                    =   8.3492806202811E-05
(PID.TID 0000.0001) %MON vort_p_mean                  =   1.4017472084093E-20
(PID.TID 0000.0001) %MON vort_p_sd                    =   8.6788029637907E-05
(PID.TID 0000.0001) %MON surfExpan_theta_mean         =  -2.4504192542854E-06
(PID.TID 0000.0001) %MON surfExpan_salt_mean          =   2.2190787793943E-22
(PID.TID 0000.0001) // =======================================================
(PID.TID 0000.0001) // End MONITOR dynamic field statistics
(PID.TID 0000.0001) // =======================================================
 Computing Diagnostic #     77  DRHODR       Counter:      10   Parms: SM      LR      
 Computing Diagnostic #     64  RHOAnoma     Counter:      10   Parms: SMR     MR      
 Computing Diagnostic #    213  GM_GEOMK     Counter:      10   Parms: SMRP    LR      
 Computing Diagnostic #    215  GEOMstru     Counter:      10   Parms: SMRP    LR      
 Computing Diagnostic #    204  GM_PsiY      Counter:      10   Parms: VV      LR      
           Vector  Mate for  GM_PsiY      Diagnostic #    203  GM_PsiX  not enabled
 Computing Diagnostic #    197  GM_Kvy       Counter:      10   Parms: VV P    MR      
           Vector  Mate for  GM_Kvy       Diagnostic #    196  GM_Kux   not enabled
 Computing Diagnostic #    199  GM_Kvz       Counter:      10   Parms: VV      MR      
           Vector  Mate for  GM_Kvz       Diagnostic #    198  GM_Kuz   not enabled
 Computing Diagnostic #    201  GM_Kwy       Counter:      10   Parms: VM      LR      
           Vector  Mate for  GM_Kwy       Diagnostic #    200  GM_Kwx   not enabled
 Computing Diagnostic #    202  GM_Kwz       Counter:      10   Parms: WM P    LR      
 Compute Stats, Diag. #    214  GEOMeE    vol(   0 ): 4.197E+12  Parms: SM P    M1      
 Compute Stats, Diag. #    216  GEOMEgen  vol(   0 ): 4.197E+12  Parms: SM P    M1      
 Compute Stats, Diag. #    217  GEOMEdis  vol(   0 ): 4.197E+12  Parms: SM      M1      
 Compute Stats, Diag. #    218  GEOMEadv  vol(   0 ): 4.197E+12  Parms: SM      M1      
 Compute Stats, Diag. #    219  GEOMEwav  vol(   0 ): 4.197E+12  Parms: SM      M1      
 Compute Stats, Diag. #    220  GEOMElap  vol(   0 ): 4.197E+12  Parms: SM      M1      
 Compute Stats, Diag. #    221  GEOM_c1   vol(   0 ): 4.197E+12  Parms: SM P    M1      
 Compute Stats, Diag. #    213  GM_GEOMK  vol(   0 ): 2.035E+16  Parms: SMRP    LR      
 Compute Stats, Diag. #    215  GEOMstru  vol(   0 ): 2.035E+16  Parms: SMRP    LR      
 cg2d: Sum(rhs),rhsMax =   1.42108547152020E-14  1.47927270195233E+00
(PID.TID 0000.0001)      cg2d_init_res =   3.44326523139508E-03
(PID.TID 0000.0001)      cg2d_iters(min,last) =      -1      27
(PID.TID 0000.0001)      cg2d_last_res =   1.15528899672662E-17
(PID.TID 0000.0001) // =======================================================
(PID.TID 0000.0001) // Begin MONITOR dynamic field statistics
(PID.TID 0000.0001) // =======================================================
(PID.TID 0000.0001) %MON time_tsnumber                =                 36011
(PID.TID 0000.0001) %MON time_secondsf                =   3.1113504000000E+09
(PID.TID 0000.0001) %MON dynstat_eta_max              =   1.6158367253673E+00
(PID.TID 0000.0001) %MON dynstat_eta_min              =  -3.9239689092823E+00
(PID.TID 0000.0001) %MON dynstat_eta_mean             =  -2.9783971202332E-16
(PID.TID 0000.0001) %MON dynstat_eta_sd               =   1.6487623905662E+00
(PID.TID 0000.0001) %MON dynstat_eta_del2             =   8.2846134392223E-03
(PID.TID 0000.0001) %MON dynstat_uvel_max             =   1.4271658202703E-01
(PID.TID 0000.0001) %MON dynstat_uvel_min             =  -3.8630594071564E-01
(PID.TID 0000.0001) %MON dynstat_uvel_mean            =   1.2785352233561E-02
(PID.TID 0000.0001) %MON dynstat_uvel_sd              =   3.8729285021537E-02
(PID.TID 0000.0001) %MON dynstat_uvel_del2            =   1.3226481723433E-04
(PID.TID 0000.0001) %MON dynstat_vvel_max             =   2.3292851695497E-02
(PID.TID 0000.0001) %MON dynstat_vvel_min             =  -2.3292851695465E-02
(PID.TID 0000.0001) %MON dynstat_vvel_mean            =   1.4537760853875E-15
(PID.TID 0000.0001) %MON dynstat_vvel_sd              =   1.5575745138724E-03
(PID.TID 0000.0001) %MON dynstat_vvel_del2            =   3.0897363767312E-05
(PID.TID 0000.0001) %MON dynstat_wvel_max             =   1.1168163182719E-06
(PID.TID 0000.0001) %MON dynstat_wvel_min             =  -8.7381712108698E-07
(PID.TID 0000.0001) %MON dynstat_wvel_mean            =  -5.8565378095355E-24
(PID.TID 0000.0001) %MON dynstat_wvel_sd              =   2.9419421088457E-07
(PID.TID 0000.0001) %MON dynstat_wvel_del2            =   9.2387232973598E-09
(PID.TID 0000.0001) %MON dynstat_theta_max            =   2.6674537843043E+01
(PID.TID 0000.0001) %MON dynstat_theta_min            =  -9.3079059469554E-01
(PID.TID 0000.0001) %MON dynstat_theta_mean           =   2.2243480924688E+00
(PID.TID 0000.0001) %MON dynstat_theta_sd             =   3.9280339818927E+00
(PID.TID 0000.0001) %MON dynstat_theta_del2           =   1.3385773877614E-02
(PID.TID 0000.0001) %MON dynstat_salt_max             =   3.4700000000000E+01
(PID.TID 0000.0001) %MON dynstat_salt_min             =   3.4700000000000E+01
(PID.TID 0000.0001) %MON dynstat_salt_mean            =   3.4700000000000E+01
(PID.TID 0000.0001) %MON dynstat_salt_sd              =   7.1054273576010E-15
(PID.TID 0000.0001) %MON dynstat_salt_del2            =   0.0000000000000E+00
(PID.TID 0000.0001) %MON trAdv_CFL_u_max              =   1.0011647113285E-01
(PID.TID 0000.0001) %MON trAdv_CFL_v_max              =   8.1368867364373E-03
(PID.TID 0000.0001) %MON trAdv_CFL_w_max              =   9.3143050758397E-03
(PID.TID 0000.0001) %MON advcfl_uvel_max              =   1.0010503506685E-01
(PID.TID 0000.0001) %MON advcfl_vvel_max              =   6.0339033493425E-03
(PID.TID 0000.0001) %MON advcfl_wvel_max              =   2.1333919788240E-03
(PID.TID 0000.0001) %MON advcfl_W_hf_max              =   1.9298585979738E-03
(PID.TID 0000.0001) %MON pe_b_mean                    =   2.5641995091878E-03
(PID.TID 0000.0001) %MON ke_max                       =   7.4646056806309E-02
(PID.TID 0000.0001) %MON ke_mean                      =   8.3301410253278E-04
(PID.TID 0000.0001) %MON ke_vol                       =   2.1823819113454E+16
(PID.TID 0000.0001) %MON vort_r_min                   =  -1.7704573698915E-07
(PID.TID 0000.0001) %MON vort_r_max                   =   1.7704573698897E-07
(PID.TID 0000.0001) %MON vort_a_mean                  =   8.3583763668379E-21
(PID.TID 0000.0001) %MON vort_a_sd                    =   8.3492808257305E-05
(PID.TID 0000.0001) %MON vort_p_mean                  =   8.4104832504555E-21
(PID.TID 0000.0001) %MON vort_p_sd                    =   8.6788032102348E-05
(PID.TID 0000.0001) %MON surfExpan_theta_mean         =  -1.9886959982474E-06
(PID.TID 0000.0001) %MON surfExpan_salt_mean          =   6.6572363381829E-22
(PID.TID 0000.0001) // =======================================================
(PID.TID 0000.0001) // End MONITOR dynamic field statistics
(PID.TID 0000.0001) // =======================================================
 cg2d: Sum(rhs),rhsMax =   1.06581410364015E-14  1.47909416191824E+00
(PID.TID 0000.0001)      cg2d_init_res =   2.43695988916985E-03
(PID.TID 0000.0001)      cg2d_iters(min,last) =      -1      27
(PID.TID 0000.0001)      cg2d_last_res =   1.07962378565408E-17
(PID.TID 0000.0001) // =======================================================
(PID.TID 0000.0001) // Begin MONITOR dynamic field statistics
(PID.TID 0000.0001) // =======================================================
(PID.TID 0000.0001) %MON time_tsnumber                =                 36012
(PID.TID 0000.0001) %MON time_secondsf                =   3.1114368000000E+09
(PID.TID 0000.0001) %MON dynstat_eta_max              =   1.6156275126648E+00
(PID.TID 0000.0001) %MON dynstat_eta_min              =  -3.9226415545940E+00
(PID.TID 0000.0001) %MON dynstat_eta_mean             =  -2.9783971202332E-16
(PID.TID 0000.0001) %MON dynstat_eta_sd               =   1.6483080476605E+00
(PID.TID 0000.0001) %MON dynstat_eta_del2             =   8.2849484193875E-03
(PID.TID 0000.0001) %MON dynstat_uvel_max             =   1.4270395020617E-01
(PID.TID 0000.0001) %MON dynstat_uvel_min             =  -3.8630525648413E-01
(PID.TID 0000.0001) %MON dynstat_uvel_mean            =   1.2793522718510E-02
(PID.TID 0000.0001) %MON dynstat_uvel_sd              =   3.8729203681771E-02
(PID.TID 0000.0001) %MON dynstat_uvel_del2            =   1.3225818408289E-04
(PID.TID 0000.0001) %MON dynstat_vvel_max             =   2.3290266388256E-02
(PID.TID 0000.0001) %MON dynstat_vvel_min             =  -2.3290266388227E-02
(PID.TID 0000.0001) %MON dynstat_vvel_mean            =   1.3190096058604E-15
(PID.TID 0000.0001) %MON dynstat_vvel_sd              =   1.5562096071849E-03
(PID.TID 0000.0001) %MON dynstat_vvel_del2            =   3.0903000459737E-05
(PID.TID 0000.0001) %MON dynstat_wvel_max             =   1.2129563844635E-06
(PID.TID 0000.0001) %MON dynstat_wvel_min             =  -8.5648291226969E-07
(PID.TID 0000.0001) %MON dynstat_wvel_mean            =  -1.1713075619071E-23
(PID.TID 0000.0001) %MON dynstat_wvel_sd              =   2.8240563290438E-07
(PID.TID 0000.0001) %MON dynstat_wvel_del2            =   9.2415711864471E-09
(PID.TID 0000.0001) %MON dynstat_theta_max            =   2.6674912546622E+01
(PID.TID 0000.0001) %MON dynstat_theta_min            =  -9.3079336988839E-01
(PID.TID 0000.0001) %MON dynstat_theta_mean           =   2.2243727684723E+00
(PID.TID 0000.0001) %MON dynstat_theta_sd             =   3.9281192613343E+00
(PID.TID 0000.0001) %MON dynstat_theta_del2           =   1.3386143783541E-02
(PID.TID 0000.0001) %MON dynstat_salt_max             =   3.4700000000000E+01
(PID.TID 0000.0001) %MON dynstat_salt_min             =   3.4700000000000E+01
(PID.TID 0000.0001) %MON dynstat_salt_mean            =   3.4700000000000E+01
(PID.TID 0000.0001) %MON dynstat_salt_sd              =   7.1054273576010E-15
(PID.TID 0000.0001) %MON dynstat_salt_del2            =   0.0000000000000E+00
(PID.TID 0000.0001) %MON trAdv_CFL_u_max              =   1.0011629380489E-01
(PID.TID 0000.0001) %MON trAdv_CFL_v_max              =   8.1218444123451E-03
(PID.TID 0000.0001) %MON trAdv_CFL_w_max              =   9.2603987408372E-03
(PID.TID 0000.0001) %MON advcfl_uvel_max              =   1.0010485775914E-01
(PID.TID 0000.0001) %MON advcfl_vvel_max              =   6.0332336376979E-03
(PID.TID 0000.0001) %MON advcfl_wvel_max              =   1.7466571936274E-03
(PID.TID 0000.0001) %MON advcfl_W_hf_max              =   2.0959886323529E-03
(PID.TID 0000.0001) %MON pe_b_mean                    =   2.5627864913488E-03
(PID.TID 0000.0001) %MON ke_max                       =   7.4645810005855E-02
(PID.TID 0000.0001) %MON ke_mean                      =   8.3311334407376E-04
(PID.TID 0000.0001) %MON ke_vol                       =   2.1823819113454E+16
(PID.TID 0000.0001) %MON vort_r_min                   =  -1.7705281586418E-07
(PID.TID 0000.0001) %MON vort_r_max                   =   1.7705281586400E-07
(PID.TID 0000.0001) %MON vort_a_mean                  =   0.0000000000000E+00
(PID.TID 0000.0001) %MON vort_a_sd                    =   8.3492809834127E-05
(PID.TID 0000.0001) %MON vort_p_mean                  =   0.0000000000000E+00
(PID.TID 0000.0001) %MON vort_p_sd                    =   8.6788034032418E-05
(PID.TID 0000.0001) %MON surfExpan_theta_mean         =  -1.4550823313011E-06
(PID.TID 0000.0001) %MON surfExpan_salt_mean          =   6.6572363381829E-22
(PID.TID 0000.0001) // =======================================================
(PID.TID 0000.0001) // End MONITOR dynamic field statistics
(PID.TID 0000.0001) // =======================================================
 cg2d: Sum(rhs),rhsMax =   1.06581410364015E-14  1.47891663144514E+00
(PID.TID 0000.0001)      cg2d_init_res =   1.42095148198334E-03
(PID.TID 0000.0001)      cg2d_iters(min,last) =      -1      27
(PID.TID 0000.0001)      cg2d_last_res =   1.84924399645594E-17
(PID.TID 0000.0001) // =======================================================
(PID.TID 0000.0001) // Begin MONITOR dynamic field statistics
(PID.TID 0000.0001) // =======================================================
(PID.TID 0000.0001) %MON time_tsnumber                =                 36013
(PID.TID 0000.0001) %MON time_secondsf                =   3.1115232000000E+09
(PID.TID 0000.0001) %MON dynstat_eta_max              =   1.6154342831456E+00
(PID.TID 0000.0001) %MON dynstat_eta_min              =  -3.9218367305031E+00
(PID.TID 0000.0001) %MON dynstat_eta_mean             =  -3.7229964002914E-16
(PID.TID 0000.0001) %MON dynstat_eta_sd               =   1.6480158968399E+00
(PID.TID 0000.0001) %MON dynstat_eta_del2             =   8.2846490999300E-03
(PID.TID 0000.0001) %MON dynstat_uvel_max             =   1.4268841432663E-01
(PID.TID 0000.0001) %MON dynstat_uvel_min             =  -3.8630441330201E-01
(PID.TID 0000.0001) %MON dynstat_uvel_mean            =   1.2798945703717E-02
(PID.TID 0000.0001) %MON dynstat_uvel_sd              =   3.8728256516340E-02
(PID.TID 0000.0001) %MON dynstat_uvel_del2            =   1.3225022879863E-04
(PID.TID 0000.0001) %MON dynstat_vvel_max             =   2.3286967028583E-02
(PID.TID 0000.0001) %MON dynstat_vvel_min             =  -2.3286967028555E-02
(PID.TID 0000.0001) %MON dynstat_vvel_mean            =   1.1295988038619E-15
(PID.TID 0000.0001) %MON dynstat_vvel_sd              =   1.5551595257728E-03
(PID.TID 0000.0001) %MON dynstat_vvel_del2            =   3.0908501917832E-05
(PID.TID 0000.0001) %MON dynstat_wvel_max             =   1.3073649550784E-06
(PID.TID 0000.0001) %MON dynstat_wvel_min             =  -8.6373656978374E-07
(PID.TID 0000.0001) %MON dynstat_wvel_mean            =   2.9282689047677E-24
(PID.TID 0000.0001) %MON dynstat_wvel_sd              =   2.7272818554306E-07
(PID.TID 0000.0001) %MON dynstat_wvel_del2            =   9.2477565219538E-09
(PID.TID 0000.0001) %MON dynstat_theta_max            =   2.6674754615898E+01
(PID.TID 0000.0001) %MON dynstat_theta_min            =  -9.3079617920158E-01
(PID.TID 0000.0001) %MON dynstat_theta_mean           =   2.2243884801326E+00
(PID.TID 0000.0001) %MON dynstat_theta_sd             =   3.9281742344140E+00
(PID.TID 0000.0001) %MON dynstat_theta_del2           =   1.3386601709337E-02
(PID.TID 0000.0001) %MON dynstat_salt_max             =   3.4700000000000E+01
(PID.TID 0000.0001) %MON dynstat_salt_min             =   3.4700000000000E+01
(PID.TID 0000.0001) %MON dynstat_salt_mean            =   3.4700000000000E+01
(PID.TID 0000.0001) %MON dynstat_salt_sd              =   7.1054273576010E-15
(PID.TID 0000.0001) %MON dynstat_salt_del2            =   0.0000000000000E+00
(PID.TID 0000.0001) %MON trAdv_CFL_u_max              =   1.0011607528271E-01
(PID.TID 0000.0001) %MON trAdv_CFL_v_max              =   8.1044768475607E-03
(PID.TID 0000.0001) %MON trAdv_CFL_w_max              =   9.2063870673831E-03
(PID.TID 0000.0001) %MON advcfl_uvel_max              =   1.0010463926192E-01
(PID.TID 0000.0001) %MON advcfl_vvel_max              =   6.0323789541390E-03
(PID.TID 0000.0001) %MON advcfl_wvel_max              =   1.8826055353129E-03
(PID.TID 0000.0001) %MON advcfl_W_hf_max              =   2.2591266423755E-03
(PID.TID 0000.0001) %MON pe_b_mean                    =   2.5618781006814E-03
(PID.TID 0000.0001) %MON ke_max                       =   7.4645502722216E-02
(PID.TID 0000.0001) %MON ke_mean                      =   8.3314443263671E-04
(PID.TID 0000.0001) %MON ke_vol                       =   2.1823819113454E+16
(PID.TID 0000.0001) %MON vort_r_min                   =  -1.7705879855098E-07
(PID.TID 0000.0001) %MON vort_r_max                   =   1.7705879855081E-07
(PID.TID 0000.0001) %MON vort_a_mean                  =  -5.5722509112253E-21
(PID.TID 0000.0001) %MON vort_a_sd                    =   8.3492810881345E-05
(PID.TID 0000.0001) %MON vort_p_mean                  =  -5.6069888336370E-21
(PID.TID 0000.0001) %MON vort_p_sd                    =   8.6788035352643E-05
(PID.TID 0000.0001) %MON surfExpan_theta_mean         =  -8.7329820346915E-07
(PID.TID 0000.0001) %MON surfExpan_salt_mean          =   0.0000000000000E+00
(PID.TID 0000.0001) // =======================================================
(PID.TID 0000.0001) // End MONITOR dynamic field statistics
(PID.TID 0000.0001) // =======================================================
 cg2d: Sum(rhs),rhsMax =   8.88178419700125E-15  1.47877700733764E+00
(PID.TID 0000.0001)      cg2d_init_res =   5.55766139669704E-04
(PID.TID 0000.0001)      cg2d_iters(min,last) =      -1      27
(PID.TID 0000.0001)      cg2d_last_res =   1.17428478989128E-17
(PID.TID 0000.0001) // =======================================================
(PID.TID 0000.0001) // Begin MONITOR dynamic field statistics
(PID.TID 0000.0001) // =======================================================
(PID.TID 0000.0001) %MON time_tsnumber                =                 36014
(PID.TID 0000.0001) %MON time_secondsf                =   3.1116096000000E+09
(PID.TID 0000.0001) %MON dynstat_eta_max              =   1.6152931100184E+00
(PID.TID 0000.0001) %MON dynstat_eta_min              =  -3.9215685657878E+00
(PID.TID 0000.0001) %MON dynstat_eta_mean             =  -3.7229964002914E-16
(PID.TID 0000.0001) %MON dynstat_eta_sd               =   1.6479006179356E+00
(PID.TID 0000.0001) %MON dynstat_eta_del2             =   8.2839543001493E-03
(PID.TID 0000.0001) %MON dynstat_uvel_max             =   1.4267006911476E-01
(PID.TID 0000.0001) %MON dynstat_uvel_min             =  -3.8630341840504E-01
(PID.TID 0000.0001) %MON dynstat_uvel_mean            =   1.2801471370919E-02
(PID.TID 0000.0001) %MON dynstat_uvel_sd              =   3.8726395486037E-02
(PID.TID 0000.0001) %MON dynstat_uvel_del2            =   1.3224099203018E-04
(PID.TID 0000.0001) %MON dynstat_vvel_max             =   2.3284139903730E-02
(PID.TID 0000.0001) %MON dynstat_vvel_min             =  -2.3284139903704E-02
(PID.TID 0000.0001) %MON dynstat_vvel_mean            =   9.1749386441726E-16
(PID.TID 0000.0001) %MON dynstat_vvel_sd              =   1.5545620772084E-03
(PID.TID 0000.0001) %MON dynstat_vvel_del2            =   3.0913783001078E-05
(PID.TID 0000.0001) %MON dynstat_wvel_max             =   1.3937084075824E-06
(PID.TID 0000.0001) %MON dynstat_wvel_min             =  -8.6122328028512E-07
(PID.TID 0000.0001) %MON dynstat_wvel_mean            =  -2.9282689047677E-24
(PID.TID 0000.0001) %MON dynstat_wvel_sd              =   2.6611885338144E-07
(PID.TID 0000.0001) %MON dynstat_wvel_del2            =   9.2548992942133E-09
(PID.TID 0000.0001) %MON dynstat_theta_max            =   2.6674113409989E+01
(PID.TID 0000.0001) %MON dynstat_theta_min            =  -9.3079902202034E-01
(PID.TID 0000.0001) %MON dynstat_theta_mean           =   2.2243948879688E+00
(PID.TID 0000.0001) %MON dynstat_theta_sd             =   3.9281987078114E+00
(PID.TID 0000.0001) %MON dynstat_theta_del2           =   1.3387095939351E-02
(PID.TID 0000.0001) %MON dynstat_salt_max             =   3.4700000000000E+01
(PID.TID 0000.0001) %MON dynstat_salt_min             =   3.4700000000000E+01
(PID.TID 0000.0001) %MON dynstat_salt_mean            =   3.4700000000000E+01
(PID.TID 0000.0001) %MON dynstat_salt_sd              =   7.1054273576010E-15
(PID.TID 0000.0001) %MON dynstat_salt_del2            =   0.0000000000000E+00
(PID.TID 0000.0001) %MON trAdv_CFL_u_max              =   1.0011581744154E-01
(PID.TID 0000.0001) %MON trAdv_CFL_v_max              =   8.0871927980795E-03
(PID.TID 0000.0001) %MON trAdv_CFL_w_max              =   9.1525357105214E-03
(PID.TID 0000.0001) %MON advcfl_uvel_max              =   1.0010438145021E-01
(PID.TID 0000.0001) %MON advcfl_vvel_max              =   6.0316466007826E-03
(PID.TID 0000.0001) %MON advcfl_wvel_max              =   2.0069401069186E-03
(PID.TID 0000.0001) %MON advcfl_W_hf_max              =   2.4083281283024E-03
(PID.TID 0000.0001) %MON pe_b_mean                    =   2.5615197058724E-03
(PID.TID 0000.0001) %MON ke_max                       =   7.4645139809873E-02
(PID.TID 0000.0001) %MON ke_mean                      =   8.3310375955079E-04
(PID.TID 0000.0001) %MON ke_vol                       =   2.1823819113454E+16
(PID.TID 0000.0001) %MON vort_r_min                   =  -1.7706363432673E-07
(PID.TID 0000.0001) %MON vort_r_max                   =   1.7706363432656E-07
(PID.TID 0000.0001) %MON vort_a_mean                  =  -5.5722509112253E-21
(PID.TID 0000.0001) %MON vort_a_sd                    =   8.3492811373316E-05
(PID.TID 0000.0001) %MON vort_p_mean                  =  -5.6069888336370E-21
(PID.TID 0000.0001) %MON vort_p_sd                    =   8.6788036025417E-05
(PID.TID 0000.0001) %MON surfExpan_theta_mean         =  -2.6947165819193E-07
(PID.TID 0000.0001) %MON surfExpan_salt_mean          =   1.9416939319700E-22
(PID.TID 0000.0001) // =======================================================
(PID.TID 0000.0001) // End MONITOR dynamic field statistics
(PID.TID 0000.0001) // =======================================================
 cg2d: Sum(rhs),rhsMax =   8.88178419700125E-15  1.47871024235983E+00
(PID.TID 0000.0001)      cg2d_init_res =   8.04672025607225E-04
(PID.TID 0000.0001)      cg2d_iters(min,last) =      -1      27
(PID.TID 0000.0001)      cg2d_last_res =   1.89299433782971E-17
(PID.TID 0000.0001) // =======================================================
(PID.TID 0000.0001) // Begin MONITOR dynamic field statistics
(PID.TID 0000.0001) // =======================================================
(PID.TID 0000.0001) %MON time_tsnumber                =                 36015
(PID.TID 0000.0001) %MON time_secondsf                =   3.1116960000000E+09
(PID.TID 0000.0001) %MON dynstat_eta_max              =   1.6152381766802E+00
(PID.TID 0000.0001) %MON dynstat_eta_min              =  -3.9218026356958E+00
(PID.TID 0000.0001) %MON dynstat_eta_mean             =  -4.4675956803497E-16
(PID.TID 0000.0001) %MON dynstat_eta_sd               =   1.6479683685277E+00
(PID.TID 0000.0001) %MON dynstat_eta_del2             =   8.2831633344177E-03
(PID.TID 0000.0001) %MON dynstat_uvel_max             =   1.4264913667767E-01
(PID.TID 0000.0001) %MON dynstat_uvel_min             =  -3.8630228398600E-01
(PID.TID 0000.0001) %MON dynstat_uvel_mean            =   1.2801097862690E-02
(PID.TID 0000.0001) %MON dynstat_uvel_sd              =   3.8723618043416E-02
(PID.TID 0000.0001) %MON dynstat_uvel_del2            =   1.3223052530892E-04
(PID.TID 0000.0001) %MON dynstat_vvel_max             =   2.3282527124870E-02
(PID.TID 0000.0001) %MON dynstat_vvel_min             =  -2.3282527124846E-02
(PID.TID 0000.0001) %MON dynstat_vvel_mean            =   6.9141671080304E-16
(PID.TID 0000.0001) %MON dynstat_vvel_sd              =   1.5544501154151E-03
(PID.TID 0000.0001) %MON dynstat_vvel_del2            =   3.0918705781381E-05
(PID.TID 0000.0001) %MON dynstat_wvel_max             =   1.4682167048160E-06
(PID.TID 0000.0001) %MON dynstat_wvel_min             =  -8.4852151284057E-07
(PID.TID 0000.0001) %MON dynstat_wvel_mean            =   4.3924033571516E-24
(PID.TID 0000.0001) %MON dynstat_wvel_sd              =   2.6281897025675E-07
(PID.TID 0000.0001) %MON dynstat_wvel_del2            =   9.2609579303025E-09
(PID.TID 0000.0001) %MON dynstat_theta_max            =   2.6673058701298E+01
(PID.TID 0000.0001) %MON dynstat_theta_min            =  -9.3080189815131E-01
(PID.TID 0000.0001) %MON dynstat_theta_mean           =   2.2243921057345E+00
(PID.TID 0000.0001) %MON dynstat_theta_sd             =   3.9281939375281E+00
(PID.TID 0000.0001) %MON dynstat_theta_del2           =   1.3387563827789E-02
(PID.TID 0000.0001) %MON dynstat_salt_max             =   3.4700000000000E+01
(PID.TID 0000.0001) %MON dynstat_salt_min             =   3.4700000000000E+01
(PID.TID 0000.0001) %MON dynstat_salt_mean            =   3.4700000000000E+01
(PID.TID 0000.0001) %MON dynstat_salt_sd              =   7.1054273576010E-15
(PID.TID 0000.0001) %MON dynstat_salt_del2            =   0.0000000000000E+00
(PID.TID 0000.0001) %MON trAdv_CFL_u_max              =   1.0011552344132E-01
(PID.TID 0000.0001) %MON trAdv_CFL_v_max              =   8.0704570308166E-03
(PID.TID 0000.0001) %MON trAdv_CFL_w_max              =   9.2114225015175E-03
(PID.TID 0000.0001) %MON advcfl_uvel_max              =   1.0010408748357E-01
(PID.TID 0000.0001) %MON advcfl_vvel_max              =   6.0312288180271E-03
(PID.TID 0000.0001) %MON advcfl_wvel_max              =   2.1142320549350E-03
(PID.TID 0000.0001) %MON advcfl_W_hf_max              =   2.5370784659221E-03
(PID.TID 0000.0001) %MON pe_b_mean                    =   2.5617303351327E-03
(PID.TID 0000.0001) %MON ke_max                       =   7.4644727306371E-02
(PID.TID 0000.0001) %MON ke_mean                      =   8.3299123556396E-04
(PID.TID 0000.0001) %MON ke_vol                       =   2.1823819113454E+16
(PID.TID 0000.0001) %MON vort_r_min                   =  -1.7706732474837E-07
(PID.TID 0000.0001) %MON vort_r_max                   =   1.7706732474819E-07
(PID.TID 0000.0001) %MON vort_a_mean                  =  -1.1144501822451E-20
(PID.TID 0000.0001) %MON vort_a_sd                    =   8.3492811310861E-05
(PID.TID 0000.0001) %MON vort_p_mean                  =  -1.1213977667274E-20
(PID.TID 0000.0001) %MON vort_p_sd                    =   8.6788036050265E-05
(PID.TID 0000.0001) %MON surfExpan_theta_mean         =   3.2882718690341E-07
(PID.TID 0000.0001) %MON surfExpan_salt_mean          =  -3.6060030165157E-22
(PID.TID 0000.0001) // =======================================================
(PID.TID 0000.0001) // End MONITOR dynamic field statistics
(PID.TID 0000.0001) // =======================================================
 cg2d: Sum(rhs),rhsMax =   3.55271367880050E-15  1.47874185662558E+00
(PID.TID 0000.0001)      cg2d_init_res =   1.63171917779869E-03
(PID.TID 0000.0001)      cg2d_iters(min,last) =      -1      27
(PID.TID 0000.0001)      cg2d_last_res =   6.24413791709455E-18
(PID.TID 0000.0001) // =======================================================
(PID.TID 0000.0001) // Begin MONITOR dynamic field statistics
(PID.TID 0000.0001) // =======================================================
(PID.TID 0000.0001) %MON time_tsnumber                =                 36016
(PID.TID 0000.0001) %MON time_secondsf                =   3.1117824000000E+09
(PID.TID 0000.0001) %MON dynstat_eta_max              =   1.6152941995983E+00
(PID.TID 0000.0001) %MON dynstat_eta_min              =  -3.9224708129173E+00
(PID.TID 0000.0001) %MON dynstat_eta_mean             =  -3.7229964002914E-16
(PID.TID 0000.0001) %MON dynstat_eta_sd               =   1.6482154682393E+00
(PID.TID 0000.0001) %MON dynstat_eta_del2             =   8.2825593154223E-03
(PID.TID 0000.0001) %MON dynstat_uvel_max             =   1.4262601195015E-01
(PID.TID 0000.0001) %MON dynstat_uvel_min             =  -3.8630102425718E-01
(PID.TID 0000.0001) %MON dynstat_uvel_mean            =   1.2797962735698E-02
(PID.TID 0000.0001) %MON dynstat_uvel_sd              =   3.8719970671963E-02
(PID.TID 0000.0001) %MON dynstat_uvel_del2            =   1.3221891413793E-04
(PID.TID 0000.0001) %MON dynstat_vvel_max             =   2.3282469699668E-02
(PID.TID 0000.0001) %MON dynstat_vvel_min             =  -2.3282469699644E-02
(PID.TID 0000.0001) %MON dynstat_vvel_mean            =   4.3710120245835E-16
(PID.TID 0000.0001) %MON dynstat_vvel_sd              =   1.5547562411741E-03
(PID.TID 0000.0001) %MON dynstat_vvel_del2            =   3.0923084380292E-05
(PID.TID 0000.0001) %MON dynstat_wvel_max             =   1.5293952925248E-06
(PID.TID 0000.0001) %MON dynstat_wvel_min             =  -8.2755490837714E-07
(PID.TID 0000.0001) %MON dynstat_wvel_mean            =   3.2943025178637E-24
(PID.TID 0000.0001) %MON dynstat_wvel_sd              =   2.6252267516480E-07
(PID.TID 0000.0001) %MON dynstat_wvel_del2            =   9.2647735451896E-09
(PID.TID 0000.0001) %MON dynstat_theta_max            =   2.6671670071613E+01
(PID.TID 0000.0001) %MON dynstat_theta_min            =  -9.3080480831342E-01
(PID.TID 0000.0001) %MON dynstat_theta_mean           =   2.2243806987313E+00
(PID.TID 0000.0001) %MON dynstat_theta_sd             =   3.9281624183095E+00
(PID.TID 0000.0001) %MON dynstat_theta_del2           =   1.3387965363681E-02
(PID.TID 0000.0001) %MON dynstat_salt_max             =   3.4700000000000E+01
(PID.TID 0000.0001) %MON dynstat_salt_min             =   3.4700000000000E+01
(PID.TID 0000.0001) %MON dynstat_salt_mean            =   3.4700000000000E+01
(PID.TID 0000.0001) %MON dynstat_salt_sd              =   7.1054273576010E-15
(PID.TID 0000.0001) %MON dynstat_salt_del2            =   0.0000000000000E+00
(PID.TID 0000.0001) %MON trAdv_CFL_u_max              =   1.0011519696536E-01
(PID.TID 0000.0001) %MON trAdv_CFL_v_max              =   8.0546339046580E-03
(PID.TID 0000.0001) %MON trAdv_CFL_w_max              =   9.3668701542411E-03
(PID.TID 0000.0001) %MON advcfl_uvel_max              =   1.0010376104490E-01
(PID.TID 0000.0001) %MON advcfl_vvel_max              =   6.0312139422994E-03
(PID.TID 0000.0001) %MON advcfl_wvel_max              =   2.2023292212358E-03
(PID.TID 0000.0001) %MON advcfl_W_hf_max              =   2.6427950654829E-03
(PID.TID 0000.0001) %MON pe_b_mean                    =   2.5624986147868E-03
(PID.TID 0000.0001) %MON ke_max                       =   7.4644271363620E-02
(PID.TID 0000.0001) %MON ke_mean                      =   8.3281032774689E-04
(PID.TID 0000.0001) %MON ke_vol                       =   2.1823819113454E+16
(PID.TID 0000.0001) %MON vort_r_min                   =  -1.7706991146717E-07
(PID.TID 0000.0001) %MON vort_r_max                   =   1.7706991146699E-07
(PID.TID 0000.0001) %MON vort_a_mean                  =   1.3930627278063E-20
(PID.TID 0000.0001) %MON vort_a_sd                    =   8.3492810720137E-05
(PID.TID 0000.0001) %MON vort_p_mean                  =   1.4017472084093E-20
(PID.TID 0000.0001) %MON vort_p_sd                    =   8.6788035460209E-05
(PID.TID 0000.0001) %MON surfExpan_theta_mean         =   8.9397830386504E-07
(PID.TID 0000.0001) %MON surfExpan_salt_mean          =   7.7667757278800E-22
(PID.TID 0000.0001) // =======================================================
(PID.TID 0000.0001) // End MONITOR dynamic field statistics
(PID.TID 0000.0001) // =======================================================
 Computing Diagnostic #     23  ETAN         Counter:       1   Parms: SM      M1      
 Computing Diagnostic #     25  DETADT2      Counter:       1   Parms: SM      M1      
 Computing Diagnostic #    214  GEOMeE       Counter:       1   Parms: SM P    M1      
 Computing Diagnostic #    216  GEOMEgen     Counter:       1   Parms: SM P    M1      
 Computing Diagnostic #    217  GEOMEdis     Counter:       1   Parms: SM      M1      
 Computing Diagnostic #    218  GEOMEadv     Counter:       1   Parms: SM      M1      
 Computing Diagnostic #    219  GEOMEwav     Counter:       1   Parms: SM      M1      
 Computing Diagnostic #    220  GEOMElap     Counter:       1   Parms: SM      M1      
 Computing Diagnostic #    221  GEOM_c1      Counter:       1   Parms: SM P    M1      
 cg2d: Sum(rhs),rhsMax =   1.77635683940025E-15  1.47888371252661E+00
(PID.TID 0000.0001)      cg2d_init_res =   2.41627514532101E-03
(PID.TID 0000.0001)      cg2d_iters(min,last) =      -1      27
(PID.TID 0000.0001)      cg2d_last_res =   9.10639969438925E-18
(PID.TID 0000.0001) // =======================================================
(PID.TID 0000.0001) // Begin MONITOR dynamic field statistics
(PID.TID 0000.0001) // =======================================================
(PID.TID 0000.0001) %MON time_tsnumber                =                 36017
(PID.TID 0000.0001) %MON time_secondsf                =   3.1118688000000E+09
(PID.TID 0000.0001) %MON dynstat_eta_max              =   1.6154718718816E+00
(PID.TID 0000.0001) %MON dynstat_eta_min              =  -3.9234872863065E+00
(PID.TID 0000.0001) %MON dynstat_eta_mean             =  -3.7229964002914E-16
(PID.TID 0000.0001) %MON dynstat_eta_sd               =   1.6486280071485E+00
(PID.TID 0000.0001) %MON dynstat_eta_del2             =   8.2823497304295E-03
(PID.TID 0000.0001) %MON dynstat_uvel_max             =   1.4260129266388E-01
(PID.TID 0000.0001) %MON dynstat_uvel_min             =  -3.8629965322318E-01
(PID.TID 0000.0001) %MON dynstat_uvel_mean            =   1.2792327624557E-02
(PID.TID 0000.0001) %MON dynstat_uvel_sd              =   3.8715548921246E-02
(PID.TID 0000.0001) %MON dynstat_uvel_del2            =   1.3220629511332E-04
(PID.TID 0000.0001) %MON dynstat_vvel_max             =   2.3284008842374E-02
(PID.TID 0000.0001) %MON dynstat_vvel_min             =  -2.3284008842351E-02
(PID.TID 0000.0001) %MON dynstat_vvel_mean            =   1.6753031741833E-16
(PID.TID 0000.0001) %MON dynstat_vvel_sd              =   1.5553334721029E-03
(PID.TID 0000.0001) %MON dynstat_vvel_del2            =   3.0926702924290E-05
(PID.TID 0000.0001) %MON dynstat_wvel_max             =   1.5774038081925E-06
(PID.TID 0000.0001) %MON dynstat_wvel_min             =  -8.0333683421184E-07
(PID.TID 0000.0001) %MON dynstat_wvel_mean            =  -7.3206722619193E-25
(PID.TID 0000.0001) %MON dynstat_wvel_sd              =   2.6452914958954E-07
(PID.TID 0000.0001) %MON dynstat_wvel_del2            =   9.2662566748086E-09
(PID.TID 0000.0001) %MON dynstat_theta_max            =   2.6670028784369E+01
(PID.TID 0000.0001) %MON dynstat_theta_min            =  -9.3080775273443E-01
(PID.TID 0000.0001) %MON dynstat_theta_mean           =   2.2243616566314E+00
(PID.TID 0000.0001) %MON dynstat_theta_sd             =   3.9281077606564E+00
(PID.TID 0000.0001) %MON dynstat_theta_del2           =   1.3388277468261E-02
(PID.TID 0000.0001) %MON dynstat_salt_max             =   3.4700000000000E+01
(PID.TID 0000.0001) %MON dynstat_salt_min             =   3.4700000000000E+01
(PID.TID 0000.0001) %MON dynstat_salt_mean            =   3.4700000000000E+01
(PID.TID 0000.0001) %MON dynstat_salt_sd              =   7.1054273576010E-15
(PID.TID 0000.0001) %MON dynstat_salt_del2            =   0.0000000000000E+00
(PID.TID 0000.0001) %MON trAdv_CFL_u_max              =   1.0011484164314E-01
(PID.TID 0000.0001) %MON trAdv_CFL_v_max              =   8.0399037291196E-03
(PID.TID 0000.0001) %MON trAdv_CFL_w_max              =   9.4817649226336E-03
(PID.TID 0000.0001) %MON advcfl_uvel_max              =   1.0010340576326E-01
(PID.TID 0000.0001) %MON advcfl_vvel_max              =   6.0316126499566E-03
(PID.TID 0000.0001) %MON advcfl_wvel_max              =   2.2714614837971E-03
(PID.TID 0000.0001) %MON advcfl_W_hf_max              =   2.7257537805566E-03
(PID.TID 0000.0001) %MON pe_b_mean                    =   2.5637815328282E-03
(PID.TID 0000.0001) %MON ke_max                       =   7.4643777551081E-02
(PID.TID 0000.0001) %MON ke_mean                      =   8.3256789129749E-04
(PID.TID 0000.0001) %MON ke_vol                       =   2.1823819113454E+16
(PID.TID 0000.0001) %MON vort_r_min                   =  -1.7707146410355E-07
(PID.TID 0000.0001) %MON vort_r_max                   =   1.7707146410337E-07
(PID.TID 0000.0001) %MON vort_a_mean                  =   5.5722509112253E-21
(PID.TID 0000.0001) %MON vort_a_sd                    =   8.3492809650341E-05
(PID.TID 0000.0001) %MON vort_p_mean                  =   5.6069888336370E-21
(PID.TID 0000.0001) %MON vort_p_sd                    =   8.6788034316278E-05
(PID.TID 0000.0001) %MON surfExpan_theta_mean         =   1.3999440550789E-06
(PID.TID 0000.0001) %MON surfExpan_salt_mean          =  -2.2190787793943E-22
(PID.TID 0000.0001) // =======================================================
(PID.TID 0000.0001) // End MONITOR dynamic field statistics
(PID.TID 0000.0001) // =======================================================
 cg2d: Sum(rhs),rhsMax =   8.88178419700125E-15  1.47913274834564E+00
(PID.TID 0000.0001)      cg2d_init_res =   3.08782987688611E-03
(PID.TID 0000.0001)      cg2d_iters(min,last) =      -1      26
(PID.TID 0000.0001)      cg2d_last_res =   9.66024610404911E-13
(PID.TID 0000.0001) // =======================================================
(PID.TID 0000.0001) // Begin MONITOR dynamic field statistics
(PID.TID 0000.0001) // =======================================================
(PID.TID 0000.0001) %MON time_tsnumber                =                 36018
(PID.TID 0000.0001) %MON time_secondsf                =   3.1119552000000E+09
(PID.TID 0000.0001) %MON dynstat_eta_max              =   1.6157664754860E+00
(PID.TID 0000.0001) %MON dynstat_eta_min              =  -3.9247621355515E+00
(PID.TID 0000.0001) %MON dynstat_eta_mean             =  -2.9783971202332E-16
(PID.TID 0000.0001) %MON dynstat_eta_sd               =   1.6491824831929E+00
(PID.TID 0000.0001) %MON dynstat_eta_del2             =   8.2826338996944E-03
(PID.TID 0000.0001) %MON dynstat_uvel_max             =   1.4257578285099E-01
(PID.TID 0000.0001) %MON dynstat_uvel_min             =  -3.8629818335944E-01
(PID.TID 0000.0001) %MON dynstat_uvel_mean            =   1.2784558112543E-02
(PID.TID 0000.0001) %MON dynstat_uvel_sd              =   3.8710493549268E-02
(PID.TID 0000.0001) %MON dynstat_uvel_del2            =   1.3219286310108E-04
(PID.TID 0000.0001) %MON dynstat_vvel_max             =   2.3287007260824E-02
(PID.TID 0000.0001) %MON dynstat_vvel_min             =  -2.3287007260802E-02
(PID.TID 0000.0001) %MON dynstat_vvel_mean            =  -9.7166376089742E-17
(PID.TID 0000.0001) %MON dynstat_vvel_sd              =   1.5559874193827E-03
(PID.TID 0000.0001) %MON dynstat_vvel_del2            =   3.0929344762999E-05
(PID.TID 0000.0001) %MON dynstat_wvel_max             =   1.6133268912818E-06
(PID.TID 0000.0001) %MON dynstat_wvel_min             =  -7.8348989435764E-07
(PID.TID 0000.0001) %MON dynstat_wvel_mean            =   4.3924033571516E-24
(PID.TID 0000.0001) %MON dynstat_wvel_sd              =   2.6784855602457E-07
(PID.TID 0000.0001) %MON dynstat_wvel_del2            =   9.2661602606865E-09
(PID.TID 0000.0001) %MON dynstat_theta_max            =   2.6668212677845E+01
(PID.TID 0000.0001) %MON dynstat_theta_min            =  -9.3081072772683E-01
(PID.TID 0000.0001) %MON dynstat_theta_mean           =   2.2243363401129E+00
(PID.TID 0000.0001) %MON dynstat_theta_sd             =   3.9280344506298E+00
(PID.TID 0000.0001) %MON dynstat_theta_del2           =   1.3388500164863E-02
(PID.TID 0000.0001) %MON dynstat_salt_max             =   3.4700000000000E+01
(PID.TID 0000.0001) %MON dynstat_salt_min             =   3.4700000000000E+01
(PID.TID 0000.0001) %MON dynstat_salt_mean            =   3.4700000000000E+01
(PID.TID 0000.0001) %MON dynstat_salt_sd              =   7.1054273576010E-15
(PID.TID 0000.0001) %MON dynstat_salt_del2            =   0.0000000000000E+00
(PID.TID 0000.0001) %MON trAdv_CFL_u_max              =   1.0011446070783E-01
(PID.TID 0000.0001) %MON trAdv_CFL_v_max              =   8.0263123862217E-03
(PID.TID 0000.0001) %MON trAdv_CFL_w_max              =   9.5541611268206E-03
(PID.TID 0000.0001) %MON advcfl_uvel_max              =   1.0010302487147E-01
(PID.TID 0000.0001) %MON advcfl_vvel_max              =   6.0323893761114E-03
(PID.TID 0000.0001) %MON advcfl_wvel_max              =   2.3231907234457E-03
(PID.TID 0000.0001) %MON advcfl_W_hf_max              =   2.7878288681349E-03
(PID.TID 0000.0001) %MON pe_b_mean                    =   2.5655063543037E-03
(PID.TID 0000.0001) %MON ke_max                       =   7.4643250543194E-02
(PID.TID 0000.0001) %MON ke_mean                      =   8.3227380177457E-04
(PID.TID 0000.0001) %MON ke_vol                       =   2.1823819113454E+16
(PID.TID 0000.0001) %MON vort_r_min                   =  -1.7707206947003E-07
(PID.TID 0000.0001) %MON vort_r_max                   =   1.7707206946985E-07
(PID.TID 0000.0001) %MON vort_a_mean                  =   0.0000000000000E+00
(PID.TID 0000.0001) %MON vort_a_sd                    =   8.3492808170437E-05
(PID.TID 0000.0001) %MON vort_p_mean                  =   0.0000000000000E+00
(PID.TID 0000.0001) %MON vort_p_sd                    =   8.6788032701221E-05
(PID.TID 0000.0001) %MON surfExpan_theta_mean         =   1.8239136206713E-06
(PID.TID 0000.0001) %MON surfExpan_salt_mean          =  -4.4381575587886E-22
(PID.TID 0000.0001) // =======================================================
(PID.TID 0000.0001) // End MONITOR dynamic field statistics
(PID.TID 0000.0001) // =======================================================
 cg2d: Sum(rhs),rhsMax =   8.88178419700125E-15  1.47947249178514E+00
(PID.TID 0000.0001)      cg2d_init_res =   3.61023060602713E-03
(PID.TID 0000.0001)      cg2d_iters(min,last) =      -1      26
(PID.TID 0000.0001)      cg2d_last_res =   8.99964105884254E-13
(PID.TID 0000.0001) // =======================================================
(PID.TID 0000.0001) // Begin MONITOR dynamic field statistics
(PID.TID 0000.0001) // =======================================================
(PID.TID 0000.0001) %MON time_tsnumber                =                 36019
(PID.TID 0000.0001) %MON time_secondsf                =   3.1120416000000E+09
(PID.TID 0000.0001) %MON dynstat_eta_max              =   1.6161593442091E+00
(PID.TID 0000.0001) %MON dynstat_eta_min              =  -3.9262102757773E+00
(PID.TID 0000.0001) %MON dynstat_eta_mean             =  -2.9783971202332E-16
(PID.TID 0000.0001) %MON dynstat_eta_sd               =   1.6498473897988E+00
(PID.TID 0000.0001) %MON dynstat_eta_del2             =   8.2833989875150E-03
(PID.TID 0000.0001) %MON dynstat_uvel_max             =   1.4255046632956E-01
(PID.TID 0000.0001) %MON dynstat_uvel_min             =  -3.8629662514952E-01
(PID.TID 0000.0001) %MON dynstat_uvel_mean            =   1.2775100590593E-02
(PID.TID 0000.0001) %MON dynstat_uvel_sd              =   3.8704982926476E-02
(PID.TID 0000.0001) %MON dynstat_uvel_del2            =   1.3217886706637E-04
(PID.TID 0000.0001) %MON dynstat_vvel_max             =   2.3291261163540E-02
(PID.TID 0000.0001) %MON dynstat_vvel_min             =  -2.3291261163518E-02
(PID.TID 0000.0001) %MON dynstat_vvel_mean            =  -3.8825253251159E-16
(PID.TID 0000.0001) %MON dynstat_vvel_sd              =   1.5565147599601E-03
(PID.TID 0000.0001) %MON dynstat_vvel_del2            =   3.0930821973459E-05
(PID.TID 0000.0001) %MON dynstat_wvel_max             =   1.6385172398920E-06
(PID.TID 0000.0001) %MON dynstat_wvel_min             =  -7.6469119085125E-07
(PID.TID 0000.0001) %MON dynstat_wvel_mean            =   2.9282689047677E-24
(PID.TID 0000.0001) %MON dynstat_wvel_sd              =   2.7133154756840E-07
(PID.TID 0000.0001) %MON dynstat_wvel_del2            =   9.2656092160700E-09
(PID.TID 0000.0001) %MON dynstat_theta_max            =   2.6666293926427E+01
(PID.TID 0000.0001) %MON dynstat_theta_min            =  -9.3081372984843E-01
(PID.TID 0000.0001) %MON dynstat_theta_mean           =   2.2243064037828E+00
(PID.TID 0000.0001) %MON dynstat_theta_sd             =   3.9279476555124E+00
(PID.TID 0000.0001) %MON dynstat_theta_del2           =   1.3388650893283E-02
(PID.TID 0000.0001) %MON dynstat_salt_max             =   3.4700000000000E+01
(PID.TID 0000.0001) %MON dynstat_salt_min             =   3.4700000000000E+01
(PID.TID 0000.0001) %MON dynstat_salt_mean            =   3.4700000000000E+01
(PID.TID 0000.0001) %MON dynstat_salt_sd              =   7.1054273576010E-15
(PID.TID 0000.0001) %MON dynstat_salt_del2            =   0.0000000000000E+00
(PID.TID 0000.0001) %MON trAdv_CFL_u_max              =   1.0011405687641E-01
(PID.TID 0000.0001) %MON trAdv_CFL_v_max              =   8.0138224121599E-03
(PID.TID 0000.0001) %MON trAdv_CFL_w_max              =   9.5863576023904E-03
(PID.TID 0000.0001) %MON advcfl_uvel_max              =   1.0010262108618E-01
(PID.TID 0000.0001) %MON advcfl_vvel_max              =   6.0334913295425E-03
(PID.TID 0000.0001) %MON advcfl_wvel_max              =   2.3594648254445E-03
(PID.TID 0000.0001) %MON advcfl_W_hf_max              =   2.8313577905334E-03
(PID.TID 0000.0001) %MON pe_b_mean                    =   2.5675754594643E-03
(PID.TID 0000.0001) %MON ke_max                       =   7.4642694120855E-02
(PID.TID 0000.0001) %MON ke_mean                      =   8.3194041142160E-04
(PID.TID 0000.0001) %MON ke_vol                       =   2.1823819113454E+16
(PID.TID 0000.0001) %MON vort_r_min                   =  -1.7707182332520E-07
(PID.TID 0000.0001) %MON vort_r_max                   =   1.7707182332503E-07
(PID.TID 0000.0001) %MON vort_a_mean                  =   2.7861254556126E-20
(PID.TID 0000.0001) %MON vort_a_sd                    =   8.3492806365125E-05
(PID.TID 0000.0001) %MON vort_p_mean                  =   2.8034944168185E-20
(PID.TID 0000.0001) %MON vort_p_sd                    =   8.6788030713271E-05
(PID.TID 0000.0001) %MON surfExpan_theta_mean         =   2.1477410331633E-06
(PID.TID 0000.0001) %MON surfExpan_salt_mean          =  -4.4381575587886E-22
(PID.TID 0000.0001) // =======================================================
(PID.TID 0000.0001) // End MONITOR dynamic field statistics
(PID.TID 0000.0001) // =======================================================
 cg2d: Sum(rhs),rhsMax =   1.06581410364015E-14  1.47987651515554E+00
(PID.TID 0000.0001)      cg2d_init_res =   3.95649577390701E-03
(PID.TID 0000.0001)      cg2d_iters(min,last) =      -1      27
(PID.TID 0000.0001)      cg2d_last_res =   1.07643793355294E-17
(PID.TID 0000.0001) // =======================================================
(PID.TID 0000.0001) // Begin MONITOR dynamic field statistics
(PID.TID 0000.0001) // =======================================================
(PID.TID 0000.0001) %MON time_tsnumber                =                 36020
(PID.TID 0000.0001) %MON time_secondsf                =   3.1121280000000E+09
(PID.TID 0000.0001) %MON dynstat_eta_max              =   1.6166214330278E+00
(PID.TID 0000.0001) %MON dynstat_eta_min              =  -3.9277552850249E+00
(PID.TID 0000.0001) %MON dynstat_eta_mean             =  -4.4675956803497E-16
(PID.TID 0000.0001) %MON dynstat_eta_sd               =   1.6505855307006E+00
(PID.TID 0000.0001) %MON dynstat_eta_del2             =   8.2845404051405E-03
(PID.TID 0000.0001) %MON dynstat_uvel_max             =   1.4252645369677E-01
(PID.TID 0000.0001) %MON dynstat_uvel_min             =  -3.8629498727580E-01
(PID.TID 0000.0001) %MON dynstat_uvel_mean            =   1.2764457514935E-02
(PID.TID 0000.0001) %MON dynstat_uvel_sd              =   3.8699222374779E-02
(PID.TID 0000.0001) %MON dynstat_uvel_del2            =   1.3216459624173E-04
(PID.TID 0000.0001) %MON dynstat_vvel_max             =   2.3296582311491E-02
(PID.TID 0000.0001) %MON dynstat_vvel_min             =  -2.3296582311469E-02
(PID.TID 0000.0001) %MON dynstat_vvel_mean            =  -6.5187184708450E-16
(PID.TID 0000.0001) %MON dynstat_vvel_sd              =   1.5567414337120E-03
(PID.TID 0000.0001) %MON dynstat_vvel_del2            =   3.0931002905707E-05
(PID.TID 0000.0001) %MON dynstat_wvel_max             =   1.6541233112411E-06
(PID.TID 0000.0001) %MON dynstat_wvel_min             =  -7.4971202867966E-07
(PID.TID 0000.0001) %MON dynstat_wvel_mean            =  -8.7848067143032E-24
(PID.TID 0000.0001) %MON dynstat_wvel_sd              =   2.7386041063709E-07
(PID.TID 0000.0001) %MON dynstat_wvel_del2            =   9.2656421897177E-09
(PID.TID 0000.0001) %MON dynstat_theta_max            =   2.6664338965870E+01
(PID.TID 0000.0001) %MON dynstat_theta_min            =  -9.3081675010267E-01
(PID.TID 0000.0001) %MON dynstat_theta_mean           =   2.2242737018201E+00
(PID.TID 0000.0001) %MON dynstat_theta_sd             =   3.9278529630141E+00
(PID.TID 0000.0001) %MON dynstat_theta_del2           =   1.3388757283010E-02
(PID.TID 0000.0001) %MON dynstat_salt_max             =   3.4700000000000E+01
(PID.TID 0000.0001) %MON dynstat_salt_min             =   3.4700000000000E+01
(PID.TID 0000.0001) %MON dynstat_salt_mean            =   3.4700000000000E+01
(PID.TID 0000.0001) %MON dynstat_salt_sd              =   7.1054273576010E-15
(PID.TID 0000.0001) %MON dynstat_salt_del2            =   0.0000000000000E+00
(PID.TID 0000.0001) %MON trAdv_CFL_u_max              =   1.0011363239902E-01
(PID.TID 0000.0001) %MON trAdv_CFL_v_max              =   8.0023861315500E-03
(PID.TID 0000.0001) %MON trAdv_CFL_w_max              =   9.5824926786445E-03
(PID.TID 0000.0001) %MON advcfl_uvel_max              =   1.0010219665728E-01
(PID.TID 0000.0001) %MON advcfl_vvel_max              =   6.0348697478170E-03
(PID.TID 0000.0001) %MON advcfl_wvel_max              =   2.3819375681871E-03
(PID.TID 0000.0001) %MON advcfl_W_hf_max              =   2.8583250818246E-03
(PID.TID 0000.0001) %MON pe_b_mean                    =   2.5698734373742E-03
(PID.TID 0000.0001) %MON ke_max                       =   7.4642111374991E-02
(PID.TID 0000.0001) %MON ke_mean                      =   8.3158186654112E-04
(PID.TID 0000.0001) %MON ke_vol                       =   2.1823819113454E+16
(PID.TID 0000.0001) %MON vort_r_min                   =  -1.7707130708674E-07
(PID.TID 0000.0001) %MON vort_r_max                   =   1.7707130708633E-07
(PID.TID 0000.0001) %MON vort_a_mean                  =   1.6716752733676E-20
(PID.TID 0000.0001) %MON vort_a_sd                    =   8.3492804330271E-05
(PID.TID 0000.0001) %MON vort_p_mean                  =   1.6820966500911E-20
(PID.TID 0000.0001) %MON vort_p_sd                    =   8.6788028460480E-05
(PID.TID 0000.0001) %MON surfExpan_theta_mean         =   2.3590069072494E-06
(PID.TID 0000.0001) %MON surfExpan_salt_mean          =  -1.5533551455760E-21
(PID.TID 0000.0001) // =======================================================
(PID.TID 0000.0001) // End MONITOR dynamic field statistics
(PID.TID 0000.0001) // =======================================================
 Computing Diagnostic #     77  DRHODR       Counter:      10   Parms: SM      LR      
 Computing Diagnostic #     64  RHOAnoma     Counter:      10   Parms: SMR     MR      
 Computing Diagnostic #    213  GM_GEOMK     Counter:      10   Parms: SMRP    LR      
 Computing Diagnostic #    215  GEOMstru     Counter:      10   Parms: SMRP    LR      
 Computing Diagnostic #    204  GM_PsiY      Counter:      10   Parms: VV      LR      
           Vector  Mate for  GM_PsiY      Diagnostic #    203  GM_PsiX  not enabled
 Computing Diagnostic #    197  GM_Kvy       Counter:      10   Parms: VV P    MR      
           Vector  Mate for  GM_Kvy       Diagnostic #    196  GM_Kux   not enabled
 Computing Diagnostic #    199  GM_Kvz       Counter:      10   Parms: VV      MR      
           Vector  Mate for  GM_Kvz       Diagnostic #    198  GM_Kuz   not enabled
 Computing Diagnostic #    201  GM_Kwy       Counter:      10   Parms: VM      LR      
           Vector  Mate for  GM_Kwy       Diagnostic #    200  GM_Kwx   not enabled
 Computing Diagnostic #    202  GM_Kwz       Counter:      10   Parms: WM P    LR      
 Compute Stats, Diag. #    214  GEOMeE    vol(   0 ): 4.197E+12  Parms: SM P    M1      
 Compute Stats, Diag. #    216  GEOMEgen  vol(   0 ): 4.197E+12  Parms: SM P    M1      
 Compute Stats, Diag. #    217  GEOMEdis  vol(   0 ): 4.197E+12  Parms: SM      M1      
 Compute Stats, Diag. #    218  GEOMEadv  vol(   0 ): 4.197E+12  Parms: SM      M1      
 Compute Stats, Diag. #    219  GEOMEwav  vol(   0 ): 4.197E+12  Parms: SM      M1      
 Compute Stats, Diag. #    220  GEOMElap  vol(   0 ): 4.197E+12  Parms: SM      M1      
 Compute Stats, Diag. #    221  GEOM_c1   vol(   0 ): 4.197E+12  Parms: SM P    M1      
 Compute Stats, Diag. #    213  GM_GEOMK  vol(   0 ): 2.035E+16  Parms: SMRP    LR      
 Compute Stats, Diag. #    215  GEOMstru  vol(   0 ): 2.035E+16  Parms: SMRP    LR      
(PID.TID 0000.0001) DIAGSTATS_CLOSE_IO: close file: dynStDiag.0000036000.txt , unit=     9
(PID.TID 0000.0001) %CHECKPOINT     36020 ckptA
(PID.TID 0000.0001)   Seconds in section "ALL                    [THE_MODEL_MAIN]":
(PID.TID 0000.0001)           User time:   1.0596199510619044
(PID.TID 0000.0001)         System time:   8.0140000209212303E-003
(PID.TID 0000.0001)     Wall clock time:   1.0680508613586426
(PID.TID 0000.0001)          No. starts:           1
(PID.TID 0000.0001)           No. stops:           1
(PID.TID 0000.0001)   Seconds in section "INITIALISE_FIXED       [THE_MODEL_MAIN]":
(PID.TID 0000.0001)           User time:   2.8524999506771564E-002
(PID.TID 0000.0001)         System time:   4.2739999480545521E-003
(PID.TID 0000.0001)     Wall clock time:   3.2827138900756836E-002
(PID.TID 0000.0001)          No. starts:           1
(PID.TID 0000.0001)           No. stops:           1
(PID.TID 0000.0001)   Seconds in section "THE_MAIN_LOOP          [THE_MODEL_MAIN]":
(PID.TID 0000.0001)           User time:   1.0310539640486240
(PID.TID 0000.0001)         System time:   3.7389998324215412E-003
(PID.TID 0000.0001)     Wall clock time:   1.0351839065551758
(PID.TID 0000.0001)          No. starts:           1
(PID.TID 0000.0001)           No. stops:           1
(PID.TID 0000.0001)   Seconds in section "INITIALISE_VARIA    [THE_MAIN_LOOP]":
(PID.TID 0000.0001)           User time:   2.6797000318765640E-002
(PID.TID 0000.0001)         System time:   0.0000000000000000
(PID.TID 0000.0001)     Wall clock time:   2.6839971542358398E-002
(PID.TID 0000.0001)          No. starts:           1
(PID.TID 0000.0001)           No. stops:           1
(PID.TID 0000.0001)   Seconds in section "MAIN LOOP           [THE_MAIN_LOOP]":
(PID.TID 0000.0001)           User time:   1.0042260214686394
(PID.TID 0000.0001)         System time:   3.7380000576376915E-003
(PID.TID 0000.0001)     Wall clock time:   1.0083160400390625
(PID.TID 0000.0001)          No. starts:           1
(PID.TID 0000.0001)           No. stops:           1
(PID.TID 0000.0001)   Seconds in section "MAIN_DO_LOOP        [THE_MAIN_LOOP]":
(PID.TID 0000.0001)           User time:   1.0040499791502953
(PID.TID 0000.0001)         System time:   3.7380000576376915E-003
(PID.TID 0000.0001)     Wall clock time:   1.0081393718719482
(PID.TID 0000.0001)          No. starts:          20
(PID.TID 0000.0001)           No. stops:          20
(PID.TID 0000.0001)   Seconds in section "FORWARD_STEP        [MAIN_DO_LOOP]":
(PID.TID 0000.0001)           User time:   1.0037230327725410
(PID.TID 0000.0001)         System time:   3.7380000576376915E-003
(PID.TID 0000.0001)     Wall clock time:   1.0078170299530029
(PID.TID 0000.0001)          No. starts:          20
(PID.TID 0000.0001)           No. stops:          20
(PID.TID 0000.0001)   Seconds in section "DO_STATEVARS_DIAGS  [FORWARD_STEP]":
(PID.TID 0000.0001)           User time:   1.3487935066223145E-003
(PID.TID 0000.0001)         System time:   0.0000000000000000
(PID.TID 0000.0001)     Wall clock time:   1.3628005981445312E-003
(PID.TID 0000.0001)          No. starts:          60
(PID.TID 0000.0001)           No. stops:          60
(PID.TID 0000.0001)   Seconds in section "LOAD_FIELDS_DRIVER  [FORWARD_STEP]":
(PID.TID 0000.0001)           User time:   5.1509588956832886E-004
(PID.TID 0000.0001)         System time:   0.0000000000000000
(PID.TID 0000.0001)     Wall clock time:   5.1403045654296875E-004
(PID.TID 0000.0001)          No. starts:          20
(PID.TID 0000.0001)           No. stops:          20
(PID.TID 0000.0001)   Seconds in section "EXTERNAL_FLDS_LOAD [LOAD_FLDS_DRIVER]":
(PID.TID 0000.0001)           User time:   1.6425549983978271E-004
(PID.TID 0000.0001)         System time:   0.0000000000000000
(PID.TID 0000.0001)     Wall clock time:   1.6140937805175781E-004
(PID.TID 0000.0001)          No. starts:          20
(PID.TID 0000.0001)           No. stops:          20
(PID.TID 0000.0001)   Seconds in section "DO_ATMOSPHERIC_PHYS [FORWARD_STEP]":
(PID.TID 0000.0001)           User time:   1.5893578529357910E-004
(PID.TID 0000.0001)         System time:   0.0000000000000000
(PID.TID 0000.0001)     Wall clock time:   1.5974044799804688E-004
(PID.TID 0000.0001)          No. starts:          20
(PID.TID 0000.0001)           No. stops:          20
(PID.TID 0000.0001)   Seconds in section "DO_OCEANIC_PHYS     [FORWARD_STEP]":
(PID.TID 0000.0001)           User time:  0.25228881090879440
(PID.TID 0000.0001)         System time:   0.0000000000000000
(PID.TID 0000.0001)     Wall clock time:  0.25240659713745117
(PID.TID 0000.0001)          No. starts:          20
(PID.TID 0000.0001)           No. stops:          20
(PID.TID 0000.0001)   Seconds in section "DYNAMICS            [FORWARD_STEP]":
(PID.TID 0000.0001)           User time:  0.33095793426036835
(PID.TID 0000.0001)         System time:   0.0000000000000000
(PID.TID 0000.0001)     Wall clock time:  0.33107829093933105
(PID.TID 0000.0001)          No. starts:          20
(PID.TID 0000.0001)           No. stops:          20
(PID.TID 0000.0001)   Seconds in section "SOLVE_FOR_PRESSURE  [FORWARD_STEP]":
(PID.TID 0000.0001)           User time:   2.8117902576923370E-002
(PID.TID 0000.0001)         System time:   0.0000000000000000
(PID.TID 0000.0001)     Wall clock time:   2.8154134750366211E-002
(PID.TID 0000.0001)          No. starts:          20
(PID.TID 0000.0001)           No. stops:          20
(PID.TID 0000.0001)   Seconds in section "MOM_CORRECTION_STEP [FORWARD_STEP]":
(PID.TID 0000.0001)           User time:   1.2107983231544495E-002
(PID.TID 0000.0001)         System time:   0.0000000000000000
(PID.TID 0000.0001)     Wall clock time:   1.2112140655517578E-002
(PID.TID 0000.0001)          No. starts:          20
(PID.TID 0000.0001)           No. stops:          20
(PID.TID 0000.0001)   Seconds in section "INTEGR_CONTINUITY   [FORWARD_STEP]":
(PID.TID 0000.0001)           User time:   7.8578963875770569E-003
(PID.TID 0000.0001)         System time:   0.0000000000000000
(PID.TID 0000.0001)     Wall clock time:   7.8644752502441406E-003
(PID.TID 0000.0001)          No. starts:          20
(PID.TID 0000.0001)           No. stops:          20
(PID.TID 0000.0001)   Seconds in section "BLOCKING_EXCHANGES  [FORWARD_STEP]":
(PID.TID 0000.0001)           User time:   5.0546988844871521E-002
(PID.TID 0000.0001)         System time:   0.0000000000000000
(PID.TID 0000.0001)     Wall clock time:   5.0567388534545898E-002
(PID.TID 0000.0001)          No. starts:          40
(PID.TID 0000.0001)           No. stops:          40
(PID.TID 0000.0001)   Seconds in section "THERMODYNAMICS      [FORWARD_STEP]":
(PID.TID 0000.0001)           User time:  0.25999806821346283
(PID.TID 0000.0001)         System time:   0.0000000000000000
(PID.TID 0000.0001)     Wall clock time:  0.26012349128723145
(PID.TID 0000.0001)          No. starts:          20
(PID.TID 0000.0001)           No. stops:          20
(PID.TID 0000.0001)   Seconds in section "TRC_CORRECTION_STEP [FORWARD_STEP]":
(PID.TID 0000.0001)           User time:   1.6592442989349365E-004
(PID.TID 0000.0001)         System time:   0.0000000000000000
(PID.TID 0000.0001)     Wall clock time:   1.6260147094726562E-004
(PID.TID 0000.0001)          No. starts:          20
(PID.TID 0000.0001)           No. stops:          20
(PID.TID 0000.0001)   Seconds in section "DO_STATEVARS_TAVE   [FORWARD_STEP]":
(PID.TID 0000.0001)           User time:   1.1022083461284637E-002
(PID.TID 0000.0001)         System time:   0.0000000000000000
(PID.TID 0000.0001)     Wall clock time:   1.1039733886718750E-002
(PID.TID 0000.0001)          No. starts:          20
(PID.TID 0000.0001)           No. stops:          20
(PID.TID 0000.0001)   Seconds in section "MONITOR             [FORWARD_STEP]":
(PID.TID 0000.0001)           User time:   3.3351995050907135E-002
(PID.TID 0000.0001)         System time:   0.0000000000000000
(PID.TID 0000.0001)     Wall clock time:   3.3382177352905273E-002
(PID.TID 0000.0001)          No. starts:          20
(PID.TID 0000.0001)           No. stops:          20
(PID.TID 0000.0001)   Seconds in section "DO_THE_MODEL_IO     [FORWARD_STEP]":
(PID.TID 0000.0001)           User time:   8.0411061644554138E-003
(PID.TID 0000.0001)         System time:   3.7380000576376915E-003
(PID.TID 0000.0001)     Wall clock time:   1.1795043945312500E-002
(PID.TID 0000.0001)          No. starts:          20
(PID.TID 0000.0001)           No. stops:          20
(PID.TID 0000.0001)   Seconds in section "DO_WRITE_PICKUP     [FORWARD_STEP]":
(PID.TID 0000.0001)           User time:   3.7321746349334717E-003
(PID.TID 0000.0001)         System time:   0.0000000000000000
(PID.TID 0000.0001)     Wall clock time:   3.7343502044677734E-003
(PID.TID 0000.0001)          No. starts:          20
(PID.TID 0000.0001)           No. stops:          20
(PID.TID 0000.0001) // ======================================================
(PID.TID 0000.0001) // Tile <-> Tile communication statistics
(PID.TID 0000.0001) // ======================================================
(PID.TID 0000.0001) // o Tile number: 000001
(PID.TID 0000.0001) //         No. X exchanges =              0
(PID.TID 0000.0001) //            Max. X spins =              0
(PID.TID 0000.0001) //            Min. X spins =     1000000000
(PID.TID 0000.0001) //          Total. X spins =              0
(PID.TID 0000.0001) //            Avg. X spins =       0.00E+00
(PID.TID 0000.0001) //         No. Y exchanges =              0
(PID.TID 0000.0001) //            Max. Y spins =              0
(PID.TID 0000.0001) //            Min. Y spins =     1000000000
(PID.TID 0000.0001) //          Total. Y spins =              0
(PID.TID 0000.0001) //            Avg. Y spins =       0.00E+00
(PID.TID 0000.0001) // o Tile number: 000002
(PID.TID 0000.0001) //         No. X exchanges =              0
(PID.TID 0000.0001) //            Max. X spins =              0
(PID.TID 0000.0001) //            Min. X spins =     1000000000
(PID.TID 0000.0001) //          Total. X spins =              0
(PID.TID 0000.0001) //            Avg. X spins =       0.00E+00
(PID.TID 0000.0001) //         No. Y exchanges =              0
(PID.TID 0000.0001) //            Max. Y spins =              0
(PID.TID 0000.0001) //            Min. Y spins =     1000000000
(PID.TID 0000.0001) //          Total. Y spins =              0
(PID.TID 0000.0001) //            Avg. Y spins =       0.00E+00
(PID.TID 0000.0001) // o Tile number: 000003
(PID.TID 0000.0001) //         No. X exchanges =              0
(PID.TID 0000.0001) //            Max. X spins =              0
(PID.TID 0000.0001) //            Min. X spins =     1000000000
(PID.TID 0000.0001) //          Total. X spins =              0
(PID.TID 0000.0001) //            Avg. X spins =       0.00E+00
(PID.TID 0000.0001) //         No. Y exchanges =              0
(PID.TID 0000.0001) //            Max. Y spins =              0
(PID.TID 0000.0001) //            Min. Y spins =     1000000000
(PID.TID 0000.0001) //          Total. Y spins =              0
(PID.TID 0000.0001) //            Avg. Y spins =       0.00E+00
(PID.TID 0000.0001) // o Tile number: 000004
(PID.TID 0000.0001) //         No. X exchanges =              0
(PID.TID 0000.0001) //            Max. X spins =              0
(PID.TID 0000.0001) //            Min. X spins =     1000000000
(PID.TID 0000.0001) //          Total. X spins =              0
(PID.TID 0000.0001) //            Avg. X spins =       0.00E+00
(PID.TID 0000.0001) //         No. Y exchanges =              0
(PID.TID 0000.0001) //            Max. Y spins =              0
(PID.TID 0000.0001) //            Min. Y spins =     1000000000
(PID.TID 0000.0001) //          Total. Y spins =              0
(PID.TID 0000.0001) //            Avg. Y spins =       0.00E+00
(PID.TID 0000.0001) // o Thread number: 000001
(PID.TID 0000.0001) //            No. barriers =           7622
(PID.TID 0000.0001) //      Max. barrier spins =              1
(PID.TID 0000.0001) //      Min. barrier spins =              1
(PID.TID 0000.0001) //     Total barrier spins =           7622
(PID.TID 0000.0001) //      Avg. barrier spins =       1.00E+00
PROGRAM MAIN: Execution ended Normally
