(PID.TID 0000.0001) 
(PID.TID 0000.0001) // ======================================================
(PID.TID 0000.0001) //                      MITgcm UV
(PID.TID 0000.0001) //                      =========
(PID.TID 0000.0001) // ======================================================
(PID.TID 0000.0001) // execution environment starting up...
(PID.TID 0000.0001) 
(PID.TID 0000.0001) // MITgcmUV version:  checkpoint68a
(PID.TID 0000.0001) // Build user:        jm_c
(PID.TID 0000.0001) // Build host:        villon
(PID.TID 0000.0001) // Build date:        Wed Aug 18 23:08:44 EDT 2021
(PID.TID 0000.0001) 
(PID.TID 0000.0001) // =======================================================
(PID.TID 0000.0001) // Execution Environment parameter file "eedata"
(PID.TID 0000.0001) // =======================================================
(PID.TID 0000.0001) ># Example "eedata" file
(PID.TID 0000.0001) ># Lines beginning "#" are comments
(PID.TID 0000.0001) ># nTx - No. threads per process in X
(PID.TID 0000.0001) ># nTy - No. threads per process in Y
(PID.TID 0000.0001) > &EEPARMS
(PID.TID 0000.0001) > nTx=1,
(PID.TID 0000.0001) > nTy=1,
(PID.TID 0000.0001) > /
(PID.TID 0000.0001) ># Note: Some systems use / as the
(PID.TID 0000.0001) ># namelist terminator. Other systems
(PID.TID 0000.0001) ># use a & character (as shown here).
(PID.TID 0000.0001) 
(PID.TID 0000.0001) // =======================================================
(PID.TID 0000.0001) // Computational Grid Specification ( see files "SIZE.h" )
(PID.TID 0000.0001) //                                  ( and "eedata"       )
(PID.TID 0000.0001) // =======================================================
(PID.TID 0000.0001)      nPx =    1 ; /* No. processes in X */
(PID.TID 0000.0001)      nPy =    1 ; /* No. processes in Y */
(PID.TID 0000.0001)      nSx =    2 ; /* No. tiles in X per process */
(PID.TID 0000.0001)      nSy =    2 ; /* No. tiles in Y per process */
(PID.TID 0000.0001)      sNx =   45 ; /* Tile size in X */
(PID.TID 0000.0001)      sNy =   20 ; /* Tile size in Y */
(PID.TID 0000.0001)      OLx =    3 ; /* Tile overlap distance in X */
(PID.TID 0000.0001)      OLy =    3 ; /* Tile overlap distance in Y */
(PID.TID 0000.0001)      nTx =    1 ; /* No. threads in X per process */
(PID.TID 0000.0001)      nTy =    1 ; /* No. threads in Y per process */
(PID.TID 0000.0001)       Nr =   15 ; /* No. levels in the vertical   */
(PID.TID 0000.0001)       Nx =   90 ; /* Total domain size in X ( = nPx*nSx*sNx ) */
(PID.TID 0000.0001)       Ny =   40 ; /* Total domain size in Y ( = nPy*nSy*sNy ) */
(PID.TID 0000.0001)   nTiles =    4 ; /* Total no. tiles per process ( = nSx*nSy ) */
(PID.TID 0000.0001)   nProcs =    1 ; /* Total no. processes ( = nPx*nPy ) */
(PID.TID 0000.0001) nThreads =    1 ; /* Total no. threads per process ( = nTx*nTy ) */
(PID.TID 0000.0001) usingMPI =    F ; /* Flag used to control whether MPI is in use */
(PID.TID 0000.0001)                   /*  note: To execute a program with MPI calls */
(PID.TID 0000.0001)                   /*  it must be launched appropriately e.g     */
(PID.TID 0000.0001)                   /*  "mpirun -np 64 ......"                    */
(PID.TID 0000.0001) useCoupler=   F ; /* Flag used to control communications with   */
(PID.TID 0000.0001)                   /*  other model components, through a coupler */
(PID.TID 0000.0001) useNest2W_parent =    F ;/* Control 2-W Nesting comm */
(PID.TID 0000.0001) useNest2W_child  =    F ;/* Control 2-W Nesting comm */
(PID.TID 0000.0001) debugMode =    F ; /* print debug msg. (sequence of S/R calls)  */
(PID.TID 0000.0001) printMapIncludesZeros=    F ; /* print zeros in Std.Output maps */
(PID.TID 0000.0001) maxLengthPrt1D=   65 /* maxLength of 1D array printed to StdOut */
(PID.TID 0000.0001) 
(PID.TID 0000.0001) // ======================================================
(PID.TID 0000.0001) // Mapping of tiles to threads
(PID.TID 0000.0001) // ======================================================
(PID.TID 0000.0001) // -o- Thread   1, tiles (   1:   2,   1:   2)
(PID.TID 0000.0001) 
(PID.TID 0000.0001) // ======================================================
(PID.TID 0000.0001) // Tile <-> Tile connectvity table
(PID.TID 0000.0001) // ======================================================
(PID.TID 0000.0001) // Tile number: 000001 (process no. = 000000)
(PID.TID 0000.0001) //        WEST: Tile = 000002, Process = 000000, Comm = put
(PID.TID 0000.0001) //                bi = 000002, bj = 000001
(PID.TID 0000.0001) //        EAST: Tile = 000002, Process = 000000, Comm = put
(PID.TID 0000.0001) //                bi = 000002, bj = 000001
(PID.TID 0000.0001) //       SOUTH: Tile = 000003, Process = 000000, Comm = put
(PID.TID 0000.0001) //                bi = 000001, bj = 000002
(PID.TID 0000.0001) //       NORTH: Tile = 000003, Process = 000000, Comm = put
(PID.TID 0000.0001) //                bi = 000001, bj = 000002
(PID.TID 0000.0001) // Tile number: 000002 (process no. = 000000)
(PID.TID 0000.0001) //        WEST: Tile = 000001, Process = 000000, Comm = put
(PID.TID 0000.0001) //                bi = 000001, bj = 000001
(PID.TID 0000.0001) //        EAST: Tile = 000001, Process = 000000, Comm = put
(PID.TID 0000.0001) //                bi = 000001, bj = 000001
(PID.TID 0000.0001) //       SOUTH: Tile = 000004, Process = 000000, Comm = put
(PID.TID 0000.0001) //                bi = 000002, bj = 000002
(PID.TID 0000.0001) //       NORTH: Tile = 000004, Process = 000000, Comm = put
(PID.TID 0000.0001) //                bi = 000002, bj = 000002
(PID.TID 0000.0001) // Tile number: 000003 (process no. = 000000)
(PID.TID 0000.0001) //        WEST: Tile = 000004, Process = 000000, Comm = put
(PID.TID 0000.0001) //                bi = 000002, bj = 000002
(PID.TID 0000.0001) //        EAST: Tile = 000004, Process = 000000, Comm = put
(PID.TID 0000.0001) //                bi = 000002, bj = 000002
(PID.TID 0000.0001) //       SOUTH: Tile = 000001, Process = 000000, Comm = put
(PID.TID 0000.0001) //                bi = 000001, bj = 000001
(PID.TID 0000.0001) //       NORTH: Tile = 000001, Process = 000000, Comm = put
(PID.TID 0000.0001) //                bi = 000001, bj = 000001
(PID.TID 0000.0001) // Tile number: 000004 (process no. = 000000)
(PID.TID 0000.0001) //        WEST: Tile = 000003, Process = 000000, Comm = put
(PID.TID 0000.0001) //                bi = 000001, bj = 000002
(PID.TID 0000.0001) //        EAST: Tile = 000003, Process = 000000, Comm = put
(PID.TID 0000.0001) //                bi = 000001, bj = 000002
(PID.TID 0000.0001) //       SOUTH: Tile = 000002, Process = 000000, Comm = put
(PID.TID 0000.0001) //                bi = 000002, bj = 000001
(PID.TID 0000.0001) //       NORTH: Tile = 000002, Process = 000000, Comm = put
(PID.TID 0000.0001) //                bi = 000002, bj = 000001
(PID.TID 0000.0001) 
(PID.TID 0000.0001)  INI_PARMS: opening model parameter file "data"
(PID.TID 0000.0001)  OPEN_COPY_DATA_FILE: opening file data
(PID.TID 0000.0001) // =======================================================
(PID.TID 0000.0001) // Parameter file "data"
(PID.TID 0000.0001) // =======================================================
(PID.TID 0000.0001) ># ====================
(PID.TID 0000.0001) ># | Model parameters |
(PID.TID 0000.0001) ># ====================
(PID.TID 0000.0001) >#
(PID.TID 0000.0001) ># Continuous equation parameters
(PID.TID 0000.0001) > &PARM01
(PID.TID 0000.0001) > tRef = 15*20.,
(PID.TID 0000.0001) > sRef = 15*35.,
(PID.TID 0000.0001) > viscAr=1.E-3,
(PID.TID 0000.0001) > diffKhT=0.,
(PID.TID 0000.0001) >#- diffKrT unused when compiled with ALLOW_3D_DIFFKR
(PID.TID 0000.0001) >#diffKrT=3.E-5,
(PID.TID 0000.0001) > diffKhS=0.,
(PID.TID 0000.0001) > diffKrS=3.E-5,
(PID.TID 0000.0001) >#ph(
(PID.TID 0000.0001) >#ph Many of the following params. are just for AD testing;
(PID.TID 0000.0001) >#ph not necesarily meaningful in a 4x4 deg. setting.
(PID.TID 0000.0001) > viscC4Leith=1.5,
(PID.TID 0000.0001) > viscC4Leithd=1.5,
(PID.TID 0000.0001) > viscA4GridMax=0.5,
(PID.TID 0000.0001) > useAreaViscLength=.TRUE.,
(PID.TID 0000.0001) > bottomDragQuadratic = 0.0021,
(PID.TID 0000.0001) >#ph)
(PID.TID 0000.0001) > rhoConst=1035.,
(PID.TID 0000.0001) > gravity=9.81,
(PID.TID 0000.0001) > eosType = 'JMD95Z',
(PID.TID 0000.0001) > ivdc_kappa=10.,
(PID.TID 0000.0001) > implicitDiffusion=.TRUE.,
(PID.TID 0000.0001) > allowFreezing=.TRUE.,
(PID.TID 0000.0001) > useRealFreshWaterFlux=.TRUE.,
(PID.TID 0000.0001) > useCDscheme=.TRUE.,
(PID.TID 0000.0001) > exactConserv=.TRUE.,
(PID.TID 0000.0001) ># turn on looped cells
(PID.TID 0000.0001) > hFacMin=.05,
(PID.TID 0000.0001) > hFacMinDr=50.,
(PID.TID 0000.0001) >#ph(
(PID.TID 0000.0001) > vectorInvariantMomentum=.TRUE.,
(PID.TID 0000.0001) > hFacInf=0.2,
(PID.TID 0000.0001) > hFacSup=2.0,
(PID.TID 0000.0001) > nonlinFreeSurf=4,
(PID.TID 0000.0001) > staggerTimeStep=.TRUE.,
(PID.TID 0000.0001) > tempAdvScheme=30,
(PID.TID 0000.0001) > saltAdvScheme=30,
(PID.TID 0000.0001) > tempVertAdvScheme=20,
(PID.TID 0000.0001) > saltVertAdvScheme=20,
(PID.TID 0000.0001) > tempImplVertAdv=.TRUE.,
(PID.TID 0000.0001) > saltImplVertAdv=.TRUE.,
(PID.TID 0000.0001) >#ph)
(PID.TID 0000.0001) ># set precision of data files
(PID.TID 0000.0001) > readBinaryPrec=32,
(PID.TID 0000.0001) > useSingleCpuIO=.TRUE.,
(PID.TID 0000.0001) >#debugLevel=3,
(PID.TID 0000.0001) > /
(PID.TID 0000.0001) >
(PID.TID 0000.0001) ># Elliptic solver parameters
(PID.TID 0000.0001) > &PARM02
(PID.TID 0000.0001) > cg2dMaxIters=500,
(PID.TID 0000.0001) > cg2dTargetResidual=1.E-13,
(PID.TID 0000.0001) > /
(PID.TID 0000.0001) >
(PID.TID 0000.0001) ># Time stepping parameters
(PID.TID 0000.0001) > &PARM03
(PID.TID 0000.0001) > nIter0 =      0,
(PID.TID 0000.0001) > nTimeSteps = 10,
(PID.TID 0000.0001) ># 100 years of integration will yield a reasonable flow field
(PID.TID 0000.0001) ># startTime  =          0.,
(PID.TID 0000.0001) ># endTime    = 3110400000.,
(PID.TID 0000.0001) > deltaTmom = 1200.0,
(PID.TID 0000.0001) > tauCD =     321428.,
(PID.TID 0000.0001) > deltaTtracer= 43200.0,
(PID.TID 0000.0001) > deltaTClock = 43200.0,
(PID.TID 0000.0001) >#deltaTfreesurf= 43200.,
(PID.TID 0000.0001) > abEps = 0.1,
(PID.TID 0000.0001) > pChkptFreq= 311040000.,
(PID.TID 0000.0001) > dumpFreq=   311040000.,
(PID.TID 0000.0001) > dumpFreq=   864000.,
(PID.TID 0000.0001) > adjDumpFreq= 432000.,
(PID.TID 0000.0001) > adjMonitorFreq=1.,
(PID.TID 0000.0001) ># taveFreq=   311040000.,
(PID.TID 0000.0001) ># taveFreq=   864000.,
(PID.TID 0000.0001) >#monitorFreq=31104000.,
(PID.TID 0000.0001) > monitorFreq=1.,
(PID.TID 0000.0001) ># 2 months restoring timescale for temperature
(PID.TID 0000.0001) > tauThetaClimRelax =  5184000.0,
(PID.TID 0000.0001) ># 6 months restoring timescale for salinity
(PID.TID 0000.0001) > tauSaltClimRelax = 15552000.0,
(PID.TID 0000.0001) > periodicExternalForcing=.TRUE.,
(PID.TID 0000.0001) > externForcingPeriod=2592000.,
(PID.TID 0000.0001) > externForcingCycle=31104000.,
(PID.TID 0000.0001) > /
(PID.TID 0000.0001) >
(PID.TID 0000.0001) ># Gridding parameters
(PID.TID 0000.0001) > &PARM04
(PID.TID 0000.0001) > usingSphericalPolarGrid=.TRUE.,
(PID.TID 0000.0001) > delR= 50.,  70., 100., 140., 190.,
(PID.TID 0000.0001) >      240., 290., 340., 390., 440.,
(PID.TID 0000.0001) >      490., 540., 590., 640., 690.,
(PID.TID 0000.0001) > ygOrigin=-80.,
(PID.TID 0000.0001) > dySpacing=4.,
(PID.TID 0000.0001) > dxSpacing=4.,
(PID.TID 0000.0001) > /
(PID.TID 0000.0001) >
(PID.TID 0000.0001) ># Input datasets
(PID.TID 0000.0001) > &PARM05
(PID.TID 0000.0001) > bathyFile=      'bathymetry.bin',
(PID.TID 0000.0001) > hydrogThetaFile='lev_t.bin',
(PID.TID 0000.0001) > hydrogSaltFile= 'lev_s.bin',
(PID.TID 0000.0001) > zonalWindFile=  'trenberth_taux.bin',
(PID.TID 0000.0001) > meridWindFile=  'trenberth_tauy.bin',
(PID.TID 0000.0001) > thetaClimFile=  'lev_sst.bin',
(PID.TID 0000.0001) > saltClimFile=   'lev_sss.bin',
(PID.TID 0000.0001) > surfQnetFile=   'ncep_qnet.bin',
(PID.TID 0000.0001) ># fresh water flux is turned off, uncomment next line to turn on
(PID.TID 0000.0001) ># (not recommened together with surface salinity restoring)
(PID.TID 0000.0001) ># EmPmRFile=      'ncep_emp.bin',
(PID.TID 0000.0001) > /
(PID.TID 0000.0001) 
(PID.TID 0000.0001)  INI_PARMS ; starts to read PARM01
(PID.TID 0000.0001)  INI_PARMS ; read PARM01 : OK
(PID.TID 0000.0001) S/R INI_PARMS: No request for barotropic solver
(PID.TID 0000.0001) S/R INI_PARMS: => Use implicitFreeSurface as default
(PID.TID 0000.0001)  INI_PARMS ; starts to read PARM02
(PID.TID 0000.0001)  INI_PARMS ; read PARM02 : OK
(PID.TID 0000.0001)  INI_PARMS ; starts to read PARM03
(PID.TID 0000.0001)  INI_PARMS ; read PARM03 : OK
(PID.TID 0000.0001)  INI_PARMS ; starts to read PARM04
(PID.TID 0000.0001)  INI_PARMS ; read PARM04 : OK
(PID.TID 0000.0001)  INI_PARMS ; starts to read PARM05
(PID.TID 0000.0001)  INI_PARMS ; read PARM05 : OK
(PID.TID 0000.0001)  INI_PARMS: finished reading file "data"
(PID.TID 0000.0001)  PACKAGES_BOOT: opening data.pkg
(PID.TID 0000.0001)  OPEN_COPY_DATA_FILE: opening file data.pkg
(PID.TID 0000.0001) // =======================================================
(PID.TID 0000.0001) // Parameter file "data.pkg"
(PID.TID 0000.0001) // =======================================================
(PID.TID 0000.0001) ># ********
(PID.TID 0000.0001) ># Packages
(PID.TID 0000.0001) ># ********
(PID.TID 0000.0001) > &PACKAGES
(PID.TID 0000.0001) > useGMRedi    = .TRUE.,
(PID.TID 0000.0001) > useGrdchk    = .TRUE.,
(PID.TID 0000.0001) > useMNC       = .TRUE.,
(PID.TID 0000.0001) > /
(PID.TID 0000.0001) 
(PID.TID 0000.0001)  PACKAGES_BOOT: finished reading data.pkg
(PID.TID 0000.0001)  PACKAGES_BOOT: On/Off package Summary
 --------  pkgs with a standard "usePKG" On/Off switch in "data.pkg":  --------
 pkg/gmredi               compiled   and   used ( useGMRedi                = T )
 pkg/autodiff             compiled   and   used ( useAUTODIFF              = T )
 pkg/grdchk               compiled   and   used ( useGrdchk                = T )
 pkg/ctrl                 compiled   and   used ( useCTRL                  = T )
 pkg/sbo                  compiled but not used ( useSBO                   = F )
 pkg/mnc                  compiled   and   used ( useMNC                   = T )
 -------- pkgs without standard "usePKG" On/Off switch in "data.pkg":  --------
 pkg/generic_advdiff      compiled   and   used ( useGAD                   = T )
 pkg/mom_common           compiled   and   used ( momStepping              = T )
 pkg/mom_vecinv           compiled   and   used ( +vectorInvariantMomentum = T )
 pkg/mom_fluxform         compiled but not used ( & not vectorInvariantMom = F )
 pkg/cd_code              compiled   and   used ( useCDscheme              = T )
 pkg/monitor              compiled   and   used ( monitorFreq > 0.         = T )
 pkg/debug                compiled but not used ( debugMode                = F )
 pkg/rw                   compiled   and   used
 pkg/mdsio                compiled   and   used
 pkg/autodiff             compiled   and   used
 pkg/cost                 compiled   and   used
(PID.TID 0000.0001)  PACKAGES_BOOT: End of package Summary
(PID.TID 0000.0001) 
(PID.TID 0000.0001)  MNC_READPARMS: opening file 'data.mnc'
(PID.TID 0000.0001)  OPEN_COPY_DATA_FILE: opening file data.mnc
(PID.TID 0000.0001) // =======================================================
(PID.TID 0000.0001) // Parameter file "data.mnc"
(PID.TID 0000.0001) // =======================================================
(PID.TID 0000.0001) ># Example "data.mnc" file
(PID.TID 0000.0001) ># Lines beginning "#" are comments
(PID.TID 0000.0001) > &MNC_01
(PID.TID 0000.0001) ># mnc_echo_gvtypes=.FALSE.,
(PID.TID 0000.0001) ># mnc_use_indir=.FALSE.,
(PID.TID 0000.0001) > mnc_use_outdir=.TRUE.,
(PID.TID 0000.0001) > mnc_outdir_str='mnc_test_',
(PID.TID 0000.0001) >#mnc_outdir_date=.TRUE.,
(PID.TID 0000.0001) > monitor_mnc=.FALSE.,
(PID.TID 0000.0001) >#timeave_mnc=.FALSE.,
(PID.TID 0000.0001) >#snapshot_mnc=.FALSE.,
(PID.TID 0000.0001) >#autodiff_mnc=.FALSE.,
(PID.TID 0000.0001) > pickup_write_mnc=.FALSE.,
(PID.TID 0000.0001) > pickup_read_mnc=.FALSE.,
(PID.TID 0000.0001) > /
(PID.TID 0000.0001) ># Note: Some systems use & as the
(PID.TID 0000.0001) ># namelist terminator. Other systems
(PID.TID 0000.0001) ># use a / character (as shown here).
(PID.TID 0000.0001) 
(PID.TID 0000.0001)  MNC_READPARMS: finished reading data.mnc
(PID.TID 0000.0001)  GM_READPARMS: opening data.gmredi
(PID.TID 0000.0001)  OPEN_COPY_DATA_FILE: opening file data.gmredi
(PID.TID 0000.0001) // =======================================================
(PID.TID 0000.0001) // Parameter file "data.gmredi"
(PID.TID 0000.0001) // =======================================================
(PID.TID 0000.0001) ># GM+Redi package parameters:
(PID.TID 0000.0001) >#     GM_Small_Number  :: epsilon used in computing the slope
(PID.TID 0000.0001) >#     GM_slopeSqCutoff :: slope^2 cut-off value
(PID.TID 0000.0001) >
(PID.TID 0000.0001) >#-from MOM :
(PID.TID 0000.0001) ># GM_background_K: 	G & Mc.W  diffusion coefficient
(PID.TID 0000.0001) ># GM_maxSlope    :	max slope of isopycnals
(PID.TID 0000.0001) ># GM_Scrit       :	transition for scaling diffusion coefficient
(PID.TID 0000.0001) ># GM_Sd          :	half width scaling for diffusion coefficient
(PID.TID 0000.0001) ># GM_taper_scheme:	slope clipping or one of the tapering schemes
(PID.TID 0000.0001) ># GM_Kmin_horiz  :	horizontal diffusion minimum value
(PID.TID 0000.0001) >
(PID.TID 0000.0001) >#-Option parameters (needs to "define" options in GMREDI_OPTIONS.h")
(PID.TID 0000.0001) ># GM_isopycK     :	isopycnal diffusion coefficient (default=GM_background_K)
(PID.TID 0000.0001) ># GM_AdvForm     :	turn on GM Advective form       (default=Skew flux form)
(PID.TID 0000.0001) >
(PID.TID 0000.0001) > &GM_PARM01
(PID.TID 0000.0001) >  GM_Small_Number  = 1.D-20,
(PID.TID 0000.0001) >  GM_slopeSqCutoff = 1.D+08,
(PID.TID 0000.0001) >  GM_AdvForm         = .TRUE.,
(PID.TID 0000.0001) >  GM_isopycK         = 1.1D+3,
(PID.TID 0000.0001) >  GM_background_K    = 0.9D+3,
(PID.TID 0000.0001) >  GM_taper_scheme    = 'dm95',
(PID.TID 0000.0001) >  GM_maxSlope        = 1.D-2,
(PID.TID 0000.0001) >  GM_Kmin_horiz      = 50.,
(PID.TID 0000.0001) >  GM_Scrit           = 4.D-3,
(PID.TID 0000.0001) >  GM_Sd              = 1.D-3,
(PID.TID 0000.0001) >#  GM_Visbeck_alpha   = 1.5D-2,
(PID.TID 0000.0001) >  GM_Visbeck_alpha   = 0.D0,
(PID.TID 0000.0001) >  GM_Visbeck_length  = 2.D+5,
(PID.TID 0000.0001) >  GM_Visbeck_depth   = 1.D+3,
(PID.TID 0000.0001) >  GM_Visbeck_maxval_K= 2.5D+3,
(PID.TID 0000.0001) > /
(PID.TID 0000.0001) >
(PID.TID 0000.0001) >
(PID.TID 0000.0001) 
(PID.TID 0000.0001)  GM_READPARMS: finished reading data.gmredi
(PID.TID 0000.0001) AUTODIFF_READPARMS: opening data.autodiff
(PID.TID 0000.0001)  OPEN_COPY_DATA_FILE: opening file data.autodiff
(PID.TID 0000.0001) // =======================================================
(PID.TID 0000.0001) // Parameter file "data.autodiff"
(PID.TID 0000.0001) // =======================================================
(PID.TID 0000.0001) ># =========================
(PID.TID 0000.0001) ># pkg AUTODIFF parameters :
(PID.TID 0000.0001) ># =========================
(PID.TID 0000.0001) >#  inAdExact :: get an exact adjoint (no approximation) (def=.True.)
(PID.TID 0000.0001) >#
(PID.TID 0000.0001) > &AUTODIFF_PARM01
(PID.TID 0000.0001) ># inAdExact = .FALSE.,
(PID.TID 0000.0001) > cg2dFullAdjoint = .TRUE.,
(PID.TID 0000.0001) > /
(PID.TID 0000.0001) 
(PID.TID 0000.0001) AUTODIFF_READPARMS: finished reading data.autodiff
(PID.TID 0000.0001) // ===================================
(PID.TID 0000.0001) // AUTODIFF parameters :
(PID.TID 0000.0001) // ===================================
(PID.TID 0000.0001) inAdExact = /* get an exact adjoint (no approximation) */
(PID.TID 0000.0001)                   T
(PID.TID 0000.0001)     ;
(PID.TID 0000.0001) useApproxAdvectionInAdMode = /* approximate AD-advection */
(PID.TID 0000.0001)                   F
(PID.TID 0000.0001)     ;
(PID.TID 0000.0001) cg2dFullAdjoint = /* use full hand written cg2d adjoint (no approximation) */
(PID.TID 0000.0001)                   T
(PID.TID 0000.0001)     ;
(PID.TID 0000.0001) useKPPinAdMode = /* use KPP in adjoint mode */
(PID.TID 0000.0001)                   F
(PID.TID 0000.0001)     ;
(PID.TID 0000.0001) useGMRediInAdMode = /* use GMRedi in adjoint mode */
(PID.TID 0000.0001)                   T
(PID.TID 0000.0001)     ;
(PID.TID 0000.0001) useSEAICEinAdMode = /* use SEAICE in adjoint mode */
(PID.TID 0000.0001)                   F
(PID.TID 0000.0001)     ;
(PID.TID 0000.0001) useGGL90inAdMode = /* use GGL90 in adjoint mode */
(PID.TID 0000.0001)                   F
(PID.TID 0000.0001)     ;
(PID.TID 0000.0001) useSALT_PLUMEinAdMode = /* use SALT_PLUME in adjoint mode */
(PID.TID 0000.0001)                   F
(PID.TID 0000.0001)     ;
(PID.TID 0000.0001) dumpAdVarExch = /* control adexch before dumpinp */
(PID.TID 0000.0001)                       2
(PID.TID 0000.0001)     ;
(PID.TID 0000.0001) mon_AdVarExch = /* control adexch before monitor */
(PID.TID 0000.0001)                       2
(PID.TID 0000.0001)     ;
(PID.TID 0000.0001) viscFacInFw = /* viscosity factor for forward model */
(PID.TID 0000.0001)                 1.000000000000000E+00
(PID.TID 0000.0001)     ;
(PID.TID 0000.0001) viscFacInAd = /* viscosity factor for adjoint */
(PID.TID 0000.0001)                 1.000000000000000E+00
(PID.TID 0000.0001)     ;
(PID.TID 0000.0001) SIregFacInAd = /* sea ice factor for adjoint model */
(PID.TID 0000.0001)                 1.234567000000000E+05
(PID.TID 0000.0001)     ;
(PID.TID 0000.0001) SIregFacInFw = /* sea ice factor for forward model */
(PID.TID 0000.0001)                 1.234567000000000E+05
(PID.TID 0000.0001)     ;
(PID.TID 0000.0001) 
(PID.TID 0000.0001) OPTIM_READPARMS: opening data.optim
(PID.TID 0000.0001)  OPEN_COPY_DATA_FILE: opening file data.optim
(PID.TID 0000.0001) // =======================================================
(PID.TID 0000.0001) // Parameter file "data.optim"
(PID.TID 0000.0001) // =======================================================
(PID.TID 0000.0001) >#
(PID.TID 0000.0001) ># ********************************
(PID.TID 0000.0001) ># Off-line optimization parameters
(PID.TID 0000.0001) ># ********************************
(PID.TID 0000.0001) > &OPTIM
(PID.TID 0000.0001) > optimcycle=0,
(PID.TID 0000.0001) > /
(PID.TID 0000.0001) 
(PID.TID 0000.0001) OPTIM_READPARMS: finished reading data.optim
(PID.TID 0000.0001) CTRL_READPARMS: opening data.ctrl
(PID.TID 0000.0001)  OPEN_COPY_DATA_FILE: opening file data.ctrl
(PID.TID 0000.0001) // =======================================================
(PID.TID 0000.0001) // Parameter file "data.ctrl"
(PID.TID 0000.0001) // =======================================================
(PID.TID 0000.0001) >#
(PID.TID 0000.0001) >#
(PID.TID 0000.0001) ># *********************
(PID.TID 0000.0001) ># ECCO controlvariables
(PID.TID 0000.0001) ># *********************
(PID.TID 0000.0001) > &CTRL_NML
(PID.TID 0000.0001) > ctrlUseGen=.TRUE.,
(PID.TID 0000.0001) > /
(PID.TID 0000.0001) >#
(PID.TID 0000.0001) ># *********************
(PID.TID 0000.0001) ># names for ctrl_pack/unpack
(PID.TID 0000.0001) ># *********************
(PID.TID 0000.0001) > &CTRL_PACKNAMES
(PID.TID 0000.0001) > /
(PID.TID 0000.0001) >#
(PID.TID 0000.0001) ># *********************
(PID.TID 0000.0001) ># names for CTRL_GENARR, CTRL_GENTIM
(PID.TID 0000.0001) ># *********************
(PID.TID 0000.0001) > &CTRL_NML_GENARR
(PID.TID 0000.0001) > xx_genarr2d_weight(1) = 'wunit.data',
(PID.TID 0000.0001) > xx_genarr2d_file(1)='xx_bottomdrag',
(PID.TID 0000.0001) > /
(PID.TID 0000.0001) 
(PID.TID 0000.0001) CTRL_READPARMS: finished reading data.ctrl
(PID.TID 0000.0001) COST_READPARMS: opening data.cost
(PID.TID 0000.0001)  OPEN_COPY_DATA_FILE: opening file data.cost
(PID.TID 0000.0001) // =======================================================
(PID.TID 0000.0001) // Parameter file "data.cost"
(PID.TID 0000.0001) // =======================================================
(PID.TID 0000.0001) >#
(PID.TID 0000.0001) >#
(PID.TID 0000.0001) ># ******************
(PID.TID 0000.0001) ># ECCO cost function
(PID.TID 0000.0001) ># ******************
(PID.TID 0000.0001) > &COST_NML
(PID.TID 0000.0001) >#
(PID.TID 0000.0001) > mult_tracer  = 1.,
(PID.TID 0000.0001) > mult_test    = 1.,
(PID.TID 0000.0001) > mult_atl     = 1.,
(PID.TID 0000.0001) > /
(PID.TID 0000.0001) 
(PID.TID 0000.0001) COST_READPARMS: finished reading data.cost
(PID.TID 0000.0001) GRDCHK_READPARMS: opening data.grdchk
(PID.TID 0000.0001)  OPEN_COPY_DATA_FILE: opening file data.grdchk
(PID.TID 0000.0001) // =======================================================
(PID.TID 0000.0001) // Parameter file "data.grdchk"
(PID.TID 0000.0001) // =======================================================
(PID.TID 0000.0001) >
(PID.TID 0000.0001) ># *******************
(PID.TID 0000.0001) ># ECCO gradient check
(PID.TID 0000.0001) ># *******************
(PID.TID 0000.0001) > &GRDCHK_NML
(PID.TID 0000.0001) > grdchk_eps       = 1.d-4,
(PID.TID 0000.0001) >### iGloPos          = 76,
(PID.TID 0000.0001) >### jGloPos          = 27,
(PID.TID 0000.0001) > iGloPos          = 31,
(PID.TID 0000.0001) > jGloPos          = 7,
(PID.TID 0000.0001) > kGloPos          = 1,
(PID.TID 0000.0001) > iGloTile         = 2,
(PID.TID 0000.0001) > jgloTile         = 2,
(PID.TID 0000.0001) >### nbeg             = 1,
(PID.TID 0000.0001) > nstep            = 1,
(PID.TID 0000.0001) > nend             = 3,
(PID.TID 0000.0001) > grdchkvarindex   = 101,
(PID.TID 0000.0001) > /
(PID.TID 0000.0001) 
(PID.TID 0000.0001) GRDCHK_READPARMS: finished reading data.grdchk
(PID.TID 0000.0001) 
(PID.TID 0000.0001) // =======================================================
(PID.TID 0000.0001) // Gradient check configuration  >>> START <<<
(PID.TID 0000.0001) // =======================================================
(PID.TID 0000.0001) 
(PID.TID 0000.0001)   grdchkvarindex :                        101
(PID.TID 0000.0001)   eps:                              0.100E-03
(PID.TID 0000.0001)   First location:                           0
(PID.TID 0000.0001)   Last location:                            3
(PID.TID 0000.0001)   Increment:                                1
(PID.TID 0000.0001)   grdchkWhichProc:                          0
(PID.TID 0000.0001)   iLocTile =       2  ,    jLocTile =       2
(PID.TID 0000.0001) 
(PID.TID 0000.0001) // =======================================================
(PID.TID 0000.0001) // Gradient check configuration  >>> END <<<
(PID.TID 0000.0001) // =======================================================
(PID.TID 0000.0001) 
(PID.TID 0000.0001) SET_PARMS: done
(PID.TID 0000.0001) Enter INI_VERTICAL_GRID: setInterFDr=    T ; setCenterDr=    F
(PID.TID 0000.0001) %MON XC_max                       =   3.5800000000000E+02
(PID.TID 0000.0001) %MON XC_min                       =   2.0000000000000E+00
(PID.TID 0000.0001) %MON XC_mean                      =   1.8000000000000E+02
(PID.TID 0000.0001) %MON XC_sd                        =   1.0391663325314E+02
(PID.TID 0000.0001) %MON XG_max                       =   3.5600000000000E+02
(PID.TID 0000.0001) %MON XG_min                       =   0.0000000000000E+00
(PID.TID 0000.0001) %MON XG_mean                      =   1.7800000000000E+02
(PID.TID 0000.0001) %MON XG_sd                        =   1.0391663325314E+02
(PID.TID 0000.0001) %MON DXC_max                      =   4.4443898815675E+05
(PID.TID 0000.0001) %MON DXC_min                      =   9.2460385861875E+04
(PID.TID 0000.0001) %MON DXC_mean                     =   3.1372497618153E+05
(PID.TID 0000.0001) %MON DXC_sd                       =   1.1216447457560E+05
(PID.TID 0000.0001) %MON DXF_max                      =   4.4443898815675E+05
(PID.TID 0000.0001) %MON DXF_min                      =   9.2460385861875E+04
(PID.TID 0000.0001) %MON DXF_mean                     =   3.1372497618153E+05
(PID.TID 0000.0001) %MON DXF_sd                       =   1.1216447457560E+05
(PID.TID 0000.0001) %MON DXG_max                      =   4.4470989340816E+05
(PID.TID 0000.0001) %MON DXG_min                      =   7.7223062580781E+04
(PID.TID 0000.0001) %MON DXG_mean                     =   3.1353386340261E+05
(PID.TID 0000.0001) %MON DXG_sd                       =   1.1256651772502E+05
(PID.TID 0000.0001) %MON DXV_max                      =   4.4470989340816E+05
(PID.TID 0000.0001) %MON DXV_min                      =   7.7223062580781E+04
(PID.TID 0000.0001) %MON DXV_mean                     =   3.1353386340261E+05
(PID.TID 0000.0001) %MON DXV_sd                       =   1.1256651772502E+05
(PID.TID 0000.0001) %MON YC_max                       =   7.8000000000000E+01
(PID.TID 0000.0001) %MON YC_min                       =  -7.8000000000000E+01
(PID.TID 0000.0001) %MON YC_mean                      =   0.0000000000000E+00
(PID.TID 0000.0001) %MON YC_sd                        =   4.6173585522461E+01
(PID.TID 0000.0001) %MON YG_max                       =   7.6000000000000E+01
(PID.TID 0000.0001) %MON YG_min                       =  -8.0000000000000E+01
(PID.TID 0000.0001) %MON YG_mean                      =  -2.0000000000000E+00
(PID.TID 0000.0001) %MON YG_sd                        =   4.6173585522461E+01
(PID.TID 0000.0001) %MON DYC_max                      =   4.4470989340816E+05
(PID.TID 0000.0001) %MON DYC_min                      =   4.4470989340816E+05
(PID.TID 0000.0001) %MON DYC_mean                     =   4.4470989340816E+05
(PID.TID 0000.0001) %MON DYC_sd                       =   5.2968971431255E-09
(PID.TID 0000.0001) %MON DYF_max                      =   4.4470989340816E+05
(PID.TID 0000.0001) %MON DYF_min                      =   4.4470989340816E+05
(PID.TID 0000.0001) %MON DYF_mean                     =   4.4470989340816E+05
(PID.TID 0000.0001) %MON DYF_sd                       =   5.2968971431255E-09
(PID.TID 0000.0001) %MON DYG_max                      =   4.4470989340816E+05
(PID.TID 0000.0001) %MON DYG_min                      =   4.4470989340816E+05
(PID.TID 0000.0001) %MON DYG_mean                     =   4.4470989340816E+05
(PID.TID 0000.0001) %MON DYG_sd                       =   5.2968971431255E-09
(PID.TID 0000.0001) %MON DYU_max                      =   4.4470989340816E+05
(PID.TID 0000.0001) %MON DYU_min                      =   4.4470989340816E+05
(PID.TID 0000.0001) %MON DYU_mean                     =   4.4470989340816E+05
(PID.TID 0000.0001) %MON DYU_sd                       =   5.2968971431255E-09
(PID.TID 0000.0001) %MON RA_max                       =   1.9760627980089E+11
(PID.TID 0000.0001) %MON RA_min                       =   4.1109698667290E+10
(PID.TID 0000.0001) %MON RA_mean                      =   1.3948826965196E+11
(PID.TID 0000.0001) %MON RA_sd                        =   4.9870522472902E+10
(PID.TID 0000.0001) %MON RAW_max                      =   1.9760627980089E+11
(PID.TID 0000.0001) %MON RAW_min                      =   4.1109698667290E+10
(PID.TID 0000.0001) %MON RAW_mean                     =   1.3948826965196E+11
(PID.TID 0000.0001) %MON RAW_sd                       =   4.9870522472902E+10
(PID.TID 0000.0001) %MON RAS_max                      =   1.9772672958215E+11
(PID.TID 0000.0001) %MON RAS_min                      =   3.4334886267983E+10
(PID.TID 0000.0001) %MON RAS_mean                     =   1.3940329716694E+11
(PID.TID 0000.0001) %MON RAS_sd                       =   5.0049278732353E+10
(PID.TID 0000.0001) %MON RAZ_max                      =   1.9772672958215E+11
(PID.TID 0000.0001) %MON RAZ_min                      =   3.4334886267983E+10
(PID.TID 0000.0001) %MON RAZ_mean                     =   1.3940329716694E+11
(PID.TID 0000.0001) %MON RAZ_sd                       =   5.0049278732353E+10
(PID.TID 0000.0001) %MON AngleCS_max                  =   1.0000000000000E+00
(PID.TID 0000.0001) %MON AngleCS_min                  =   1.0000000000000E+00
(PID.TID 0000.0001) %MON AngleCS_mean                 =   1.0000000000000E+00
(PID.TID 0000.0001) %MON AngleCS_sd                   =   0.0000000000000E+00
(PID.TID 0000.0001) %MON AngleSN_max                  =   0.0000000000000E+00
(PID.TID 0000.0001) %MON AngleSN_min                  =   0.0000000000000E+00
(PID.TID 0000.0001) %MON AngleSN_mean                 =   0.0000000000000E+00
(PID.TID 0000.0001) %MON AngleSN_sd                   =   0.0000000000000E+00
(PID.TID 0000.0001) GAD_INIT_FIXED: GAD_OlMinSize=  2  0  1
(PID.TID 0000.0001) 
(PID.TID 0000.0001) // ===================================
(PID.TID 0000.0001) // GAD parameters :
(PID.TID 0000.0001) // ===================================
(PID.TID 0000.0001) tempAdvScheme =   /* Temp. Horiz.Advection scheme selector */
(PID.TID 0000.0001)                      30
(PID.TID 0000.0001)     ;
(PID.TID 0000.0001) tempVertAdvScheme =   /* Temp. Vert. Advection scheme selector */
(PID.TID 0000.0001)                      20
(PID.TID 0000.0001)     ;
(PID.TID 0000.0001) tempMultiDimAdvec =   /* use Muti-Dim Advec method for Temp */
(PID.TID 0000.0001)                   T
(PID.TID 0000.0001)     ;
(PID.TID 0000.0001) tempSOM_Advection = /* use 2nd Order Moment Advection for Temp */
(PID.TID 0000.0001)                   F
(PID.TID 0000.0001)     ;
(PID.TID 0000.0001) AdamsBashforthGt = /* apply Adams-Bashforth extrapolation on Gt */
(PID.TID 0000.0001)                   F
(PID.TID 0000.0001)     ;
(PID.TID 0000.0001) AdamsBashforth_T = /* apply Adams-Bashforth extrapolation on Temp */
(PID.TID 0000.0001)                   F
(PID.TID 0000.0001)     ;
(PID.TID 0000.0001) saltAdvScheme =   /* Salt. Horiz.advection scheme selector */
(PID.TID 0000.0001)                      30
(PID.TID 0000.0001)     ;
(PID.TID 0000.0001) saltVertAdvScheme =   /* Salt. Vert. Advection scheme selector */
(PID.TID 0000.0001)                      20
(PID.TID 0000.0001)     ;
(PID.TID 0000.0001) saltMultiDimAdvec =   /* use Muti-Dim Advec method for Salt */
(PID.TID 0000.0001)                   T
(PID.TID 0000.0001)     ;
(PID.TID 0000.0001) saltSOM_Advection = /* use 2nd Order Moment Advection for Salt */
(PID.TID 0000.0001)                   F
(PID.TID 0000.0001)     ;
(PID.TID 0000.0001) AdamsBashforthGs = /* apply Adams-Bashforth extrapolation on Gs */
(PID.TID 0000.0001)                   F
(PID.TID 0000.0001)     ;
(PID.TID 0000.0001) AdamsBashforth_S = /* apply Adams-Bashforth extrapolation on Salt */
(PID.TID 0000.0001)                   F
(PID.TID 0000.0001)     ;
(PID.TID 0000.0001) // ===================================
(PID.TID 0000.0001) ctrl-wet 1:    nvarlength =         2315
(PID.TID 0000.0001) ctrl-wet 2: surface wet C =          669
(PID.TID 0000.0001) ctrl-wet 3: surface wet W =          640
(PID.TID 0000.0001) ctrl-wet 4: surface wet S =          610
(PID.TID 0000.0001) ctrl-wet 4a:surface wet V =            0
(PID.TID 0000.0001) ctrl-wet 5: 3D wet points =         8651
(PID.TID 0000.0001) ctrl-wet 6: no recs for i =     1           0
(PID.TID 0000.0001) ctrl-wet 6: no recs for i =     2           0
(PID.TID 0000.0001) ctrl-wet 6: no recs for i =     3           0
(PID.TID 0000.0001) ctrl-wet 6: no recs for i =     4           0
(PID.TID 0000.0001) ctrl-wet 6: no recs for i =     5           0
(PID.TID 0000.0001) ctrl-wet 6: no recs for i =     6           0
(PID.TID 0000.0001) ctrl-wet 6: no recs for i =     7           0
(PID.TID 0000.0001) ctrl-wet 6: no recs for i =     8           0
(PID.TID 0000.0001) ctrl-wet 6: no recs for i =     9           0
(PID.TID 0000.0001) ctrl-wet 6: no recs for i =    10           0
(PID.TID 0000.0001) ctrl-wet 6: no recs for i =    11           0
(PID.TID 0000.0001) ctrl-wet 6: no recs for i =    12           0
(PID.TID 0000.0001) ctrl-wet 6: no recs for i =    13           0
(PID.TID 0000.0001) ctrl-wet 6: no recs for i =    14           0
(PID.TID 0000.0001) ctrl-wet 6: no recs for i =    15           0
(PID.TID 0000.0001) ctrl-wet 6: no recs for i =    16           0
(PID.TID 0000.0001) ctrl-wet 6: no recs for i =    17           0
(PID.TID 0000.0001) ctrl-wet 6: no recs for i =    18           0
(PID.TID 0000.0001) ctrl-wet 6: no recs for i =    19           0
(PID.TID 0000.0001) ctrl-wet 6: no recs for i =    20           0
(PID.TID 0000.0001) ctrl-wet 6: no recs for i =    21           0
(PID.TID 0000.0001) ctrl-wet 6: no recs for i =    22           0
(PID.TID 0000.0001) ctrl-wet 6: no recs for i =    23           0
(PID.TID 0000.0001) ctrl-wet 6: no recs for i =    24           0
(PID.TID 0000.0001) ctrl-wet 6: no recs for i =    25           0
(PID.TID 0000.0001) ctrl-wet 6: no recs for i =    26           0
(PID.TID 0000.0001) ctrl-wet 6: no recs for i =    27           0
(PID.TID 0000.0001) ctrl-wet 6: no recs for i =    28           0
(PID.TID 0000.0001) ctrl-wet 6: no recs for i =    29           0
(PID.TID 0000.0001) ctrl-wet 6: no recs for i =    30           0
(PID.TID 0000.0001) ctrl-wet 6: no recs for i =    31           0
(PID.TID 0000.0001) ctrl-wet 6: no recs for i =    32           0
(PID.TID 0000.0001) ctrl-wet 6: no recs for i =    33           0
(PID.TID 0000.0001) ctrl-wet 6: no recs for i =    34           0
(PID.TID 0000.0001) ctrl-wet 6: no recs for i =    35           0
(PID.TID 0000.0001) ctrl-wet 6: no recs for i =    36           0
(PID.TID 0000.0001) ctrl-wet 6: no recs for i =    37           0
(PID.TID 0000.0001) ctrl-wet 6: no recs for i =    38           0
(PID.TID 0000.0001) ctrl-wet 6: no recs for i =    39           0
(PID.TID 0000.0001) ctrl-wet 6: no recs for i =    40           0
(PID.TID 0000.0001) ctrl-wet 6: no recs for i =    41           0
(PID.TID 0000.0001) ctrl-wet 6: no recs for i =    42           0
(PID.TID 0000.0001) ctrl-wet 6: no recs for i =    43           0
(PID.TID 0000.0001) ctrl-wet 6: no recs for i =    44           0
(PID.TID 0000.0001) ctrl-wet 6: no recs for i =    45           0
(PID.TID 0000.0001) ctrl-wet 6: no recs for i =    46           0
(PID.TID 0000.0001) ctrl-wet 6: no recs for i =    47           0
(PID.TID 0000.0001) ctrl-wet 6: no recs for i =    48           0
(PID.TID 0000.0001) ctrl-wet 6: no recs for i =    49           0
(PID.TID 0000.0001) ctrl-wet 6: no recs for i =    50           0
(PID.TID 0000.0001) ctrl-wet 6: no recs for i =    51           0
(PID.TID 0000.0001) ctrl-wet 6: no recs for i =    52           0
(PID.TID 0000.0001) ctrl-wet 6: no recs for i =    53           0
(PID.TID 0000.0001) ctrl-wet 6: no recs for i =    54           0
(PID.TID 0000.0001) ctrl-wet 6: no recs for i =    55           0
(PID.TID 0000.0001) ctrl-wet 6: no recs for i =    56           0
(PID.TID 0000.0001) ctrl-wet 6: no recs for i =    57           0
(PID.TID 0000.0001) ctrl-wet 6: no recs for i =    58           0
(PID.TID 0000.0001) ctrl-wet 6: no recs for i =    59           0
(PID.TID 0000.0001) ctrl-wet 6: no recs for i =    60           0
(PID.TID 0000.0001) ctrl-wet 6: no recs for i =    61           0
(PID.TID 0000.0001) ctrl-wet 6: no recs for i =    62           0
(PID.TID 0000.0001) ctrl-wet 6: no recs for i =    63           0
(PID.TID 0000.0001) ctrl-wet 6: no recs for i =    64           0
(PID.TID 0000.0001) ctrl-wet 6: no recs for i =    65           0
(PID.TID 0000.0001) ctrl-wet 6: no recs for i =    66           0
(PID.TID 0000.0001) ctrl-wet 6: no recs for i =    67           0
(PID.TID 0000.0001) ctrl-wet 6: no recs for i =    68           0
(PID.TID 0000.0001) ctrl-wet 6: no recs for i =    69           0
(PID.TID 0000.0001) ctrl-wet 6: no recs for i =    70           0
(PID.TID 0000.0001) ctrl-wet 6: no recs for i =    71           0
(PID.TID 0000.0001) ctrl-wet 6: no recs for i =    72           0
(PID.TID 0000.0001) ctrl-wet 6: no recs for i =    73           0
(PID.TID 0000.0001) ctrl-wet 6: no recs for i =    74           0
(PID.TID 0000.0001) ctrl-wet 6: no recs for i =    75           0
(PID.TID 0000.0001) ctrl-wet 6: no recs for i =    76           0
(PID.TID 0000.0001) ctrl-wet 6: no recs for i =    77           0
(PID.TID 0000.0001) ctrl-wet 6: no recs for i =    78           0
(PID.TID 0000.0001) ctrl-wet 6: no recs for i =    79           0
(PID.TID 0000.0001) ctrl-wet 6: no recs for i =    80           0
(PID.TID 0000.0001) ctrl-wet 6: no recs for i =    81           0
(PID.TID 0000.0001) ctrl-wet 6: no recs for i =    82           0
(PID.TID 0000.0001) ctrl-wet 6: no recs for i =    83           0
(PID.TID 0000.0001) ctrl-wet 6: no recs for i =    84           0
(PID.TID 0000.0001) ctrl-wet 6: no recs for i =    85           0
(PID.TID 0000.0001) ctrl-wet 6: no recs for i =    86           0
(PID.TID 0000.0001) ctrl-wet 6: no recs for i =    87           0
(PID.TID 0000.0001) ctrl-wet 6: no recs for i =    88           0
(PID.TID 0000.0001) ctrl-wet 6: no recs for i =    89           0
(PID.TID 0000.0001) ctrl-wet 6: no recs for i =    90           0
(PID.TID 0000.0001) ctrl-wet 6: no recs for i =    91           0
(PID.TID 0000.0001) ctrl-wet 6: no recs for i =    92           0
(PID.TID 0000.0001) ctrl-wet 6: no recs for i =    93           0
(PID.TID 0000.0001) ctrl-wet 6: no recs for i =    94           0
(PID.TID 0000.0001) ctrl-wet 6: no recs for i =    95           0
(PID.TID 0000.0001) ctrl-wet 6: no recs for i =    96           0
(PID.TID 0000.0001) ctrl-wet 6: no recs for i =    97           0
(PID.TID 0000.0001) ctrl-wet 6: no recs for i =    98           0
(PID.TID 0000.0001) ctrl-wet 6: no recs for i =    99           0
(PID.TID 0000.0001) ctrl-wet 6: no recs for i =   100           0
(PID.TID 0000.0001) ctrl-wet 6: no recs for i =   101           1
(PID.TID 0000.0001) ctrl-wet 6: no recs for i =   102           0
(PID.TID 0000.0001) ctrl-wet 6: no recs for i =   103           0
(PID.TID 0000.0001) ctrl-wet 6: no recs for i =   104           0
(PID.TID 0000.0001) ctrl-wet 6: no recs for i =   105           0
(PID.TID 0000.0001) ctrl-wet 6: no recs for i =   106           0
(PID.TID 0000.0001) ctrl-wet 6: no recs for i =   107           0
(PID.TID 0000.0001) ctrl-wet 6: no recs for i =   108           0
(PID.TID 0000.0001) ctrl-wet 6: no recs for i =   109           0
(PID.TID 0000.0001) ctrl-wet 6: no recs for i =   110           0
(PID.TID 0000.0001) ctrl-wet 6: no recs for i =   111           0
(PID.TID 0000.0001) ctrl-wet 6: no recs for i =   112           0
(PID.TID 0000.0001) ctrl-wet 6: no recs for i =   113           0
(PID.TID 0000.0001) ctrl-wet 6: no recs for i =   114           0
(PID.TID 0000.0001) ctrl-wet 6: no recs for i =   115           0
(PID.TID 0000.0001) ctrl-wet 6: no recs for i =   116           0
(PID.TID 0000.0001) ctrl-wet 6: no recs for i =   117           0
(PID.TID 0000.0001) ctrl-wet 6: no recs for i =   118           0
(PID.TID 0000.0001) ctrl-wet 6: no recs for i =   119           0
(PID.TID 0000.0001) ctrl-wet 6: no recs for i =   120           0
(PID.TID 0000.0001) ctrl-wet 6: no recs for i =   121           0
(PID.TID 0000.0001) ctrl-wet 6: no recs for i =   122           0
(PID.TID 0000.0001) ctrl-wet 6: no recs for i =   123           0
(PID.TID 0000.0001) ctrl-wet 6: no recs for i =   124           0
(PID.TID 0000.0001) ctrl-wet 6: no recs for i =   125           0
(PID.TID 0000.0001) ctrl-wet 6: no recs for i =   126           0
(PID.TID 0000.0001) ctrl-wet 6: no recs for i =   127           0
(PID.TID 0000.0001) ctrl-wet 6: no recs for i =   128           0
(PID.TID 0000.0001) ctrl-wet 6: no recs for i =   129           0
(PID.TID 0000.0001) ctrl-wet 6: no recs for i =   130           0
(PID.TID 0000.0001) ctrl-wet 6: no recs for i =   131           0
(PID.TID 0000.0001) ctrl-wet 6: no recs for i =   132           0
(PID.TID 0000.0001) ctrl-wet 6: no recs for i =   133           0
(PID.TID 0000.0001) ctrl-wet 6: no recs for i =   134           0
(PID.TID 0000.0001) ctrl-wet 6: no recs for i =   135           0
(PID.TID 0000.0001) ctrl-wet 6: no recs for i =   136           0
(PID.TID 0000.0001) ctrl-wet 6: no recs for i =   137           0
(PID.TID 0000.0001) ctrl-wet 6: no recs for i =   138           0
(PID.TID 0000.0001) ctrl-wet 6: no recs for i =   139           0
(PID.TID 0000.0001) ctrl-wet 6: no recs for i =   140           0
(PID.TID 0000.0001) ctrl-wet 6: no recs for i =   141           0
(PID.TID 0000.0001) ctrl-wet 6: no recs for i =   142           0
(PID.TID 0000.0001) ctrl-wet 6: no recs for i =   143           0
(PID.TID 0000.0001) ctrl-wet 6: no recs for i =   144           0
(PID.TID 0000.0001) ctrl-wet 6: no recs for i =   145           0
(PID.TID 0000.0001) ctrl-wet 6: no recs for i =   146           0
(PID.TID 0000.0001) ctrl-wet 6: no recs for i =   147           0
(PID.TID 0000.0001) ctrl-wet 6: no recs for i =   148           0
(PID.TID 0000.0001) ctrl-wet 6: no recs for i =   149           0
(PID.TID 0000.0001) ctrl-wet 6: no recs for i =   150           0
(PID.TID 0000.0001) ctrl-wet 6: no recs for i =   151           0
(PID.TID 0000.0001) ctrl-wet 6: no recs for i =   152           0
(PID.TID 0000.0001) ctrl-wet 6: no recs for i =   153           0
(PID.TID 0000.0001) ctrl-wet 6: no recs for i =   154           0
(PID.TID 0000.0001) ctrl-wet 6: no recs for i =   155           0
(PID.TID 0000.0001) ctrl-wet 6: no recs for i =   156           0
(PID.TID 0000.0001) ctrl-wet 6: no recs for i =   157           0
(PID.TID 0000.0001) ctrl-wet 6: no recs for i =   158           0
(PID.TID 0000.0001) ctrl-wet 6: no recs for i =   159           0
(PID.TID 0000.0001) ctrl-wet 6: no recs for i =   160           0
(PID.TID 0000.0001) ctrl-wet 6: no recs for i =   161           0
(PID.TID 0000.0001) ctrl-wet 6: no recs for i =   162           0
(PID.TID 0000.0001) ctrl-wet 6: no recs for i =   163           0
(PID.TID 0000.0001) ctrl-wet 6: no recs for i =   164           0
(PID.TID 0000.0001) ctrl-wet 6: no recs for i =   165           0
(PID.TID 0000.0001) ctrl-wet 6: no recs for i =   166           0
(PID.TID 0000.0001) ctrl-wet 6: no recs for i =   167           0
(PID.TID 0000.0001) ctrl-wet 6: no recs for i =   168           0
(PID.TID 0000.0001) ctrl-wet 6: no recs for i =   169           0
(PID.TID 0000.0001) ctrl-wet 6: no recs for i =   170           0
(PID.TID 0000.0001) ctrl-wet 6: no recs for i =   171           0
(PID.TID 0000.0001) ctrl-wet 6: no recs for i =   172           0
(PID.TID 0000.0001) ctrl-wet 6: no recs for i =   173           0
(PID.TID 0000.0001) ctrl-wet 6: no recs for i =   174           0
(PID.TID 0000.0001) ctrl-wet 6: no recs for i =   175           0
(PID.TID 0000.0001) ctrl-wet 6: no recs for i =   176           0
(PID.TID 0000.0001) ctrl-wet 6: no recs for i =   177           0
(PID.TID 0000.0001) ctrl-wet 6: no recs for i =   178           0
(PID.TID 0000.0001) ctrl-wet 6: no recs for i =   179           0
(PID.TID 0000.0001) ctrl-wet 6: no recs for i =   180           0
(PID.TID 0000.0001) ctrl-wet 6: no recs for i =   181           0
(PID.TID 0000.0001) ctrl-wet 6: no recs for i =   182           0
(PID.TID 0000.0001) ctrl-wet 6: no recs for i =   183           0
(PID.TID 0000.0001) ctrl-wet 6: no recs for i =   184           0
(PID.TID 0000.0001) ctrl-wet 6: no recs for i =   185           0
(PID.TID 0000.0001) ctrl-wet 6: no recs for i =   186           0
(PID.TID 0000.0001) ctrl-wet 6: no recs for i =   187           0
(PID.TID 0000.0001) ctrl-wet 6: no recs for i =   188           0
(PID.TID 0000.0001) ctrl-wet 6: no recs for i =   189           0
(PID.TID 0000.0001) ctrl-wet 6: no recs for i =   190           0
(PID.TID 0000.0001) ctrl-wet 6: no recs for i =   191           0
(PID.TID 0000.0001) ctrl-wet 6: no recs for i =   192           0
(PID.TID 0000.0001) ctrl-wet 6: no recs for i =   193           0
(PID.TID 0000.0001) ctrl-wet 6: no recs for i =   194           0
(PID.TID 0000.0001) ctrl-wet 6: no recs for i =   195           0
(PID.TID 0000.0001) ctrl-wet 6: no recs for i =   196           0
(PID.TID 0000.0001) ctrl-wet 6: no recs for i =   197           0
(PID.TID 0000.0001) ctrl-wet 6: no recs for i =   198           0
(PID.TID 0000.0001) ctrl-wet 6: no recs for i =   199           0
(PID.TID 0000.0001) ctrl-wet 6: no recs for i =   200           0
(PID.TID 0000.0001) ctrl-wet 6: no recs for i =   201           0
(PID.TID 0000.0001) ctrl-wet 6: no recs for i =   202           0
(PID.TID 0000.0001) ctrl-wet 6: no recs for i =   203           0
(PID.TID 0000.0001) ctrl-wet 6: no recs for i =   204           0
(PID.TID 0000.0001) ctrl-wet 6: no recs for i =   205           0
(PID.TID 0000.0001) ctrl-wet 6: no recs for i =   206           0
(PID.TID 0000.0001) ctrl-wet 6: no recs for i =   207           0
(PID.TID 0000.0001) ctrl-wet 6: no recs for i =   208           0
(PID.TID 0000.0001) ctrl-wet 6: no recs for i =   209           0
(PID.TID 0000.0001) ctrl-wet 6: no recs for i =   210           0
(PID.TID 0000.0001) ctrl-wet 6: no recs for i =   211           0
(PID.TID 0000.0001) ctrl-wet 6: no recs for i =   212           0
(PID.TID 0000.0001) ctrl-wet 6: no recs for i =   213           0
(PID.TID 0000.0001) ctrl-wet 6: no recs for i =   214           0
(PID.TID 0000.0001) ctrl-wet 6: no recs for i =   215           0
(PID.TID 0000.0001) ctrl-wet 6: no recs for i =   216           0
(PID.TID 0000.0001) ctrl-wet 6: no recs for i =   217           0
(PID.TID 0000.0001) ctrl-wet 6: no recs for i =   218           0
(PID.TID 0000.0001) ctrl-wet 6: no recs for i =   219           0
(PID.TID 0000.0001) ctrl-wet 6: no recs for i =   220           0
(PID.TID 0000.0001) ctrl-wet 6: no recs for i =   221           0
(PID.TID 0000.0001) ctrl-wet 6: no recs for i =   222           0
(PID.TID 0000.0001) ctrl-wet 6: no recs for i =   223           0
(PID.TID 0000.0001) ctrl-wet 6: no recs for i =   224           0
(PID.TID 0000.0001) ctrl-wet 6: no recs for i =   225           0
(PID.TID 0000.0001) ctrl-wet 6: no recs for i =   226           0
(PID.TID 0000.0001) ctrl-wet 6: no recs for i =   227           0
(PID.TID 0000.0001) ctrl-wet 6: no recs for i =   228           0
(PID.TID 0000.0001) ctrl-wet 6: no recs for i =   229           0
(PID.TID 0000.0001) ctrl-wet 6: no recs for i =   230           0
(PID.TID 0000.0001) ctrl-wet 6: no recs for i =   231           0
(PID.TID 0000.0001) ctrl-wet 6: no recs for i =   232           0
(PID.TID 0000.0001) ctrl-wet 6: no recs for i =   233           0
(PID.TID 0000.0001) ctrl-wet 6: no recs for i =   234           0
(PID.TID 0000.0001) ctrl-wet 6: no recs for i =   235           0
(PID.TID 0000.0001) ctrl-wet 6: no recs for i =   236           0
(PID.TID 0000.0001) ctrl-wet 6: no recs for i =   237           0
(PID.TID 0000.0001) ctrl-wet 6: no recs for i =   238           0
(PID.TID 0000.0001) ctrl-wet 6: no recs for i =   239           0
(PID.TID 0000.0001) ctrl-wet 6: no recs for i =   240           0
(PID.TID 0000.0001) ctrl-wet 6: no recs for i =   241           0
(PID.TID 0000.0001) ctrl-wet 6: no recs for i =   242           0
(PID.TID 0000.0001) ctrl-wet 6: no recs for i =   243           0
(PID.TID 0000.0001) ctrl-wet 6: no recs for i =   244           0
(PID.TID 0000.0001) ctrl-wet 6: no recs for i =   245           0
(PID.TID 0000.0001) ctrl-wet 6: no recs for i =   246           0
(PID.TID 0000.0001) ctrl-wet 6: no recs for i =   247           0
(PID.TID 0000.0001) ctrl-wet 6: no recs for i =   248           0
(PID.TID 0000.0001) ctrl-wet 6: no recs for i =   249           0
(PID.TID 0000.0001) ctrl-wet 6: no recs for i =   250           0
(PID.TID 0000.0001) ctrl-wet 6: no recs for i =   251           0
(PID.TID 0000.0001) ctrl-wet 6: no recs for i =   252           0
(PID.TID 0000.0001) ctrl-wet 6: no recs for i =   253           0
(PID.TID 0000.0001) ctrl-wet 6: no recs for i =   254           0
(PID.TID 0000.0001) ctrl-wet 6: no recs for i =   255           0
(PID.TID 0000.0001) ctrl-wet 6: no recs for i =   256           0
(PID.TID 0000.0001) ctrl-wet 6: no recs for i =   257           0
(PID.TID 0000.0001) ctrl-wet 6: no recs for i =   258           0
(PID.TID 0000.0001) ctrl-wet 6: no recs for i =   259           0
(PID.TID 0000.0001) ctrl-wet 6: no recs for i =   260           0
(PID.TID 0000.0001) ctrl-wet 6: no recs for i =   261           0
(PID.TID 0000.0001) ctrl-wet 6: no recs for i =   262           0
(PID.TID 0000.0001) ctrl-wet 6: no recs for i =   263           0
(PID.TID 0000.0001) ctrl-wet 6: no recs for i =   264           0
(PID.TID 0000.0001) ctrl-wet 6: no recs for i =   265           0
(PID.TID 0000.0001) ctrl-wet 6: no recs for i =   266           0
(PID.TID 0000.0001) ctrl-wet 6: no recs for i =   267           0
(PID.TID 0000.0001) ctrl-wet 6: no recs for i =   268           0
(PID.TID 0000.0001) ctrl-wet 6: no recs for i =   269           0
(PID.TID 0000.0001) ctrl-wet 6: no recs for i =   270           0
(PID.TID 0000.0001) ctrl-wet 6: no recs for i =   271           0
(PID.TID 0000.0001) ctrl-wet 6: no recs for i =   272           0
(PID.TID 0000.0001) ctrl-wet 6: no recs for i =   273           0
(PID.TID 0000.0001) ctrl-wet 6: no recs for i =   274           0
(PID.TID 0000.0001) ctrl-wet 6: no recs for i =   275           0
(PID.TID 0000.0001) ctrl-wet 6: no recs for i =   276           0
(PID.TID 0000.0001) ctrl-wet 6: no recs for i =   277           0
(PID.TID 0000.0001) ctrl-wet 6: no recs for i =   278           0
(PID.TID 0000.0001) ctrl-wet 6: no recs for i =   279           0
(PID.TID 0000.0001) ctrl-wet 6: no recs for i =   280           0
(PID.TID 0000.0001) ctrl-wet 6: no recs for i =   281           0
(PID.TID 0000.0001) ctrl-wet 6: no recs for i =   282           0
(PID.TID 0000.0001) ctrl-wet 6: no recs for i =   283           0
(PID.TID 0000.0001) ctrl-wet 6: no recs for i =   284           0
(PID.TID 0000.0001) ctrl-wet 6: no recs for i =   285           0
(PID.TID 0000.0001) ctrl-wet 6: no recs for i =   286           0
(PID.TID 0000.0001) ctrl-wet 6: no recs for i =   287           0
(PID.TID 0000.0001) ctrl-wet 6: no recs for i =   288           0
(PID.TID 0000.0001) ctrl-wet 6: no recs for i =   289           0
(PID.TID 0000.0001) ctrl-wet 6: no recs for i =   290           0
(PID.TID 0000.0001) ctrl-wet 6: no recs for i =   291           0
(PID.TID 0000.0001) ctrl-wet 6: no recs for i =   292           0
(PID.TID 0000.0001) ctrl-wet 6: no recs for i =   293           0
(PID.TID 0000.0001) ctrl-wet 6: no recs for i =   294           0
(PID.TID 0000.0001) ctrl-wet 6: no recs for i =   295           0
(PID.TID 0000.0001) ctrl-wet 6: no recs for i =   296           0
(PID.TID 0000.0001) ctrl-wet 6: no recs for i =   297           0
(PID.TID 0000.0001) ctrl-wet 6: no recs for i =   298           0
(PID.TID 0000.0001) ctrl-wet 6: no recs for i =   299           0
(PID.TID 0000.0001) ctrl-wet 6: no recs for i =   300           0
(PID.TID 0000.0001) ctrl-wet 6: no recs for i =   301           0
(PID.TID 0000.0001) ctrl-wet 6: no recs for i =   302           0
(PID.TID 0000.0001) ctrl-wet 6: no recs for i =   303           0
(PID.TID 0000.0001) ctrl-wet 6: no recs for i =   304           0
(PID.TID 0000.0001) ctrl-wet 6: no recs for i =   305           0
(PID.TID 0000.0001) ctrl-wet 6: no recs for i =   306           0
(PID.TID 0000.0001) ctrl-wet 6: no recs for i =   307           0
(PID.TID 0000.0001) ctrl-wet 6: no recs for i =   308           0
(PID.TID 0000.0001) ctrl-wet 6: no recs for i =   309           0
(PID.TID 0000.0001) ctrl-wet 6: no recs for i =   310           0
(PID.TID 0000.0001) ctrl-wet 6: no recs for i =   311           0
(PID.TID 0000.0001) ctrl-wet 6: no recs for i =   312           0
(PID.TID 0000.0001) ctrl-wet 6: no recs for i =   313           0
(PID.TID 0000.0001) ctrl-wet 6: no recs for i =   314           0
(PID.TID 0000.0001) ctrl-wet 6: no recs for i =   315           0
(PID.TID 0000.0001) ctrl-wet 6: no recs for i =   316           0
(PID.TID 0000.0001) ctrl-wet 6: no recs for i =   317           0
(PID.TID 0000.0001) ctrl-wet 6: no recs for i =   318           0
(PID.TID 0000.0001) ctrl-wet 6: no recs for i =   319           0
(PID.TID 0000.0001) ctrl-wet 6: no recs for i =   320           0
(PID.TID 0000.0001) ctrl-wet 6: no recs for i =   321           0
(PID.TID 0000.0001) ctrl-wet 6: no recs for i =   322           0
(PID.TID 0000.0001) ctrl-wet 6: no recs for i =   323           0
(PID.TID 0000.0001) ctrl-wet 6: no recs for i =   324           0
(PID.TID 0000.0001) ctrl-wet 6: no recs for i =   325           0
(PID.TID 0000.0001) ctrl-wet 6: no recs for i =   326           0
(PID.TID 0000.0001) ctrl-wet 6: no recs for i =   327           0
(PID.TID 0000.0001) ctrl-wet 6: no recs for i =   328           0
(PID.TID 0000.0001) ctrl-wet 6: no recs for i =   329           0
(PID.TID 0000.0001) ctrl-wet 6: no recs for i =   330           0
(PID.TID 0000.0001) ctrl-wet 6: no recs for i =   331           0
(PID.TID 0000.0001) ctrl-wet 6: no recs for i =   332           0
(PID.TID 0000.0001) ctrl-wet 6: no recs for i =   333           0
(PID.TID 0000.0001) ctrl-wet 6: no recs for i =   334           0
(PID.TID 0000.0001) ctrl-wet 6: no recs for i =   335           0
(PID.TID 0000.0001) ctrl-wet 6: no recs for i =   336           0
(PID.TID 0000.0001) ctrl-wet 6: no recs for i =   337           0
(PID.TID 0000.0001) ctrl-wet 6: no recs for i =   338           0
(PID.TID 0000.0001) ctrl-wet 6: no recs for i =   339           0
(PID.TID 0000.0001) ctrl-wet 6: no recs for i =   340           0
(PID.TID 0000.0001) ctrl-wet 6: no recs for i =   341           0
(PID.TID 0000.0001) ctrl-wet 6: no recs for i =   342           0
(PID.TID 0000.0001) ctrl-wet 6: no recs for i =   343           0
(PID.TID 0000.0001) ctrl-wet 6: no recs for i =   344           0
(PID.TID 0000.0001) ctrl-wet 6: no recs for i =   345           0
(PID.TID 0000.0001) ctrl-wet 6: no recs for i =   346           0
(PID.TID 0000.0001) ctrl-wet 6: no recs for i =   347           0
(PID.TID 0000.0001) ctrl-wet 6: no recs for i =   348           0
(PID.TID 0000.0001) ctrl-wet 6: no recs for i =   349           0
(PID.TID 0000.0001) ctrl-wet 6: no recs for i =   350           0
(PID.TID 0000.0001) ctrl-wet 6: no recs for i =   351           0
(PID.TID 0000.0001) ctrl-wet 6: no recs for i =   352           0
(PID.TID 0000.0001) ctrl-wet 6: no recs for i =   353           0
(PID.TID 0000.0001) ctrl-wet 6: no recs for i =   354           0
(PID.TID 0000.0001) ctrl-wet 6: no recs for i =   355           0
(PID.TID 0000.0001) ctrl-wet 6: no recs for i =   356           0
(PID.TID 0000.0001) ctrl-wet 6: no recs for i =   357           0
(PID.TID 0000.0001) ctrl-wet 6: no recs for i =   358           0
(PID.TID 0000.0001) ctrl-wet 6: no recs for i =   359           0
(PID.TID 0000.0001) ctrl-wet 6: no recs for i =   360           0
(PID.TID 0000.0001) ctrl-wet 6: no recs for i =   361           0
(PID.TID 0000.0001) ctrl-wet 6: no recs for i =   362           0
(PID.TID 0000.0001) ctrl-wet 6: no recs for i =   363           0
(PID.TID 0000.0001) ctrl-wet 6: no recs for i =   364           0
(PID.TID 0000.0001) ctrl-wet 6: no recs for i =   365           0
(PID.TID 0000.0001) ctrl-wet 6: no recs for i =   366           0
(PID.TID 0000.0001) ctrl-wet 6: no recs for i =   367           0
(PID.TID 0000.0001) ctrl-wet 6: no recs for i =   368           0
(PID.TID 0000.0001) ctrl-wet 6: no recs for i =   369           0
(PID.TID 0000.0001) ctrl-wet 6: no recs for i =   370           0
(PID.TID 0000.0001) ctrl-wet 6: no recs for i =   371           0
(PID.TID 0000.0001) ctrl-wet 6: no recs for i =   372           0
(PID.TID 0000.0001) ctrl-wet 6: no recs for i =   373           0
(PID.TID 0000.0001) ctrl-wet 6: no recs for i =   374           0
(PID.TID 0000.0001) ctrl-wet 6: no recs for i =   375           0
(PID.TID 0000.0001) ctrl-wet 6: no recs for i =   376           0
(PID.TID 0000.0001) ctrl-wet 6: no recs for i =   377           0
(PID.TID 0000.0001) ctrl-wet 6: no recs for i =   378           0
(PID.TID 0000.0001) ctrl-wet 6: no recs for i =   379           0
(PID.TID 0000.0001) ctrl-wet 6: no recs for i =   380           0
(PID.TID 0000.0001) ctrl-wet 6: no recs for i =   381           0
(PID.TID 0000.0001) ctrl-wet 6: no recs for i =   382           0
(PID.TID 0000.0001) ctrl-wet 6: no recs for i =   383           0
(PID.TID 0000.0001) ctrl-wet 6: no recs for i =   384           0
(PID.TID 0000.0001) ctrl-wet 6: no recs for i =   385           0
(PID.TID 0000.0001) ctrl-wet 6: no recs for i =   386           0
(PID.TID 0000.0001) ctrl-wet 6: no recs for i =   387           0
(PID.TID 0000.0001) ctrl-wet 6: no recs for i =   388           0
(PID.TID 0000.0001) ctrl-wet 6: no recs for i =   389           0
(PID.TID 0000.0001) ctrl-wet 6: no recs for i =   390           0
(PID.TID 0000.0001) ctrl-wet 6: no recs for i =   391           0
(PID.TID 0000.0001) ctrl-wet 6: no recs for i =   392           0
(PID.TID 0000.0001) ctrl-wet 6: no recs for i =   393           0
(PID.TID 0000.0001) ctrl-wet 6: no recs for i =   394           0
(PID.TID 0000.0001) ctrl-wet 6: no recs for i =   395           0
(PID.TID 0000.0001) ctrl-wet 6: no recs for i =   396           0
(PID.TID 0000.0001) ctrl-wet 6: no recs for i =   397           0
(PID.TID 0000.0001) ctrl-wet 6: no recs for i =   398           0
(PID.TID 0000.0001) ctrl-wet 6: no recs for i =   399           0
(PID.TID 0000.0001) ctrl-wet 6: no recs for i =   400           0
(PID.TID 0000.0001) ctrl-wet 7: flux         17302
(PID.TID 0000.0001) ctrl-wet 8: atmos        17302
(PID.TID 0000.0001) ctrl-wet -------------------------------------------------
(PID.TID 0000.0001) ctrl-wet 13: global nvarlength for Nr =   15        2315
(PID.TID 0000.0001) ctrl-wet -------------------------------------------------
(PID.TID 0000.0001) ctrl-wet 14: global nWet C/S/W/V k=    1        2315        2149        2206           0
(PID.TID 0000.0001) ctrl-wet 14: global nWet C/S/W/V k=    2        2315        2149        2206           0
(PID.TID 0000.0001) ctrl-wet 14: global nWet C/S/W/V k=    3        2254        2102        2146           0
(PID.TID 0000.0001) ctrl-wet 14: global nWet C/S/W/V k=    4        2215        2058        2104           0
(PID.TID 0000.0001) ctrl-wet 14: global nWet C/S/W/V k=    5        2178        2027        2070           0
(PID.TID 0000.0001) ctrl-wet 14: global nWet C/S/W/V k=    6        2142        1987        2029           0
(PID.TID 0000.0001) ctrl-wet 14: global nWet C/S/W/V k=    7        2114        1959        2004           0
(PID.TID 0000.0001) ctrl-wet 14: global nWet C/S/W/V k=    8        2076        1918        1959           0
(PID.TID 0000.0001) ctrl-wet 14: global nWet C/S/W/V k=    9        2048        1887        1925           0
(PID.TID 0000.0001) ctrl-wet 14: global nWet C/S/W/V k=   10        1999        1831        1869           0
(PID.TID 0000.0001) ctrl-wet 14: global nWet C/S/W/V k=   11        1948        1771        1808           0
(PID.TID 0000.0001) ctrl-wet 14: global nWet C/S/W/V k=   12        1850        1653        1705           0
(PID.TID 0000.0001) ctrl-wet 14: global nWet C/S/W/V k=   13        1655        1404        1458           0
(PID.TID 0000.0001) ctrl-wet 14: global nWet C/S/W/V k=   14        1372        1118        1164           0
(PID.TID 0000.0001) ctrl-wet 14: global nWet C/S/W/V k=   15         828         623         671           0
(PID.TID 0000.0001) ctrl-wet -------------------------------------------------
(PID.TID 0000.0001) ctrl-wet -------------------------------------------------
(PID.TID 0000.0001) ctrl-wet -------------------------------------------------
(PID.TID 0000.0001) ctrl_init_wet: no. of control variables:            1
(PID.TID 0000.0001) ctrl_init_wet: control vector length:            2315
(PID.TID 0000.0001) 
(PID.TID 0000.0001) // =======================================================
(PID.TID 0000.0001) // control vector configuration  >>> START <<<
(PID.TID 0000.0001) // =======================================================
(PID.TID 0000.0001) 
(PID.TID 0000.0001)  Total number of ocean points per tile:
(PID.TID 0000.0001)  --------------------------------------
(PID.TID 0000.0001)  snx*sny*nr =    13500
(PID.TID 0000.0001) 
(PID.TID 0000.0001)  Number of ocean points per tile:
(PID.TID 0000.0001)  --------------------------------
(PID.TID 0000.0001)  bi,bj,#(c/s/w): 0001 0001 008651 007584 008016
(PID.TID 0000.0001)  bi,bj,#(c/s/w): 0002 0001 010278 009360 009834
(PID.TID 0000.0001)  bi,bj,#(c/s/w): 0001 0002 003504 003232 003049
(PID.TID 0000.0001)  bi,bj,#(c/s/w): 0002 0002 006876 006460 006425
(PID.TID 0000.0001) 
(PID.TID 0000.0001)  Settings of generic controls:
(PID.TID 0000.0001)  -----------------------------
(PID.TID 0000.0001) 
(PID.TID 0000.0001)  ctrlUseGen  =     T /* use generic controls */
(PID.TID 0000.0001)  -> 2D control, genarr2d no.  1 is in use
(PID.TID 0000.0001)       file       = xx_bottomdrag
(PID.TID 0000.0001)       weight     = wunit.data
(PID.TID 0000.0001)       index      =  0101
(PID.TID 0000.0001)       ncvarindex =  0201
(PID.TID 0000.0001) 
(PID.TID 0000.0001) // =======================================================
(PID.TID 0000.0001) // control vector configuration  >>> END <<<
(PID.TID 0000.0001) // =======================================================
(PID.TID 0000.0001) 
(PID.TID 0000.0001) %MON fCori_max                    =   1.4265546244797E-04
(PID.TID 0000.0001) %MON fCori_min                    =  -1.4265546244797E-04
(PID.TID 0000.0001) %MON fCori_mean                   =   4.7801269115805E-19
(PID.TID 0000.0001) %MON fCori_sd                     =   9.6599226301546E-05
(PID.TID 0000.0001) %MON fCoriG_max                   =   1.4151032568025E-04
(PID.TID 0000.0001) %MON fCoriG_min                   =  -1.4362679550910E-04
(PID.TID 0000.0001) %MON fCoriG_mean                  =  -3.5906698877273E-06
(PID.TID 0000.0001) %MON fCoriG_sd                    =   9.6548915696246E-05
(PID.TID 0000.0001) %MON fCoriCos_max                 =   1.4575362704741E-04
(PID.TID 0000.0001) %MON fCoriCos_min                 =   3.0322354601388E-05
(PID.TID 0000.0001) %MON fCoriCos_mean                =   1.0288600773633E-04
(PID.TID 0000.0001) %MON fCoriCos_sd                  =   3.6784304327266E-05
(PID.TID 0000.0001) INI_CG2D: CG2D normalisation factor =  6.5682677425711703E-05
(PID.TID 0000.0001) 
(PID.TID 0000.0001) // =======================================================
(PID.TID 0000.0001) // Model configuration
(PID.TID 0000.0001) // =======================================================
(PID.TID 0000.0001) //
(PID.TID 0000.0001) // "Physical" paramters ( PARM01 in namelist )
(PID.TID 0000.0001) //
(PID.TID 0000.0001) buoyancyRelation = /* Type of relation to get Buoyancy */
(PID.TID 0000.0001)               'OCEANIC'
(PID.TID 0000.0001)     ;
(PID.TID 0000.0001) fluidIsAir   =  /* fluid major constituent is Air */
(PID.TID 0000.0001)                   F
(PID.TID 0000.0001)     ;
(PID.TID 0000.0001) fluidIsWater =  /* fluid major constituent is Water */
(PID.TID 0000.0001)                   T
(PID.TID 0000.0001)     ;
(PID.TID 0000.0001) usingPCoords =  /* use p (or p*) vertical coordinate */
(PID.TID 0000.0001)                   F
(PID.TID 0000.0001)     ;
(PID.TID 0000.0001) usingZCoords =  /* use z (or z*) vertical coordinate */
(PID.TID 0000.0001)                   T
(PID.TID 0000.0001)     ;
(PID.TID 0000.0001) tRef =   /* Reference temperature profile ( oC or K ) */
(PID.TID 0000.0001)    15 @  2.000000000000000E+01              /* K =  1: 15 */
(PID.TID 0000.0001)     ;
(PID.TID 0000.0001) sRef =   /* Reference salinity profile ( g/kg ) */
(PID.TID 0000.0001)    15 @  3.500000000000000E+01              /* K =  1: 15 */
(PID.TID 0000.0001)     ;
(PID.TID 0000.0001) useStrainTensionVisc= /* Use StrainTension Form of Viscous Operator */
(PID.TID 0000.0001)                   F
(PID.TID 0000.0001)     ;
(PID.TID 0000.0001) useVariableVisc = /* Use variable horizontal viscosity */
(PID.TID 0000.0001)                   T
(PID.TID 0000.0001)     ;
(PID.TID 0000.0001) useHarmonicVisc = /* Use harmonic horizontal viscosity */
(PID.TID 0000.0001)                   F
(PID.TID 0000.0001)     ;
(PID.TID 0000.0001) useBiharmonicVisc= /* Use biharmonic horiz.  viscosity */
(PID.TID 0000.0001)                   T
(PID.TID 0000.0001)     ;
(PID.TID 0000.0001) useSmag3D = /* Use isotropic 3-D Smagorinsky viscosity */
(PID.TID 0000.0001)                   F
(PID.TID 0000.0001)     ;
(PID.TID 0000.0001) viscAh  =   /* Lateral harmonic viscosity ( m^2/s ) */
(PID.TID 0000.0001)                 0.000000000000000E+00
(PID.TID 0000.0001)     ;
(PID.TID 0000.0001) viscAhMax = /* Maximum lateral harmonic viscosity ( m^2/s ) */
(PID.TID 0000.0001)                 1.000000000000000E+21
(PID.TID 0000.0001)     ;
(PID.TID 0000.0001) viscAhGrid = /* Grid dependent lateral harmonic viscosity ( non-dim. ) */
(PID.TID 0000.0001)                 0.000000000000000E+00
(PID.TID 0000.0001)     ;
(PID.TID 0000.0001) useFullLeith = /* Use Full Form of Leith Viscosity on/off flag*/
(PID.TID 0000.0001)                   F
(PID.TID 0000.0001)     ;
(PID.TID 0000.0001) useAreaViscLength = /* Use area for visc length instead of geom. mean*/
(PID.TID 0000.0001)                   T
(PID.TID 0000.0001)     ;
(PID.TID 0000.0001) viscC2leith = /* Leith harmonic visc. factor (on grad(vort),non-dim.) */
(PID.TID 0000.0001)                 0.000000000000000E+00
(PID.TID 0000.0001)     ;
(PID.TID 0000.0001) viscC2leithD = /* Leith harmonic viscosity factor (on grad(div),non-dim.)*/
(PID.TID 0000.0001)                 0.000000000000000E+00
(PID.TID 0000.0001)     ;
(PID.TID 0000.0001) viscC2LeithQG = /* QG Leith harmonic viscosity factor (non-dim.)*/
(PID.TID 0000.0001)                 0.000000000000000E+00
(PID.TID 0000.0001)     ;
(PID.TID 0000.0001) viscC2smag = /* Smagorinsky harmonic viscosity factor (non-dim.) */
(PID.TID 0000.0001)                 0.000000000000000E+00
(PID.TID 0000.0001)     ;
(PID.TID 0000.0001) viscA4  =   /* Lateral biharmonic viscosity ( m^4/s ) */
(PID.TID 0000.0001)                 0.000000000000000E+00
(PID.TID 0000.0001)     ;
(PID.TID 0000.0001) viscA4Max = /* Maximum biharmonic viscosity ( m^2/s ) */
(PID.TID 0000.0001)                 1.000000000000000E+21
(PID.TID 0000.0001)     ;
(PID.TID 0000.0001) viscA4Grid = /* Grid dependent biharmonic viscosity ( non-dim. ) */
(PID.TID 0000.0001)                 0.000000000000000E+00
(PID.TID 0000.0001)     ;
(PID.TID 0000.0001) viscC4leith = /* Leith biharm viscosity factor (on grad(vort), non-dim.)*/
(PID.TID 0000.0001)                 1.500000000000000E+00
(PID.TID 0000.0001)     ;
(PID.TID 0000.0001) viscC4leithD = /* Leith biharm viscosity factor (on grad(div), non-dim.) */
(PID.TID 0000.0001)                 1.500000000000000E+00
(PID.TID 0000.0001)     ;
(PID.TID 0000.0001) viscC4Smag = /* Smagorinsky biharm viscosity factor (non-dim) */
(PID.TID 0000.0001)                 0.000000000000000E+00
(PID.TID 0000.0001)     ;
(PID.TID 0000.0001) no_slip_sides =  /* Viscous BCs: No-slip sides */
(PID.TID 0000.0001)                   T
(PID.TID 0000.0001)     ;
(PID.TID 0000.0001) sideDragFactor = /* side-drag scaling factor (non-dim) */
(PID.TID 0000.0001)                 2.000000000000000E+00
(PID.TID 0000.0001)     ;
(PID.TID 0000.0001) viscArNr = /* vertical profile of vertical viscosity ( m^2/s )*/
(PID.TID 0000.0001)    15 @  1.000000000000000E-03              /* K =  1: 15 */
(PID.TID 0000.0001)     ;
(PID.TID 0000.0001) no_slip_bottom =  /* Viscous BCs: No-slip bottom */
(PID.TID 0000.0001)                   T
(PID.TID 0000.0001)     ;
(PID.TID 0000.0001) bottomVisc_pCell = /* Partial-cell in bottom Visc. BC */
(PID.TID 0000.0001)                   F
(PID.TID 0000.0001)     ;
(PID.TID 0000.0001) bottomDragLinear = /* linear bottom-drag coefficient ( m/s ) */
(PID.TID 0000.0001)                 0.000000000000000E+00
(PID.TID 0000.0001)     ;
(PID.TID 0000.0001) bottomDragQuadratic = /* quadratic bottom-drag coefficient (-) */
(PID.TID 0000.0001)                 2.100000000000000E-03
(PID.TID 0000.0001)     ;
(PID.TID 0000.0001) selectBotDragQuadr = /* select quadratic bottom drag options */
(PID.TID 0000.0001)                       0
(PID.TID 0000.0001)     ;
(PID.TID 0000.0001) diffKhT =   /* Laplacian diffusion of heat laterally ( m^2/s ) */
(PID.TID 0000.0001)                 0.000000000000000E+00
(PID.TID 0000.0001)     ;
(PID.TID 0000.0001) diffK4T =   /* Biharmonic diffusion of heat laterally ( m^4/s ) */
(PID.TID 0000.0001)                 0.000000000000000E+00
(PID.TID 0000.0001)     ;
(PID.TID 0000.0001) diffKhS =   /* Laplacian diffusion of salt laterally ( m^2/s ) */
(PID.TID 0000.0001)                 0.000000000000000E+00
(PID.TID 0000.0001)     ;
(PID.TID 0000.0001) diffK4S =   /* Biharmonic diffusion of salt laterally ( m^4/s ) */
(PID.TID 0000.0001)                 0.000000000000000E+00
(PID.TID 0000.0001)     ;
(PID.TID 0000.0001) diffKrNrT = /* vertical profile of vertical diffusion of Temp ( m^2/s )*/
(PID.TID 0000.0001)    15 @  0.000000000000000E+00              /* K =  1: 15 */
(PID.TID 0000.0001)     ;
(PID.TID 0000.0001) diffKrNrS = /* vertical profile of vertical diffusion of Salt ( m^2/s )*/
(PID.TID 0000.0001)    15 @  3.000000000000000E-05              /* K =  1: 15 */
(PID.TID 0000.0001)     ;
(PID.TID 0000.0001) diffKrBL79surf = /* Surface diffusion for Bryan and Lewis 79 ( m^2/s ) */
(PID.TID 0000.0001)                 0.000000000000000E+00
(PID.TID 0000.0001)     ;
(PID.TID 0000.0001) diffKrBL79deep = /* Deep diffusion for Bryan and Lewis 1979 ( m^2/s ) */
(PID.TID 0000.0001)                 0.000000000000000E+00
(PID.TID 0000.0001)     ;
(PID.TID 0000.0001) diffKrBL79scl = /* Depth scale for Bryan and Lewis 1979 ( m ) */
(PID.TID 0000.0001)                 2.000000000000000E+02
(PID.TID 0000.0001)     ;
(PID.TID 0000.0001) diffKrBL79Ho = /* Turning depth for Bryan and Lewis 1979 ( m ) */
(PID.TID 0000.0001)                -2.000000000000000E+03
(PID.TID 0000.0001)     ;
(PID.TID 0000.0001) ivdc_kappa = /* Implicit Vertical Diffusivity for Convection ( m^2/s) */
(PID.TID 0000.0001)                 1.000000000000000E+01
(PID.TID 0000.0001)     ;
(PID.TID 0000.0001) hMixCriteria=  /* Criteria for mixed-layer diagnostic */
(PID.TID 0000.0001)                -8.000000000000000E-01
(PID.TID 0000.0001)     ;
(PID.TID 0000.0001) dRhoSmall =  /* Parameter for mixed-layer diagnostic */
(PID.TID 0000.0001)                 1.000000000000000E-06
(PID.TID 0000.0001)     ;
(PID.TID 0000.0001) hMixSmooth=  /* Smoothing parameter for mixed-layer diagnostic */
(PID.TID 0000.0001)                 0.000000000000000E+00
(PID.TID 0000.0001)     ;
(PID.TID 0000.0001) eosType =  /* Type of Equation of State */
(PID.TID 0000.0001)               'JMD95Z'
(PID.TID 0000.0001)     ;
(PID.TID 0000.0001) eosRefP0 = /* Reference atmospheric pressure for EOS ( Pa ) */
(PID.TID 0000.0001)                 1.013250000000000E+05
(PID.TID 0000.0001)     ;
(PID.TID 0000.0001) selectP_inEOS_Zc = /* select pressure to use in EOS (0,1,2,3) */
(PID.TID 0000.0001)                       0
(PID.TID 0000.0001)     0= -g*rhoConst*z ; 1= pRef (from tRef,sRef); 2= Hyd P ; 3= Hyd+NH P
(PID.TID 0000.0001)     ;
(PID.TID 0000.0001) surf_pRef = /* Surface reference pressure ( Pa ) */
(PID.TID 0000.0001)                 1.013250000000000E+05
(PID.TID 0000.0001)     ;
(PID.TID 0000.0001) HeatCapacity_Cp =  /* Specific heat capacity ( J/kg/K ) */
(PID.TID 0000.0001)                 3.994000000000000E+03
(PID.TID 0000.0001)     ;
(PID.TID 0000.0001) celsius2K = /* 0 degree Celsius converted to Kelvin ( K ) */
(PID.TID 0000.0001)                 2.731500000000000E+02
(PID.TID 0000.0001)     ;
(PID.TID 0000.0001) rhoConst  = /* Reference density (Boussinesq)  ( kg/m^3 ) */
(PID.TID 0000.0001)                 1.035000000000000E+03
(PID.TID 0000.0001)     ;
(PID.TID 0000.0001) rhoFacC = /* normalized Reference density @ cell-Center (-) */
(PID.TID 0000.0001)    15 @  1.000000000000000E+00              /* K =  1: 15 */
(PID.TID 0000.0001)     ;
(PID.TID 0000.0001) rhoFacF = /* normalized Reference density @ W-Interface (-) */
(PID.TID 0000.0001)    16 @  1.000000000000000E+00              /* K =  1: 16 */
(PID.TID 0000.0001)     ;
(PID.TID 0000.0001) rhoConstFresh = /* Fresh-water reference density ( kg/m^3 ) */
(PID.TID 0000.0001)                 1.035000000000000E+03
(PID.TID 0000.0001)     ;
(PID.TID 0000.0001) gravity =   /* Gravitational acceleration ( m/s^2 ) */
(PID.TID 0000.0001)                 9.810000000000000E+00
(PID.TID 0000.0001)     ;
(PID.TID 0000.0001) gBaro =   /* Barotropic gravity ( m/s^2 ) */
(PID.TID 0000.0001)                 9.810000000000000E+00
(PID.TID 0000.0001)     ;
(PID.TID 0000.0001) gravFacC = /* gravity factor (vs surf.) @ cell-Center (-) */
(PID.TID 0000.0001)    15 @  1.000000000000000E+00              /* K =  1: 15 */
(PID.TID 0000.0001)     ;
(PID.TID 0000.0001) gravFacF = /* gravity factor (vs surf.) @ W-Interface (-) */
(PID.TID 0000.0001)    16 @  1.000000000000000E+00              /* K =  1: 16 */
(PID.TID 0000.0001)     ;
(PID.TID 0000.0001) rotationPeriod =   /* Rotation Period ( s ) */
(PID.TID 0000.0001)                 8.616400000000000E+04
(PID.TID 0000.0001)     ;
(PID.TID 0000.0001) omega =   /* Angular velocity ( rad/s ) */
(PID.TID 0000.0001)                 7.292123516990375E-05
(PID.TID 0000.0001)     ;
(PID.TID 0000.0001) f0 =   /* Reference coriolis parameter ( 1/s ) */
(PID.TID 0000.0001)                 1.000000000000000E-04
(PID.TID 0000.0001)     ;
(PID.TID 0000.0001) beta =   /* Beta ( 1/(m.s) ) */
(PID.TID 0000.0001)                 9.999999999999999E-12
(PID.TID 0000.0001)     ;
(PID.TID 0000.0001) fPrime =   /* Second coriolis parameter ( 1/s ) */
(PID.TID 0000.0001)                 0.000000000000000E+00
(PID.TID 0000.0001)     ;
(PID.TID 0000.0001) rigidLid =   /* Rigid lid on/off flag */
(PID.TID 0000.0001)                   F
(PID.TID 0000.0001)     ;
(PID.TID 0000.0001) implicitFreeSurface =   /* Implicit free surface on/off flag */
(PID.TID 0000.0001)                   T
(PID.TID 0000.0001)     ;
(PID.TID 0000.0001) freeSurfFac =   /* Implicit free surface factor */
(PID.TID 0000.0001)                 1.000000000000000E+00
(PID.TID 0000.0001)     ;
(PID.TID 0000.0001) implicSurfPress =  /* Surface Pressure implicit factor (0-1) */
(PID.TID 0000.0001)                 1.000000000000000E+00
(PID.TID 0000.0001)     ;
(PID.TID 0000.0001) implicDiv2DFlow =  /* Barot. Flow Div. implicit factor (0-1) */
(PID.TID 0000.0001)                 1.000000000000000E+00
(PID.TID 0000.0001)     ;
(PID.TID 0000.0001) uniformLin_PhiSurf = /* use uniform Bo_surf on/off flag */
(PID.TID 0000.0001)                   T
(PID.TID 0000.0001)     ;
(PID.TID 0000.0001) uniformFreeSurfLev = /* free-surface level-index is uniform */
(PID.TID 0000.0001)                   T
(PID.TID 0000.0001)     ;
(PID.TID 0000.0001) sIceLoadFac =  /* scale factor for sIceLoad (0-1) */
(PID.TID 0000.0001)                 1.000000000000000E+00
(PID.TID 0000.0001)     ;
(PID.TID 0000.0001) hFacMin =   /* minimum partial cell factor (hFac) */
(PID.TID 0000.0001)                 5.000000000000000E-02
(PID.TID 0000.0001)     ;
(PID.TID 0000.0001) hFacMinDr = /* minimum partial cell thickness ( m) */
(PID.TID 0000.0001)                 5.000000000000000E+01
(PID.TID 0000.0001)     ;
(PID.TID 0000.0001) exactConserv =  /* Exact Volume Conservation on/off flag */
(PID.TID 0000.0001)                   T
(PID.TID 0000.0001)     ;
(PID.TID 0000.0001) linFSConserveTr = /* Tracer correction for Lin Free Surface on/off flag */
(PID.TID 0000.0001)                   F
(PID.TID 0000.0001)     ;
(PID.TID 0000.0001) nonlinFreeSurf = /* Non-linear Free Surf. options (-1,0,1,2,3)*/
(PID.TID 0000.0001)                       4
(PID.TID 0000.0001)      -1,0= Off ; 1,2,3= On, 2=+rescale gU,gV, 3=+update cg2d solv.
(PID.TID 0000.0001)     ;
(PID.TID 0000.0001) hFacInf =   /* lower threshold for hFac (nonlinFreeSurf only)*/
(PID.TID 0000.0001)                 2.000000000000000E-01
(PID.TID 0000.0001)     ;
(PID.TID 0000.0001) hFacSup =   /* upper threshold for hFac (nonlinFreeSurf only)*/
(PID.TID 0000.0001)                 2.000000000000000E+00
(PID.TID 0000.0001)     ;
(PID.TID 0000.0001) select_rStar = /* r* Vertical coord. options (=0 r coord.; >0 uses r*)*/
(PID.TID 0000.0001)                       0
(PID.TID 0000.0001)     ;
(PID.TID 0000.0001) useRealFreshWaterFlux = /* Real Fresh Water Flux on/off flag*/
(PID.TID 0000.0001)                   T
(PID.TID 0000.0001)     ;
(PID.TID 0000.0001) temp_EvPrRn = /* Temp. of Evap/Prec/R (UNSET=use local T)(oC)*/
(PID.TID 0000.0001)                 1.234567000000000E+05
(PID.TID 0000.0001)     ;
(PID.TID 0000.0001) salt_EvPrRn = /* Salin. of Evap/Prec/R (UNSET=use local S)(g/kg)*/
(PID.TID 0000.0001)                 0.000000000000000E+00
(PID.TID 0000.0001)     ;
(PID.TID 0000.0001) selectAddFluid = /* option for mass source/sink of fluid (=0: off) */
(PID.TID 0000.0001)                       0
(PID.TID 0000.0001)     ;
(PID.TID 0000.0001) temp_addMass = /* Temp. of addMass array (UNSET=use local T)(oC)*/
(PID.TID 0000.0001)                 1.234567000000000E+05
(PID.TID 0000.0001)     ;
(PID.TID 0000.0001) salt_addMass = /* Salin. of addMass array (UNSET=use local S)(g/kg)*/
(PID.TID 0000.0001)                 0.000000000000000E+00
(PID.TID 0000.0001)     ;
(PID.TID 0000.0001) use3Dsolver = /* use 3-D pressure solver on/off flag */
(PID.TID 0000.0001)                   F
(PID.TID 0000.0001)     ;
(PID.TID 0000.0001) nonHydrostatic =  /* Non-Hydrostatic on/off flag */
(PID.TID 0000.0001)                   F
(PID.TID 0000.0001)     ;
(PID.TID 0000.0001) nh_Am2 = /* Non-Hydrostatic terms scaling factor */
(PID.TID 0000.0001)                 1.000000000000000E+00
(PID.TID 0000.0001)     ;
(PID.TID 0000.0001) implicitNHPress = /* Non-Hyd Pressure implicit factor (0-1)*/
(PID.TID 0000.0001)                 1.000000000000000E+00
(PID.TID 0000.0001)     ;
(PID.TID 0000.0001) selectNHfreeSurf = /* Non-Hyd (free-)Surface option */
(PID.TID 0000.0001)                       0
(PID.TID 0000.0001)     ;
(PID.TID 0000.0001) quasiHydrostatic = /* Quasi-Hydrostatic on/off flag */
(PID.TID 0000.0001)                   F
(PID.TID 0000.0001)     ;
(PID.TID 0000.0001) calc_wVelocity = /* vertical velocity calculation on/off flag */
(PID.TID 0000.0001)                   T
(PID.TID 0000.0001)     ;
(PID.TID 0000.0001) momStepping =  /* Momentum equation on/off flag */
(PID.TID 0000.0001)                   T
(PID.TID 0000.0001)     ;
(PID.TID 0000.0001) vectorInvariantMomentum= /* Vector-Invariant Momentum on/off */
(PID.TID 0000.0001)                   T
(PID.TID 0000.0001)     ;
(PID.TID 0000.0001) momAdvection =  /* Momentum advection on/off flag */
(PID.TID 0000.0001)                   T
(PID.TID 0000.0001)     ;
(PID.TID 0000.0001) momViscosity =  /* Momentum viscosity on/off flag */
(PID.TID 0000.0001)                   T
(PID.TID 0000.0001)     ;
(PID.TID 0000.0001) momImplVertAdv= /* Momentum implicit vert. advection on/off*/
(PID.TID 0000.0001)                   F
(PID.TID 0000.0001)     ;
(PID.TID 0000.0001) implicitViscosity = /* Implicit viscosity on/off flag */
(PID.TID 0000.0001)                   F
(PID.TID 0000.0001)     ;
(PID.TID 0000.0001) selectImplicitDrag= /* Implicit bot Drag options (0,1,2)*/
(PID.TID 0000.0001)                       0
(PID.TID 0000.0001)     0= Expl. ; 1= Impl. on provis. Vel ; 2= Fully Impl (with surf.P)
(PID.TID 0000.0001)     ;
(PID.TID 0000.0001) metricTerms =  /* metric-Terms on/off flag */
(PID.TID 0000.0001)                   T
(PID.TID 0000.0001)     ;
(PID.TID 0000.0001) useNHMTerms = /* Non-Hydrostatic Metric-Terms on/off */
(PID.TID 0000.0001)                   F
(PID.TID 0000.0001)     ;
(PID.TID 0000.0001) selectCoriMap = /* Coriolis Map options (0,1,2,3)*/
(PID.TID 0000.0001)                       2
(PID.TID 0000.0001)     0= f-Plane ; 1= Beta-Plane ; 2= Spherical ; 3= read from file
(PID.TID 0000.0001)     ;
(PID.TID 0000.0001) use3dCoriolis = /* 3-D Coriolis on/off flag */
(PID.TID 0000.0001)                   F
(PID.TID 0000.0001)     ;
(PID.TID 0000.0001) useCoriolis =  /* Coriolis on/off flag */
(PID.TID 0000.0001)                   T
(PID.TID 0000.0001)     ;
(PID.TID 0000.0001) useCDscheme =  /* CD scheme on/off flag */
(PID.TID 0000.0001)                   T
(PID.TID 0000.0001)     ;
(PID.TID 0000.0001) selectCoriScheme= /* Scheme selector for Coriolis-Term */
(PID.TID 0000.0001)                       0
(PID.TID 0000.0001)    = 0 : original discretization (simple averaging, no hFac)
(PID.TID 0000.0001)    = 1 : Wet-point averaging (Jamar & Ozer 1986)
(PID.TID 0000.0001)    = 2 : hFac weighted average (Angular Mom. conserving)
(PID.TID 0000.0001)    = 3 : energy conserving scheme using hFac weighted average
(PID.TID 0000.0001)     ;
(PID.TID 0000.0001) useAbsVorticity= /* V.I Works with f+zeta in Coriolis */
(PID.TID 0000.0001)                   F
(PID.TID 0000.0001)     ;
(PID.TID 0000.0001) selectVortScheme= /* V.I Scheme selector for Vorticity-Term */
(PID.TID 0000.0001)                       1
(PID.TID 0000.0001)    = 0 : enstrophy (Shallow-Water Eq.) conserving scheme by Sadourny, JAS 75
(PID.TID 0000.0001)    = 1 : same as 0 with modified hFac
(PID.TID 0000.0001)    = 2 : energy conserving scheme (used by Sadourny in JAS 75 paper)
(PID.TID 0000.0001)    = 3 : energy (general) and enstrophy (2D, nonDiv.) conserving scheme
(PID.TID 0000.0001)          from Sadourny (Burridge & Haseler, ECMWF Rep.4, 1977)
(PID.TID 0000.0001)     ;
(PID.TID 0000.0001) useJamartMomAdv= /* V.I Non-linear terms Jamart flag */
(PID.TID 0000.0001)                   F
(PID.TID 0000.0001)     ;
(PID.TID 0000.0001) upwindVorticity= /* V.I Upwind bias vorticity flag */
(PID.TID 0000.0001)                   F
(PID.TID 0000.0001)     ;
(PID.TID 0000.0001) highOrderVorticity= /* V.I High order vort. advect. flag */
(PID.TID 0000.0001)                   F
(PID.TID 0000.0001)     ;
(PID.TID 0000.0001) upwindShear= /* V.I Upwind vertical Shear advection flag */
(PID.TID 0000.0001)                   F
(PID.TID 0000.0001)     ;
(PID.TID 0000.0001) selectKEscheme= /* V.I Kinetic Energy scheme selector */
(PID.TID 0000.0001)                       0
(PID.TID 0000.0001)     ;
(PID.TID 0000.0001) momForcing =  /* Momentum forcing on/off flag */
(PID.TID 0000.0001)                   T
(PID.TID 0000.0001)     ;
(PID.TID 0000.0001) momTidalForcing = /* Momentum Tidal forcing on/off flag */
(PID.TID 0000.0001)                   T
(PID.TID 0000.0001)     ;
(PID.TID 0000.0001) momPressureForcing =  /* Momentum pressure term on/off flag */
(PID.TID 0000.0001)                   T
(PID.TID 0000.0001)     ;
(PID.TID 0000.0001) implicitIntGravWave= /* Implicit Internal Gravity Wave flag */
(PID.TID 0000.0001)                   F
(PID.TID 0000.0001)     ;
(PID.TID 0000.0001) staggerTimeStep =    /* Stagger time stepping on/off flag */
(PID.TID 0000.0001)                   T
(PID.TID 0000.0001)     ;
(PID.TID 0000.0001) doResetHFactors = /* reset thickness factors @ each time-step */
(PID.TID 0000.0001)                   T
(PID.TID 0000.0001)     ;
(PID.TID 0000.0001) multiDimAdvection =  /* enable/disable Multi-Dim Advection */
(PID.TID 0000.0001)                   T
(PID.TID 0000.0001)     ;
(PID.TID 0000.0001) useMultiDimAdvec =   /* Multi-Dim Advection is/is-not used */
(PID.TID 0000.0001)                   T
(PID.TID 0000.0001)     ;
(PID.TID 0000.0001) implicitDiffusion = /* Implicit Diffusion on/off flag */
(PID.TID 0000.0001)                   T
(PID.TID 0000.0001)     ;
(PID.TID 0000.0001) tempStepping =  /* Temperature equation on/off flag */
(PID.TID 0000.0001)                   T
(PID.TID 0000.0001)     ;
(PID.TID 0000.0001) tempAdvection = /* Temperature advection on/off flag */
(PID.TID 0000.0001)                   T
(PID.TID 0000.0001)     ;
(PID.TID 0000.0001) tempImplVertAdv = /* Temp. implicit vert. advection on/off */
(PID.TID 0000.0001)                   T
(PID.TID 0000.0001)     ;
(PID.TID 0000.0001) tempForcing  =  /* Temperature forcing on/off flag */
(PID.TID 0000.0001)                   T
(PID.TID 0000.0001)     ;
(PID.TID 0000.0001) doThetaClimRelax = /* apply SST relaxation on/off flag */
(PID.TID 0000.0001)                   T
(PID.TID 0000.0001)     ;
(PID.TID 0000.0001) tempIsActiveTr = /* Temp. is a dynamically Active Tracer */
(PID.TID 0000.0001)                   T
(PID.TID 0000.0001)     ;
(PID.TID 0000.0001) saltStepping =  /* Salinity equation on/off flag */
(PID.TID 0000.0001)                   T
(PID.TID 0000.0001)     ;
(PID.TID 0000.0001) saltAdvection = /* Salinity advection on/off flag */
(PID.TID 0000.0001)                   T
(PID.TID 0000.0001)     ;
(PID.TID 0000.0001) saltImplVertAdv = /* Sali. implicit vert. advection on/off */
(PID.TID 0000.0001)                   T
(PID.TID 0000.0001)     ;
(PID.TID 0000.0001) saltForcing  =  /* Salinity forcing on/off flag */
(PID.TID 0000.0001)                   T
(PID.TID 0000.0001)     ;
(PID.TID 0000.0001) doSaltClimRelax = /* apply SSS relaxation on/off flag */
(PID.TID 0000.0001)                   T
(PID.TID 0000.0001)     ;
(PID.TID 0000.0001) saltIsActiveTr = /* Salt  is a dynamically Active Tracer */
(PID.TID 0000.0001)                   T
(PID.TID 0000.0001)     ;
(PID.TID 0000.0001)  readBinaryPrec = /* Precision used for reading binary files */
(PID.TID 0000.0001)                      32
(PID.TID 0000.0001)     ;
(PID.TID 0000.0001) writeBinaryPrec = /* Precision used for writing binary files */
(PID.TID 0000.0001)                      32
(PID.TID 0000.0001)     ;
(PID.TID 0000.0001)  rwSuffixType =   /* select format of mds file suffix */
(PID.TID 0000.0001)                       0
(PID.TID 0000.0001)    = 0 : myIter (I10.10) ;   = 1 : 100*myTime (100th sec) ;
(PID.TID 0000.0001)    = 2 : myTime (seconds);   = 3 : myTime/360 (10th of hr);
(PID.TID 0000.0001)    = 4 : myTime/3600 (hours)
(PID.TID 0000.0001)     ;
(PID.TID 0000.0001)  globalFiles = /* write "global" (=not per tile) files */
(PID.TID 0000.0001)                   F
(PID.TID 0000.0001)     ;
(PID.TID 0000.0001)  useSingleCpuIO = /* only master MPI process does I/O */
(PID.TID 0000.0001)                   T
(PID.TID 0000.0001)     ;
(PID.TID 0000.0001)  useSingleCpuInput = /* only master process reads input */
(PID.TID 0000.0001)                   T
(PID.TID 0000.0001)     ;
(PID.TID 0000.0001) /* debLev[*]  : level of debug & auxiliary message printing */
(PID.TID 0000.0001) debLevZero =  0 ; /* level of disabled aux. msg printing */
(PID.TID 0000.0001)    debLevA =  1 ; /* level of minimum  aux. msg printing */
(PID.TID 0000.0001)    debLevB =  2 ; /* level of low aux. print (report read-file opening)*/
(PID.TID 0000.0001)    debLevC =  3 ; /* level of moderate debug prt (most pkgs debug msg) */
(PID.TID 0000.0001)    debLevD =  4 ; /* level of enhanced debug prt (add DEBUG_STATS prt) */
(PID.TID 0000.0001)    debLevE =  5 ; /* level of extensive debug printing */
(PID.TID 0000.0001) debugLevel =  /* select debug printing level */
(PID.TID 0000.0001)                       1
(PID.TID 0000.0001)     ;
(PID.TID 0000.0001)  plotLevel =  /* select PLOT_FIELD printing level */
(PID.TID 0000.0001)                       1
(PID.TID 0000.0001)     ;
(PID.TID 0000.0001) //
(PID.TID 0000.0001) // Elliptic solver(s) paramters ( PARM02 in namelist )
(PID.TID 0000.0001) //
(PID.TID 0000.0001) cg2dMaxIters =   /* Upper limit on 2d con. grad iterations  */
(PID.TID 0000.0001)                     500
(PID.TID 0000.0001)     ;
(PID.TID 0000.0001) cg2dMinItersNSA =   /* Minimum number of iterations of 2d con. grad solver  */
(PID.TID 0000.0001)                       0
(PID.TID 0000.0001)     ;
(PID.TID 0000.0001) cg2dChkResFreq =   /* 2d con. grad convergence test frequency */
(PID.TID 0000.0001)                       1
(PID.TID 0000.0001)     ;
(PID.TID 0000.0001) cg2dUseMinResSol= /* use cg2d last-iter(=0) / min-resid.(=1) solution */
(PID.TID 0000.0001)                       0
(PID.TID 0000.0001)     ;
(PID.TID 0000.0001) cg2dTargetResidual =   /* 2d con. grad target residual  */
(PID.TID 0000.0001)                 1.000000000000000E-13
(PID.TID 0000.0001)     ;
(PID.TID 0000.0001) cg2dTargetResWunit =   /* CG2d target residual [W units] */
(PID.TID 0000.0001)                -1.000000000000000E+00
(PID.TID 0000.0001)     ;
(PID.TID 0000.0001) cg2dPreCondFreq =   /* Freq. for updating cg2d preconditioner */
(PID.TID 0000.0001)                       1
(PID.TID 0000.0001)     ;
(PID.TID 0000.0001) useSRCGSolver =  /* use single reduction CG solver(s) */
(PID.TID 0000.0001)                   F
(PID.TID 0000.0001)     ;
(PID.TID 0000.0001) useNSACGSolver =  /* use not-self-adjoint CG solver */
(PID.TID 0000.0001)                   F
(PID.TID 0000.0001)     ;
(PID.TID 0000.0001) printResidualFreq = /* Freq. for printing CG residual */
(PID.TID 0000.0001)                       0
(PID.TID 0000.0001)     ;
(PID.TID 0000.0001) //
(PID.TID 0000.0001) // Time stepping paramters ( PARM03 in namelist )
(PID.TID 0000.0001) //
(PID.TID 0000.0001) deltaTMom =   /* Momentum equation timestep ( s ) */
(PID.TID 0000.0001)                 1.200000000000000E+03
(PID.TID 0000.0001)     ;
(PID.TID 0000.0001) deltaTFreeSurf = /* FreeSurface equation timestep ( s ) */
(PID.TID 0000.0001)                 1.200000000000000E+03
(PID.TID 0000.0001)     ;
(PID.TID 0000.0001) dTtracerLev =  /* Tracer equation timestep ( s ) */
(PID.TID 0000.0001)    15 @  4.320000000000000E+04              /* K =  1: 15 */
(PID.TID 0000.0001)     ;
(PID.TID 0000.0001) deltaTClock  =   /* Model clock timestep ( s ) */
(PID.TID 0000.0001)                 4.320000000000000E+04
(PID.TID 0000.0001)     ;
(PID.TID 0000.0001) cAdjFreq =   /* Convective adjustment interval ( s ) */
(PID.TID 0000.0001)                 0.000000000000000E+00
(PID.TID 0000.0001)     ;
(PID.TID 0000.0001) momForcingOutAB = /* =1: take Momentum Forcing out of Adams-Bash. stepping */
(PID.TID 0000.0001)                       0
(PID.TID 0000.0001)     ;
(PID.TID 0000.0001) tracForcingOutAB = /* =1: take T,S,pTr Forcing out of Adams-Bash. stepping */
(PID.TID 0000.0001)                       0
(PID.TID 0000.0001)     ;
(PID.TID 0000.0001) momDissip_In_AB = /* put Dissipation Tendency in Adams-Bash. stepping */
(PID.TID 0000.0001)                   T
(PID.TID 0000.0001)     ;
(PID.TID 0000.0001) doAB_onGtGs = /* apply AB on Tendencies (rather than on T,S)*/
(PID.TID 0000.0001)                   T
(PID.TID 0000.0001)     ;
(PID.TID 0000.0001) abEps =   /* Adams-Bashforth-2 stabilizing weight */
(PID.TID 0000.0001)                 1.000000000000000E-01
(PID.TID 0000.0001)     ;
(PID.TID 0000.0001) applyExchUV_early = /* Apply EXCH to U,V earlier in time-step */
(PID.TID 0000.0001)                   F
(PID.TID 0000.0001)     ;
(PID.TID 0000.0001) tauCD =   /* CD coupling time-scale ( s ) */
(PID.TID 0000.0001)                 3.214280000000000E+05
(PID.TID 0000.0001)     ;
(PID.TID 0000.0001) rCD =   /* Normalised CD coupling parameter */
(PID.TID 0000.0001)                 9.962666600296178E-01
(PID.TID 0000.0001)     ;
(PID.TID 0000.0001) epsAB_CD = /* AB-2 stabilizing weight for CD-scheme*/
(PID.TID 0000.0001)                 1.000000000000000E-01
(PID.TID 0000.0001)     ;
(PID.TID 0000.0001) pickupStrictlyMatch= /* stop if pickup do not strictly match */
(PID.TID 0000.0001)                   T
(PID.TID 0000.0001)     ;
(PID.TID 0000.0001) nIter0   =   /* Run starting timestep number */
(PID.TID 0000.0001)                       0
(PID.TID 0000.0001)     ;
(PID.TID 0000.0001) nTimeSteps = /* Number of timesteps */
(PID.TID 0000.0001)                      10
(PID.TID 0000.0001)     ;
(PID.TID 0000.0001) nEndIter =   /* Run ending timestep number */
(PID.TID 0000.0001)                      10
(PID.TID 0000.0001)     ;
(PID.TID 0000.0001) baseTime =   /* Model base time ( s ) */
(PID.TID 0000.0001)                 0.000000000000000E+00
(PID.TID 0000.0001)     ;
(PID.TID 0000.0001) startTime =  /* Run start time ( s ) */
(PID.TID 0000.0001)                 0.000000000000000E+00
(PID.TID 0000.0001)     ;
(PID.TID 0000.0001) endTime  =   /* Integration ending time ( s ) */
(PID.TID 0000.0001)                 4.320000000000000E+05
(PID.TID 0000.0001)     ;
(PID.TID 0000.0001) pChkPtFreq = /* Permanent restart/pickup file interval ( s ) */
(PID.TID 0000.0001)                 3.110400000000000E+08
(PID.TID 0000.0001)     ;
(PID.TID 0000.0001) chkPtFreq  = /* Rolling restart/pickup file interval ( s ) */
(PID.TID 0000.0001)                 0.000000000000000E+00
(PID.TID 0000.0001)     ;
(PID.TID 0000.0001) pickup_write_mdsio =   /* Model IO flag. */
(PID.TID 0000.0001)                   T
(PID.TID 0000.0001)     ;
(PID.TID 0000.0001) pickup_read_mdsio =   /* Model IO flag. */
(PID.TID 0000.0001)                   T
(PID.TID 0000.0001)     ;
(PID.TID 0000.0001) pickup_write_mnc =   /* Model IO flag. */
(PID.TID 0000.0001)                   F
(PID.TID 0000.0001)     ;
(PID.TID 0000.0001) pickup_read_mnc =   /* Model IO flag. */
(PID.TID 0000.0001)                   F
(PID.TID 0000.0001)     ;
(PID.TID 0000.0001) writePickupAtEnd =   /* Model IO flag. */
(PID.TID 0000.0001)                   T
(PID.TID 0000.0001)     ;
(PID.TID 0000.0001) dumpFreq =   /* Model state write out interval ( s ). */
(PID.TID 0000.0001)                 8.640000000000000E+05
(PID.TID 0000.0001)     ;
(PID.TID 0000.0001) dumpInitAndLast= /* write out Initial & Last iter. model state */
(PID.TID 0000.0001)                   T
(PID.TID 0000.0001)     ;
(PID.TID 0000.0001) snapshot_mdsio =   /* Model IO flag. */
(PID.TID 0000.0001)                   F
(PID.TID 0000.0001)     ;
(PID.TID 0000.0001) snapshot_mnc =   /* Model IO flag. */
(PID.TID 0000.0001)                   T
(PID.TID 0000.0001)     ;
(PID.TID 0000.0001) monitorFreq =   /* Monitor output interval ( s ). */
(PID.TID 0000.0001)                 1.000000000000000E+00
(PID.TID 0000.0001)     ;
(PID.TID 0000.0001) monitorSelect = /* select group of variables to monitor */
(PID.TID 0000.0001)                       3
(PID.TID 0000.0001)     ;
(PID.TID 0000.0001) monitor_stdio =   /* Model IO flag. */
(PID.TID 0000.0001)                   T
(PID.TID 0000.0001)     ;
(PID.TID 0000.0001) monitor_mnc =   /* Model IO flag. */
(PID.TID 0000.0001)                   F
(PID.TID 0000.0001)     ;
(PID.TID 0000.0001) externForcingPeriod =   /* forcing period (s) */
(PID.TID 0000.0001)                 2.592000000000000E+06
(PID.TID 0000.0001)     ;
(PID.TID 0000.0001) externForcingCycle =   /* period of the cyle (s). */
(PID.TID 0000.0001)                 3.110400000000000E+07
(PID.TID 0000.0001)     ;
(PID.TID 0000.0001) tauThetaClimRelax =   /* relaxation time scale (s) */
(PID.TID 0000.0001)                 5.184000000000000E+06
(PID.TID 0000.0001)     ;
(PID.TID 0000.0001) tauSaltClimRelax =   /* relaxation time scale (s) */
(PID.TID 0000.0001)                 1.555200000000000E+07
(PID.TID 0000.0001)     ;
(PID.TID 0000.0001) latBandClimRelax =   /* max. Lat. where relaxation */
(PID.TID 0000.0001)                 1.800000000000000E+02
(PID.TID 0000.0001)     ;
(PID.TID 0000.0001) //
(PID.TID 0000.0001) // Gridding paramters ( PARM04 in namelist )
(PID.TID 0000.0001) //
(PID.TID 0000.0001) usingCartesianGrid = /* Cartesian coordinates flag ( True/False ) */
(PID.TID 0000.0001)                   F
(PID.TID 0000.0001)     ;
(PID.TID 0000.0001) usingCylindricalGrid = /* Cylindrical coordinates flag ( True/False ) */
(PID.TID 0000.0001)                   F
(PID.TID 0000.0001)     ;
(PID.TID 0000.0001) usingSphericalPolarGrid = /* Spherical coordinates flag ( True/False ) */
(PID.TID 0000.0001)                   T
(PID.TID 0000.0001)     ;
(PID.TID 0000.0001) usingCurvilinearGrid = /* Curvilinear coordinates flag ( True/False ) */
(PID.TID 0000.0001)                   F
(PID.TID 0000.0001)     ;
(PID.TID 0000.0001) useMin4hFacEdges = /* set hFacW,S as minimum of adjacent hFacC factor */
(PID.TID 0000.0001)                   F
(PID.TID 0000.0001)     ;
(PID.TID 0000.0001) interViscAr_pCell = /* account for partial-cell in interior vert. viscosity */
(PID.TID 0000.0001)                   F
(PID.TID 0000.0001)     ;
(PID.TID 0000.0001) interDiffKr_pCell = /* account for partial-cell in interior vert. diffusion */
(PID.TID 0000.0001)                   F
(PID.TID 0000.0001)     ;
(PID.TID 0000.0001) pCellMix_select = /* option to enhance mixing near surface & bottom */
(PID.TID 0000.0001)                       0
(PID.TID 0000.0001)     ;
(PID.TID 0000.0001) selectSigmaCoord = /* Hybrid-Sigma Vert. Coordinate option */
(PID.TID 0000.0001)                       0
(PID.TID 0000.0001)     ;
(PID.TID 0000.0001) rSigmaBnd = /* r/sigma transition ( units of r ==  m ) */
(PID.TID 0000.0001)                 1.234567000000000E+05
(PID.TID 0000.0001)     ;
(PID.TID 0000.0001) rkSign =   /* index orientation relative to vertical coordinate */
(PID.TID 0000.0001)                -1.000000000000000E+00
(PID.TID 0000.0001)     ;
(PID.TID 0000.0001) gravitySign = /* gravity orientation relative to vertical coordinate */
(PID.TID 0000.0001)                -1.000000000000000E+00
(PID.TID 0000.0001)     ;
(PID.TID 0000.0001) seaLev_Z =  /* reference height of sea-level [m] */
(PID.TID 0000.0001)                 0.000000000000000E+00
(PID.TID 0000.0001)     ;
(PID.TID 0000.0001) top_Pres =  /* reference pressure at the top [Pa] */
(PID.TID 0000.0001)                 0.000000000000000E+00
(PID.TID 0000.0001)     ;
(PID.TID 0000.0001) mass2rUnit = /* convert mass per unit area [kg/m2] to r-units [m] */
(PID.TID 0000.0001)                 9.661835748792270E-04
(PID.TID 0000.0001)     ;
(PID.TID 0000.0001) rUnit2mass = /* convert r-units [m] to mass per unit area [kg/m2] */
(PID.TID 0000.0001)                 1.035000000000000E+03
(PID.TID 0000.0001)     ;
(PID.TID 0000.0001) drC =   /* C spacing ( units of r ) */
(PID.TID 0000.0001)                 2.500000000000000E+01,      /* K =  1 */
(PID.TID 0000.0001)                 6.000000000000000E+01,      /* K =  2 */
(PID.TID 0000.0001)                 8.500000000000000E+01,      /* K =  3 */
(PID.TID 0000.0001)                 1.200000000000000E+02,      /* K =  4 */
(PID.TID 0000.0001)                 1.650000000000000E+02,      /* K =  5 */
(PID.TID 0000.0001)                 2.150000000000000E+02,      /* K =  6 */
(PID.TID 0000.0001)                 2.650000000000000E+02,      /* K =  7 */
(PID.TID 0000.0001)                 3.150000000000000E+02,      /* K =  8 */
(PID.TID 0000.0001)                 3.650000000000000E+02,      /* K =  9 */
(PID.TID 0000.0001)                 4.150000000000000E+02,      /* K = 10 */
(PID.TID 0000.0001)                 4.650000000000000E+02,      /* K = 11 */
(PID.TID 0000.0001)                 5.150000000000000E+02,      /* K = 12 */
(PID.TID 0000.0001)                 5.650000000000000E+02,      /* K = 13 */
(PID.TID 0000.0001)                 6.150000000000000E+02,      /* K = 14 */
(PID.TID 0000.0001)                 6.650000000000000E+02,      /* K = 15 */
(PID.TID 0000.0001)                 3.450000000000000E+02       /* K = 16 */
(PID.TID 0000.0001)     ;
(PID.TID 0000.0001) drF =   /* W spacing ( units of r ) */
(PID.TID 0000.0001)                 5.000000000000000E+01,      /* K =  1 */
(PID.TID 0000.0001)                 7.000000000000000E+01,      /* K =  2 */
(PID.TID 0000.0001)                 1.000000000000000E+02,      /* K =  3 */
(PID.TID 0000.0001)                 1.400000000000000E+02,      /* K =  4 */
(PID.TID 0000.0001)                 1.900000000000000E+02,      /* K =  5 */
(PID.TID 0000.0001)                 2.400000000000000E+02,      /* K =  6 */
(PID.TID 0000.0001)                 2.900000000000000E+02,      /* K =  7 */
(PID.TID 0000.0001)                 3.400000000000000E+02,      /* K =  8 */
(PID.TID 0000.0001)                 3.900000000000000E+02,      /* K =  9 */
(PID.TID 0000.0001)                 4.400000000000000E+02,      /* K = 10 */
(PID.TID 0000.0001)                 4.900000000000000E+02,      /* K = 11 */
(PID.TID 0000.0001)                 5.400000000000000E+02,      /* K = 12 */
(PID.TID 0000.0001)                 5.900000000000000E+02,      /* K = 13 */
(PID.TID 0000.0001)                 6.400000000000000E+02,      /* K = 14 */
(PID.TID 0000.0001)                 6.900000000000000E+02       /* K = 15 */
(PID.TID 0000.0001)     ;
(PID.TID 0000.0001) delX = /* U spacing ( m - cartesian, degrees - spherical ) */
(PID.TID 0000.0001)    90 @  4.000000000000000E+00              /* I =  1: 90 */
(PID.TID 0000.0001)     ;
(PID.TID 0000.0001) delY = /* V spacing ( m - cartesian, degrees - spherical ) */
(PID.TID 0000.0001)    40 @  4.000000000000000E+00              /* J =  1: 40 */
(PID.TID 0000.0001)     ;
(PID.TID 0000.0001) xgOrigin = /* X-axis origin of West  edge (cartesian: m, lat-lon: deg) */
(PID.TID 0000.0001)                 0.000000000000000E+00
(PID.TID 0000.0001)     ;
(PID.TID 0000.0001) ygOrigin = /* Y-axis origin of South edge (cartesian: m, lat-lon: deg) */
(PID.TID 0000.0001)                -8.000000000000000E+01
(PID.TID 0000.0001)     ;
(PID.TID 0000.0001) rSphere =  /* Radius ( ignored - cartesian, m - spherical ) */
(PID.TID 0000.0001)                 6.370000000000000E+06
(PID.TID 0000.0001)     ;
(PID.TID 0000.0001) deepAtmosphere = /* Deep/Shallow Atmosphere flag (True/False) */
(PID.TID 0000.0001)                   F
(PID.TID 0000.0001)     ;
(PID.TID 0000.0001) xC =  /* xC(:,1,:,1) : P-point X coord ( deg. or m if cartesian) */
(PID.TID 0000.0001)                 2.000000000000000E+00,      /* I =  1 */
(PID.TID 0000.0001)                 6.000000000000000E+00,      /* I =  2 */
(PID.TID 0000.0001)                 1.000000000000000E+01,      /* I =  3 */
(PID.TID 0000.0001)      . . .
(PID.TID 0000.0001)                 8.200000000000000E+01,      /* I = 21 */
(PID.TID 0000.0001)                 8.600000000000000E+01,      /* I = 22 */
(PID.TID 0000.0001)                 9.000000000000000E+01,      /* I = 23 */
(PID.TID 0000.0001)                 9.400000000000000E+01,      /* I = 24 */
(PID.TID 0000.0001)                 9.800000000000000E+01,      /* I = 25 */
(PID.TID 0000.0001)                 1.020000000000000E+02,      /* I = 26 */
(PID.TID 0000.0001)      . . .
(PID.TID 0000.0001)                 1.700000000000000E+02,      /* I = 43 */
(PID.TID 0000.0001)                 1.740000000000000E+02,      /* I = 44 */
(PID.TID 0000.0001)                 1.780000000000000E+02,      /* I = 45 */
(PID.TID 0000.0001)                 1.820000000000000E+02,      /* I = 46 */
(PID.TID 0000.0001)                 1.860000000000000E+02,      /* I = 47 */
(PID.TID 0000.0001)                 1.900000000000000E+02,      /* I = 48 */
(PID.TID 0000.0001)      . . .
(PID.TID 0000.0001)                 2.580000000000000E+02,      /* I = 65 */
(PID.TID 0000.0001)                 2.620000000000000E+02,      /* I = 66 */
(PID.TID 0000.0001)                 2.660000000000000E+02,      /* I = 67 */
(PID.TID 0000.0001)                 2.700000000000000E+02,      /* I = 68 */
(PID.TID 0000.0001)                 2.740000000000000E+02,      /* I = 69 */
(PID.TID 0000.0001)                 2.780000000000000E+02,      /* I = 70 */
(PID.TID 0000.0001)      . . .
(PID.TID 0000.0001)                 3.500000000000000E+02,      /* I = 88 */
(PID.TID 0000.0001)                 3.540000000000000E+02,      /* I = 89 */
(PID.TID 0000.0001)                 3.580000000000000E+02       /* I = 90 */
(PID.TID 0000.0001)     ;
(PID.TID 0000.0001) yC =  /* yC(1,:,1,:) : P-point Y coord ( deg. or m if cartesian) */
(PID.TID 0000.0001)                -7.800000000000000E+01,      /* J =  1 */
(PID.TID 0000.0001)                -7.400000000000000E+01,      /* J =  2 */
(PID.TID 0000.0001)                -7.000000000000000E+01,      /* J =  3 */
(PID.TID 0000.0001)                -6.600000000000000E+01,      /* J =  4 */
(PID.TID 0000.0001)                -6.200000000000000E+01,      /* J =  5 */
(PID.TID 0000.0001)                -5.800000000000000E+01,      /* J =  6 */
(PID.TID 0000.0001)                -5.400000000000000E+01,      /* J =  7 */
(PID.TID 0000.0001)                -5.000000000000000E+01,      /* J =  8 */
(PID.TID 0000.0001)                -4.600000000000000E+01,      /* J =  9 */
(PID.TID 0000.0001)                -4.200000000000000E+01,      /* J = 10 */
(PID.TID 0000.0001)                -3.800000000000000E+01,      /* J = 11 */
(PID.TID 0000.0001)                -3.400000000000000E+01,      /* J = 12 */
(PID.TID 0000.0001)                -3.000000000000000E+01,      /* J = 13 */
(PID.TID 0000.0001)                -2.600000000000000E+01,      /* J = 14 */
(PID.TID 0000.0001)                -2.200000000000000E+01,      /* J = 15 */
(PID.TID 0000.0001)                -1.800000000000000E+01,      /* J = 16 */
(PID.TID 0000.0001)                -1.400000000000000E+01,      /* J = 17 */
(PID.TID 0000.0001)                -1.000000000000000E+01,      /* J = 18 */
(PID.TID 0000.0001)                -6.000000000000000E+00,      /* J = 19 */
(PID.TID 0000.0001)                -2.000000000000000E+00,      /* J = 20 */
(PID.TID 0000.0001)                 2.000000000000000E+00,      /* J = 21 */
(PID.TID 0000.0001)                 6.000000000000000E+00,      /* J = 22 */
(PID.TID 0000.0001)                 1.000000000000000E+01,      /* J = 23 */
(PID.TID 0000.0001)                 1.400000000000000E+01,      /* J = 24 */
(PID.TID 0000.0001)                 1.800000000000000E+01,      /* J = 25 */
(PID.TID 0000.0001)                 2.200000000000000E+01,      /* J = 26 */
(PID.TID 0000.0001)                 2.600000000000000E+01,      /* J = 27 */
(PID.TID 0000.0001)                 3.000000000000000E+01,      /* J = 28 */
(PID.TID 0000.0001)                 3.400000000000000E+01,      /* J = 29 */
(PID.TID 0000.0001)                 3.800000000000000E+01,      /* J = 30 */
(PID.TID 0000.0001)                 4.200000000000000E+01,      /* J = 31 */
(PID.TID 0000.0001)                 4.600000000000000E+01,      /* J = 32 */
(PID.TID 0000.0001)                 5.000000000000000E+01,      /* J = 33 */
(PID.TID 0000.0001)                 5.400000000000000E+01,      /* J = 34 */
(PID.TID 0000.0001)                 5.800000000000000E+01,      /* J = 35 */
(PID.TID 0000.0001)                 6.200000000000000E+01,      /* J = 36 */
(PID.TID 0000.0001)                 6.600000000000000E+01,      /* J = 37 */
(PID.TID 0000.0001)                 7.000000000000000E+01,      /* J = 38 */
(PID.TID 0000.0001)                 7.400000000000000E+01,      /* J = 39 */
(PID.TID 0000.0001)                 7.800000000000000E+01       /* J = 40 */
(PID.TID 0000.0001)     ;
(PID.TID 0000.0001) rcoord = /* P-point R coordinate (  units of r ) */
(PID.TID 0000.0001)                -2.500000000000000E+01,      /* K =  1 */
(PID.TID 0000.0001)                -8.500000000000000E+01,      /* K =  2 */
(PID.TID 0000.0001)                -1.700000000000000E+02,      /* K =  3 */
(PID.TID 0000.0001)                -2.900000000000000E+02,      /* K =  4 */
(PID.TID 0000.0001)                -4.550000000000000E+02,      /* K =  5 */
(PID.TID 0000.0001)                -6.700000000000000E+02,      /* K =  6 */
(PID.TID 0000.0001)                -9.350000000000000E+02,      /* K =  7 */
(PID.TID 0000.0001)                -1.250000000000000E+03,      /* K =  8 */
(PID.TID 0000.0001)                -1.615000000000000E+03,      /* K =  9 */
(PID.TID 0000.0001)                -2.030000000000000E+03,      /* K = 10 */
(PID.TID 0000.0001)                -2.495000000000000E+03,      /* K = 11 */
(PID.TID 0000.0001)                -3.010000000000000E+03,      /* K = 12 */
(PID.TID 0000.0001)                -3.575000000000000E+03,      /* K = 13 */
(PID.TID 0000.0001)                -4.190000000000000E+03,      /* K = 14 */
(PID.TID 0000.0001)                -4.855000000000000E+03       /* K = 15 */
(PID.TID 0000.0001)     ;
(PID.TID 0000.0001) rF =   /* W-Interf. R coordinate (  units of r ) */
(PID.TID 0000.0001)                 0.000000000000000E+00,      /* K =  1 */
(PID.TID 0000.0001)                -5.000000000000000E+01,      /* K =  2 */
(PID.TID 0000.0001)                -1.200000000000000E+02,      /* K =  3 */
(PID.TID 0000.0001)                -2.200000000000000E+02,      /* K =  4 */
(PID.TID 0000.0001)                -3.600000000000000E+02,      /* K =  5 */
(PID.TID 0000.0001)                -5.500000000000000E+02,      /* K =  6 */
(PID.TID 0000.0001)                -7.900000000000000E+02,      /* K =  7 */
(PID.TID 0000.0001)                -1.080000000000000E+03,      /* K =  8 */
(PID.TID 0000.0001)                -1.420000000000000E+03,      /* K =  9 */
(PID.TID 0000.0001)                -1.810000000000000E+03,      /* K = 10 */
(PID.TID 0000.0001)                -2.250000000000000E+03,      /* K = 11 */
(PID.TID 0000.0001)                -2.740000000000000E+03,      /* K = 12 */
(PID.TID 0000.0001)                -3.280000000000000E+03,      /* K = 13 */
(PID.TID 0000.0001)                -3.870000000000000E+03,      /* K = 14 */
(PID.TID 0000.0001)                -4.510000000000000E+03,      /* K = 15 */
(PID.TID 0000.0001)                -5.200000000000000E+03       /* K = 16 */
(PID.TID 0000.0001)     ;
(PID.TID 0000.0001) deepFacC = /* deep-model grid factor @ cell-Center (-) */
(PID.TID 0000.0001)    15 @  1.000000000000000E+00              /* K =  1: 15 */
(PID.TID 0000.0001)     ;
(PID.TID 0000.0001) deepFacF = /* deep-model grid factor @ W-Interface (-) */
(PID.TID 0000.0001)    16 @  1.000000000000000E+00              /* K =  1: 16 */
(PID.TID 0000.0001)     ;
(PID.TID 0000.0001) rVel2wUnit = /* convert units: rVel -> wSpeed (=1 if z-coord)*/
(PID.TID 0000.0001)    16 @  1.000000000000000E+00              /* K =  1: 16 */
(PID.TID 0000.0001)     ;
(PID.TID 0000.0001) wUnit2rVel = /* convert units: wSpeed -> rVel (=1 if z-coord)*/
(PID.TID 0000.0001)    16 @  1.000000000000000E+00              /* K =  1: 16 */
(PID.TID 0000.0001)     ;
(PID.TID 0000.0001) dBdrRef = /* Vertical grad. of reference buoyancy [(m/s/r)^2] */
(PID.TID 0000.0001)    15 @  0.000000000000000E+00              /* K =  1: 15 */
(PID.TID 0000.0001)     ;
(PID.TID 0000.0001) rotateGrid = /* use rotated grid ( True/False ) */
(PID.TID 0000.0001)                   F
(PID.TID 0000.0001)     ;
(PID.TID 0000.0001) phiEuler = /* Euler angle, rotation about original z-coordinate [rad] */
(PID.TID 0000.0001)                 0.000000000000000E+00
(PID.TID 0000.0001)     ;
(PID.TID 0000.0001) thetaEuler = /* Euler angle, rotation about new x-coordinate [rad] */
(PID.TID 0000.0001)                 0.000000000000000E+00
(PID.TID 0000.0001)     ;
(PID.TID 0000.0001) psiEuler = /* Euler angle, rotation about new z-coordinate [rad] */
(PID.TID 0000.0001)                 0.000000000000000E+00
(PID.TID 0000.0001)     ;
(PID.TID 0000.0001) dxF =  /* dxF(:,1,:,1) ( units: m ) */
(PID.TID 0000.0001)    90 @  9.246038586187513E+04              /* I =  1: 90 */
(PID.TID 0000.0001)     ;
(PID.TID 0000.0001) dxF =  /* dxF(1,:,1,:) ( units: m ) */
(PID.TID 0000.0001)                 9.246038586187513E+04,      /* J =  1 */
(PID.TID 0000.0001)                 1.225786591246834E+05,      /* J =  2 */
(PID.TID 0000.0001)                 1.520997414818001E+05,      /* J =  3 */
(PID.TID 0000.0001)                 1.808798091874300E+05,      /* J =  4 */
(PID.TID 0000.0001)                 2.087786486446736E+05,      /* J =  5 */
(PID.TID 0000.0001)                 2.356603395120765E+05,      /* J =  6 */
(PID.TID 0000.0001)                 2.613939168938713E+05,      /* J =  7 */
(PID.TID 0000.0001)                 2.858540093877838E+05,      /* J =  8 */
(PID.TID 0000.0001)                 3.089214498819034E+05,      /* J =  9 */
(PID.TID 0000.0001)                 3.304838561248741E+05,      /* J = 10 */
(PID.TID 0000.0001)                 3.504361782409254E+05,      /* J = 11 */
(PID.TID 0000.0001)                 3.686812105223082E+05,      /* J = 12 */
(PID.TID 0000.0001)                 3.851300650057323E+05,      /* J = 13 */
(PID.TID 0000.0001)                 3.997026045255871E+05,      /* J = 14 */
(PID.TID 0000.0001)                 4.123278331341585E+05,      /* J = 15 */
(PID.TID 0000.0001)                 4.229442419867491E+05,      /* J = 16 */
(PID.TID 0000.0001)                 4.315001090065870E+05,      /* J = 17 */
(PID.TID 0000.0001)                 4.379537508695838E+05,      /* J = 18 */
(PID.TID 0000.0001)                 4.422737260813012E+05,      /* J = 19 */
(PID.TID 0000.0001)     2 @  4.444389881567502E+05,             /* J = 20: 21 */
(PID.TID 0000.0001)                 4.422737260813012E+05,      /* J = 22 */
(PID.TID 0000.0001)                 4.379537508695838E+05,      /* J = 23 */
(PID.TID 0000.0001)                 4.315001090065870E+05,      /* J = 24 */
(PID.TID 0000.0001)                 4.229442419867491E+05,      /* J = 25 */
(PID.TID 0000.0001)                 4.123278331341585E+05,      /* J = 26 */
(PID.TID 0000.0001)                 3.997026045255871E+05,      /* J = 27 */
(PID.TID 0000.0001)                 3.851300650057323E+05,      /* J = 28 */
(PID.TID 0000.0001)                 3.686812105223082E+05,      /* J = 29 */
(PID.TID 0000.0001)                 3.504361782409254E+05,      /* J = 30 */
(PID.TID 0000.0001)                 3.304838561248741E+05,      /* J = 31 */
(PID.TID 0000.0001)                 3.089214498819034E+05,      /* J = 32 */
(PID.TID 0000.0001)                 2.858540093877838E+05,      /* J = 33 */
(PID.TID 0000.0001)                 2.613939168938713E+05,      /* J = 34 */
(PID.TID 0000.0001)                 2.356603395120765E+05,      /* J = 35 */
(PID.TID 0000.0001)                 2.087786486446736E+05,      /* J = 36 */
(PID.TID 0000.0001)                 1.808798091874300E+05,      /* J = 37 */
(PID.TID 0000.0001)                 1.520997414818001E+05,      /* J = 38 */
(PID.TID 0000.0001)                 1.225786591246834E+05,      /* J = 39 */
(PID.TID 0000.0001)                 9.246038586187513E+04       /* J = 40 */
(PID.TID 0000.0001)     ;
(PID.TID 0000.0001) dyF =  /* dyF(:,1,:,1) ( units: m ) */
(PID.TID 0000.0001)    90 @  4.447098934081552E+05              /* I =  1: 90 */
(PID.TID 0000.0001)     ;
(PID.TID 0000.0001) dyF =  /* dyF(1,:,1,:) ( units: m ) */
(PID.TID 0000.0001)    40 @  4.447098934081552E+05              /* J =  1: 40 */
(PID.TID 0000.0001)     ;
(PID.TID 0000.0001) dxG =  /* dxG(:,1,:,1) ( units: m ) */
(PID.TID 0000.0001)    90 @  7.722306258078101E+04              /* I =  1: 90 */
(PID.TID 0000.0001)     ;
(PID.TID 0000.0001) dxG =  /* dxG(1,:,1,:) ( units: m ) */
(PID.TID 0000.0001)                 7.722306258078101E+04,      /* J =  1 */
(PID.TID 0000.0001)                 1.075850604052271E+05,      /* J =  2 */
(PID.TID 0000.0001)                 1.374229146297914E+05,      /* J =  3 */
(PID.TID 0000.0001)                 1.665912582279823E+05,      /* J =  4 */
(PID.TID 0000.0001)                 1.949479859617814E+05,      /* J =  5 */
(PID.TID 0000.0001)                 2.223549467040777E+05,      /* J =  6 */
(PID.TID 0000.0001)                 2.486786164970726E+05,      /* J =  7 */
(PID.TID 0000.0001)                 2.737907490675810E+05,      /* J =  8 */
(PID.TID 0000.0001)                 2.975690006299821E+05,      /* J =  9 */
(PID.TID 0000.0001)                 3.198975259328452E+05,      /* J = 10 */
(PID.TID 0000.0001)                 3.406675426453503E+05,      /* J = 11 */
(PID.TID 0000.0001)                 3.597778613338690E+05,      /* J = 12 */
(PID.TID 0000.0001)                 3.771353784467131E+05,      /* J = 13 */
(PID.TID 0000.0001)                 3.926555299052806E+05,      /* J = 14 */
(PID.TID 0000.0001)                 4.062627030917454E+05,      /* J = 15 */
(PID.TID 0000.0001)                 4.178906052261313E+05,      /* J = 16 */
(PID.TID 0000.0001)                 4.274825863380723E+05,      /* J = 17 */
(PID.TID 0000.0001)                 4.349919152597734E+05,      /* J = 18 */
(PID.TID 0000.0001)                 4.403820072955634E+05,      /* J = 19 */
(PID.TID 0000.0001)                 4.436266024588540E+05,      /* J = 20 */
(PID.TID 0000.0001)                 4.447098934081552E+05,      /* J = 21 */
(PID.TID 0000.0001)                 4.436266024588540E+05,      /* J = 22 */
(PID.TID 0000.0001)                 4.403820072955634E+05,      /* J = 23 */
(PID.TID 0000.0001)                 4.349919152597734E+05,      /* J = 24 */
(PID.TID 0000.0001)                 4.274825863380723E+05,      /* J = 25 */
(PID.TID 0000.0001)                 4.178906052261313E+05,      /* J = 26 */
(PID.TID 0000.0001)                 4.062627030917454E+05,      /* J = 27 */
(PID.TID 0000.0001)                 3.926555299052806E+05,      /* J = 28 */
(PID.TID 0000.0001)                 3.771353784467131E+05,      /* J = 29 */
(PID.TID 0000.0001)                 3.597778613338690E+05,      /* J = 30 */
(PID.TID 0000.0001)                 3.406675426453503E+05,      /* J = 31 */
(PID.TID 0000.0001)                 3.198975259328452E+05,      /* J = 32 */
(PID.TID 0000.0001)                 2.975690006299821E+05,      /* J = 33 */
(PID.TID 0000.0001)                 2.737907490675810E+05,      /* J = 34 */
(PID.TID 0000.0001)                 2.486786164970726E+05,      /* J = 35 */
(PID.TID 0000.0001)                 2.223549467040777E+05,      /* J = 36 */
(PID.TID 0000.0001)                 1.949479859617814E+05,      /* J = 37 */
(PID.TID 0000.0001)                 1.665912582279823E+05,      /* J = 38 */
(PID.TID 0000.0001)                 1.374229146297914E+05,      /* J = 39 */
(PID.TID 0000.0001)                 1.075850604052271E+05       /* J = 40 */
(PID.TID 0000.0001)     ;
(PID.TID 0000.0001) dyG =  /* dyG(:,1,:,1) ( units: m ) */
(PID.TID 0000.0001)    90 @  4.447098934081552E+05              /* I =  1: 90 */
(PID.TID 0000.0001)     ;
(PID.TID 0000.0001) dyG =  /* dyG(1,:,1,:) ( units: m ) */
(PID.TID 0000.0001)    40 @  4.447098934081552E+05              /* J =  1: 40 */
(PID.TID 0000.0001)     ;
(PID.TID 0000.0001) dxC =  /* dxC(:,1,:,1) ( units: m ) */
(PID.TID 0000.0001)    90 @  9.246038586187513E+04              /* I =  1: 90 */
(PID.TID 0000.0001)     ;
(PID.TID 0000.0001) dxC =  /* dxC(1,:,1,:) ( units: m ) */
(PID.TID 0000.0001)                 9.246038586187513E+04,      /* J =  1 */
(PID.TID 0000.0001)                 1.225786591246834E+05,      /* J =  2 */
(PID.TID 0000.0001)                 1.520997414818001E+05,      /* J =  3 */
(PID.TID 0000.0001)                 1.808798091874300E+05,      /* J =  4 */
(PID.TID 0000.0001)                 2.087786486446736E+05,      /* J =  5 */
(PID.TID 0000.0001)                 2.356603395120765E+05,      /* J =  6 */
(PID.TID 0000.0001)                 2.613939168938713E+05,      /* J =  7 */
(PID.TID 0000.0001)                 2.858540093877838E+05,      /* J =  8 */
(PID.TID 0000.0001)                 3.089214498819034E+05,      /* J =  9 */
(PID.TID 0000.0001)                 3.304838561248741E+05,      /* J = 10 */
(PID.TID 0000.0001)                 3.504361782409254E+05,      /* J = 11 */
(PID.TID 0000.0001)                 3.686812105223082E+05,      /* J = 12 */
(PID.TID 0000.0001)                 3.851300650057323E+05,      /* J = 13 */
(PID.TID 0000.0001)                 3.997026045255871E+05,      /* J = 14 */
(PID.TID 0000.0001)                 4.123278331341585E+05,      /* J = 15 */
(PID.TID 0000.0001)                 4.229442419867491E+05,      /* J = 16 */
(PID.TID 0000.0001)                 4.315001090065870E+05,      /* J = 17 */
(PID.TID 0000.0001)                 4.379537508695838E+05,      /* J = 18 */
(PID.TID 0000.0001)                 4.422737260813012E+05,      /* J = 19 */
(PID.TID 0000.0001)     2 @  4.444389881567502E+05,             /* J = 20: 21 */
(PID.TID 0000.0001)                 4.422737260813012E+05,      /* J = 22 */
(PID.TID 0000.0001)                 4.379537508695838E+05,      /* J = 23 */
(PID.TID 0000.0001)                 4.315001090065870E+05,      /* J = 24 */
(PID.TID 0000.0001)                 4.229442419867491E+05,      /* J = 25 */
(PID.TID 0000.0001)                 4.123278331341585E+05,      /* J = 26 */
(PID.TID 0000.0001)                 3.997026045255871E+05,      /* J = 27 */
(PID.TID 0000.0001)                 3.851300650057323E+05,      /* J = 28 */
(PID.TID 0000.0001)                 3.686812105223082E+05,      /* J = 29 */
(PID.TID 0000.0001)                 3.504361782409254E+05,      /* J = 30 */
(PID.TID 0000.0001)                 3.304838561248741E+05,      /* J = 31 */
(PID.TID 0000.0001)                 3.089214498819034E+05,      /* J = 32 */
(PID.TID 0000.0001)                 2.858540093877838E+05,      /* J = 33 */
(PID.TID 0000.0001)                 2.613939168938713E+05,      /* J = 34 */
(PID.TID 0000.0001)                 2.356603395120765E+05,      /* J = 35 */
(PID.TID 0000.0001)                 2.087786486446736E+05,      /* J = 36 */
(PID.TID 0000.0001)                 1.808798091874300E+05,      /* J = 37 */
(PID.TID 0000.0001)                 1.520997414818001E+05,      /* J = 38 */
(PID.TID 0000.0001)                 1.225786591246834E+05,      /* J = 39 */
(PID.TID 0000.0001)                 9.246038586187513E+04       /* J = 40 */
(PID.TID 0000.0001)     ;
(PID.TID 0000.0001) dyC =  /* dyC(:,1,:,1) ( units: m ) */
(PID.TID 0000.0001)    90 @  4.447098934081552E+05              /* I =  1: 90 */
(PID.TID 0000.0001)     ;
(PID.TID 0000.0001) dyC =  /* dyC(1,:,1,:) ( units: m ) */
(PID.TID 0000.0001)    40 @  4.447098934081552E+05              /* J =  1: 40 */
(PID.TID 0000.0001)     ;
(PID.TID 0000.0001) dxV =  /* dxV(:,1,:,1) ( units: m ) */
(PID.TID 0000.0001)    90 @  7.722306258078101E+04              /* I =  1: 90 */
(PID.TID 0000.0001)     ;
(PID.TID 0000.0001) dxV =  /* dxV(1,:,1,:) ( units: m ) */
(PID.TID 0000.0001)                 7.722306258078101E+04,      /* J =  1 */
(PID.TID 0000.0001)                 1.075850604052271E+05,      /* J =  2 */
(PID.TID 0000.0001)                 1.374229146297914E+05,      /* J =  3 */
(PID.TID 0000.0001)                 1.665912582279823E+05,      /* J =  4 */
(PID.TID 0000.0001)                 1.949479859617814E+05,      /* J =  5 */
(PID.TID 0000.0001)                 2.223549467040777E+05,      /* J =  6 */
(PID.TID 0000.0001)                 2.486786164970726E+05,      /* J =  7 */
(PID.TID 0000.0001)                 2.737907490675810E+05,      /* J =  8 */
(PID.TID 0000.0001)                 2.975690006299821E+05,      /* J =  9 */
(PID.TID 0000.0001)                 3.198975259328452E+05,      /* J = 10 */
(PID.TID 0000.0001)                 3.406675426453503E+05,      /* J = 11 */
(PID.TID 0000.0001)                 3.597778613338690E+05,      /* J = 12 */
(PID.TID 0000.0001)                 3.771353784467131E+05,      /* J = 13 */
(PID.TID 0000.0001)                 3.926555299052806E+05,      /* J = 14 */
(PID.TID 0000.0001)                 4.062627030917454E+05,      /* J = 15 */
(PID.TID 0000.0001)                 4.178906052261313E+05,      /* J = 16 */
(PID.TID 0000.0001)                 4.274825863380723E+05,      /* J = 17 */
(PID.TID 0000.0001)                 4.349919152597734E+05,      /* J = 18 */
(PID.TID 0000.0001)                 4.403820072955634E+05,      /* J = 19 */
(PID.TID 0000.0001)                 4.436266024588540E+05,      /* J = 20 */
(PID.TID 0000.0001)                 4.447098934081552E+05,      /* J = 21 */
(PID.TID 0000.0001)                 4.436266024588540E+05,      /* J = 22 */
(PID.TID 0000.0001)                 4.403820072955634E+05,      /* J = 23 */
(PID.TID 0000.0001)                 4.349919152597734E+05,      /* J = 24 */
(PID.TID 0000.0001)                 4.274825863380723E+05,      /* J = 25 */
(PID.TID 0000.0001)                 4.178906052261313E+05,      /* J = 26 */
(PID.TID 0000.0001)                 4.062627030917454E+05,      /* J = 27 */
(PID.TID 0000.0001)                 3.926555299052806E+05,      /* J = 28 */
(PID.TID 0000.0001)                 3.771353784467131E+05,      /* J = 29 */
(PID.TID 0000.0001)                 3.597778613338690E+05,      /* J = 30 */
(PID.TID 0000.0001)                 3.406675426453503E+05,      /* J = 31 */
(PID.TID 0000.0001)                 3.198975259328452E+05,      /* J = 32 */
(PID.TID 0000.0001)                 2.975690006299821E+05,      /* J = 33 */
(PID.TID 0000.0001)                 2.737907490675810E+05,      /* J = 34 */
(PID.TID 0000.0001)                 2.486786164970726E+05,      /* J = 35 */
(PID.TID 0000.0001)                 2.223549467040777E+05,      /* J = 36 */
(PID.TID 0000.0001)                 1.949479859617814E+05,      /* J = 37 */
(PID.TID 0000.0001)                 1.665912582279823E+05,      /* J = 38 */
(PID.TID 0000.0001)                 1.374229146297914E+05,      /* J = 39 */
(PID.TID 0000.0001)                 1.075850604052271E+05       /* J = 40 */
(PID.TID 0000.0001)     ;
(PID.TID 0000.0001) dyU =  /* dyU(:,1,:,1) ( units: m ) */
(PID.TID 0000.0001)    90 @  4.447098934081552E+05              /* I =  1: 90 */
(PID.TID 0000.0001)     ;
(PID.TID 0000.0001) dyU =  /* dyU(1,:,1,:) ( units: m ) */
(PID.TID 0000.0001)    40 @  4.447098934081552E+05              /* J =  1: 40 */
(PID.TID 0000.0001)     ;
(PID.TID 0000.0001) rA  =  /* rA (:,1,:,1) ( units: m^2 ) */
(PID.TID 0000.0001)    90 @  4.110969866729047E+10              /* I =  1: 90 */
(PID.TID 0000.0001)     ;
(PID.TID 0000.0001) rA  =  /* rA (1,:,1,:) ( units: m^2 ) */
(PID.TID 0000.0001)                 4.110969866729047E+10,      /* J =  1 */
(PID.TID 0000.0001)                 5.450087291636665E+10,      /* J =  2 */
(PID.TID 0000.0001)                 6.762652439100235E+10,      /* J =  3 */
(PID.TID 0000.0001)                 8.042270623659998E+10,      /* J =  4 */
(PID.TID 0000.0001)                 9.282707674147523E+10,      /* J =  5 */
(PID.TID 0000.0001)                 1.047792030594103E+11,      /* J =  6 */
(PID.TID 0000.0001)                 1.162208556324093E+11,      /* J =  7 */
(PID.TID 0000.0001)                 1.270962918792468E+11,      /* J =  8 */
(PID.TID 0000.0001)                 1.373525277677229E+11,      /* J =  9 */
(PID.TID 0000.0001)                 1.469395959475426E+11,      /* J = 10 */
(PID.TID 0000.0001)                 1.558107891862220E+11,      /* J = 11 */
(PID.TID 0000.0001)                 1.639228879220326E+11,      /* J = 12 */
(PID.TID 0000.0001)                 1.712363708253573E+11,      /* J = 13 */
(PID.TID 0000.0001)                 1.777156073426415E+11,      /* J = 14 */
(PID.TID 0000.0001)                 1.833290312848623E+11,      /* J = 15 */
(PID.TID 0000.0001)                 1.880492946148330E+11,      /* J = 16 */
(PID.TID 0000.0001)                 1.918534006840893E+11,      /* J = 17 */
(PID.TID 0000.0001)                 1.947228162702492E+11,      /* J = 18 */
(PID.TID 0000.0001)                 1.966435618690094E+11,      /* J = 19 */
(PID.TID 0000.0001)     2 @  1.976062798008856E+11,             /* J = 20: 21 */
(PID.TID 0000.0001)                 1.966435618690094E+11,      /* J = 22 */
(PID.TID 0000.0001)                 1.947228162702492E+11,      /* J = 23 */
(PID.TID 0000.0001)                 1.918534006840893E+11,      /* J = 24 */
(PID.TID 0000.0001)                 1.880492946148330E+11,      /* J = 25 */
(PID.TID 0000.0001)                 1.833290312848623E+11,      /* J = 26 */
(PID.TID 0000.0001)                 1.777156073426415E+11,      /* J = 27 */
(PID.TID 0000.0001)                 1.712363708253573E+11,      /* J = 28 */
(PID.TID 0000.0001)                 1.639228879220326E+11,      /* J = 29 */
(PID.TID 0000.0001)                 1.558107891862220E+11,      /* J = 30 */
(PID.TID 0000.0001)                 1.469395959475426E+11,      /* J = 31 */
(PID.TID 0000.0001)                 1.373525277677229E+11,      /* J = 32 */
(PID.TID 0000.0001)                 1.270962918792468E+11,      /* J = 33 */
(PID.TID 0000.0001)                 1.162208556324093E+11,      /* J = 34 */
(PID.TID 0000.0001)                 1.047792030594103E+11,      /* J = 35 */
(PID.TID 0000.0001)                 9.282707674147523E+10,      /* J = 36 */
(PID.TID 0000.0001)                 8.042270623659998E+10,      /* J = 37 */
(PID.TID 0000.0001)                 6.762652439100235E+10,      /* J = 38 */
(PID.TID 0000.0001)                 5.450087291636665E+10,      /* J = 39 */
(PID.TID 0000.0001)                 4.110969866729047E+10       /* J = 40 */
(PID.TID 0000.0001)     ;
(PID.TID 0000.0001) rAw =  /* rAw(:,1,:,1) ( units: m^2 ) */
(PID.TID 0000.0001)    90 @  4.110969866729047E+10              /* I =  1: 90 */
(PID.TID 0000.0001)     ;
(PID.TID 0000.0001) rAw =  /* rAw(1,:,1,:) ( units: m^2 ) */
(PID.TID 0000.0001)                 4.110969866729047E+10,      /* J =  1 */
(PID.TID 0000.0001)                 5.450087291636665E+10,      /* J =  2 */
(PID.TID 0000.0001)                 6.762652439100235E+10,      /* J =  3 */
(PID.TID 0000.0001)                 8.042270623659998E+10,      /* J =  4 */
(PID.TID 0000.0001)                 9.282707674147523E+10,      /* J =  5 */
(PID.TID 0000.0001)                 1.047792030594103E+11,      /* J =  6 */
(PID.TID 0000.0001)                 1.162208556324093E+11,      /* J =  7 */
(PID.TID 0000.0001)                 1.270962918792468E+11,      /* J =  8 */
(PID.TID 0000.0001)                 1.373525277677229E+11,      /* J =  9 */
(PID.TID 0000.0001)                 1.469395959475426E+11,      /* J = 10 */
(PID.TID 0000.0001)                 1.558107891862220E+11,      /* J = 11 */
(PID.TID 0000.0001)                 1.639228879220326E+11,      /* J = 12 */
(PID.TID 0000.0001)                 1.712363708253573E+11,      /* J = 13 */
(PID.TID 0000.0001)                 1.777156073426415E+11,      /* J = 14 */
(PID.TID 0000.0001)                 1.833290312848623E+11,      /* J = 15 */
(PID.TID 0000.0001)                 1.880492946148330E+11,      /* J = 16 */
(PID.TID 0000.0001)                 1.918534006840893E+11,      /* J = 17 */
(PID.TID 0000.0001)                 1.947228162702492E+11,      /* J = 18 */
(PID.TID 0000.0001)                 1.966435618690094E+11,      /* J = 19 */
(PID.TID 0000.0001)     2 @  1.976062798008856E+11,             /* J = 20: 21 */
(PID.TID 0000.0001)                 1.966435618690094E+11,      /* J = 22 */
(PID.TID 0000.0001)                 1.947228162702492E+11,      /* J = 23 */
(PID.TID 0000.0001)                 1.918534006840893E+11,      /* J = 24 */
(PID.TID 0000.0001)                 1.880492946148330E+11,      /* J = 25 */
(PID.TID 0000.0001)                 1.833290312848623E+11,      /* J = 26 */
(PID.TID 0000.0001)                 1.777156073426415E+11,      /* J = 27 */
(PID.TID 0000.0001)                 1.712363708253573E+11,      /* J = 28 */
(PID.TID 0000.0001)                 1.639228879220326E+11,      /* J = 29 */
(PID.TID 0000.0001)                 1.558107891862220E+11,      /* J = 30 */
(PID.TID 0000.0001)                 1.469395959475426E+11,      /* J = 31 */
(PID.TID 0000.0001)                 1.373525277677229E+11,      /* J = 32 */
(PID.TID 0000.0001)                 1.270962918792468E+11,      /* J = 33 */
(PID.TID 0000.0001)                 1.162208556324093E+11,      /* J = 34 */
(PID.TID 0000.0001)                 1.047792030594103E+11,      /* J = 35 */
(PID.TID 0000.0001)                 9.282707674147523E+10,      /* J = 36 */
(PID.TID 0000.0001)                 8.042270623659998E+10,      /* J = 37 */
(PID.TID 0000.0001)                 6.762652439100235E+10,      /* J = 38 */
(PID.TID 0000.0001)                 5.450087291636665E+10,      /* J = 39 */
(PID.TID 0000.0001)                 4.110969866729047E+10       /* J = 40 */
(PID.TID 0000.0001)     ;
(PID.TID 0000.0001) rAs =  /* rAs(:,1,:,1) ( units: m^2 ) */
(PID.TID 0000.0001)    90 @  3.433488626798250E+10              /* I =  1: 90 */
(PID.TID 0000.0001)     ;
(PID.TID 0000.0001) rAs =  /* rAs(1,:,1,:) ( units: m^2 ) */
(PID.TID 0000.0001)                 3.433488626798250E+10,      /* J =  1 */
(PID.TID 0000.0001)                 4.783442523123625E+10,      /* J =  2 */
(PID.TID 0000.0001)                 6.110091968306414E+10,      /* J =  3 */
(PID.TID 0000.0001)                 7.406973659603818E+10,      /* J =  4 */
(PID.TID 0000.0001)                 8.667769319778079E+10,      /* J =  5 */
(PID.TID 0000.0001)                 9.886336479107463E+10,      /* J =  6 */
(PID.TID 0000.0001)                 1.105673840088173E+11,      /* J =  7 */
(PID.TID 0000.0001)                 1.217327300458638E+11,      /* J =  8 */
(PID.TID 0000.0001)                 1.323050064586578E+11,      /* J =  9 */
(PID.TID 0000.0001)                 1.422327061792377E+11,      /* J = 10 */
(PID.TID 0000.0001)                 1.514674624524945E+11,      /* J = 11 */
(PID.TID 0000.0001)                 1.599642844741385E+11,      /* J = 12 */
(PID.TID 0000.0001)                 1.676817765813788E+11,      /* J = 13 */
(PID.TID 0000.0001)                 1.745823399284268E+11,      /* J = 14 */
(PID.TID 0000.0001)                 1.806323556642996E+11,      /* J = 15 */
(PID.TID 0000.0001)                 1.858023487204767E+11,      /* J = 16 */
(PID.TID 0000.0001)                 1.900671314104743E+11,      /* J = 17 */
(PID.TID 0000.0001)                 1.934059261417216E+11,      /* J = 18 */
(PID.TID 0000.0001)                 1.958024666419019E+11,      /* J = 19 */
(PID.TID 0000.0001)                 1.972450772065981E+11,      /* J = 20 */
(PID.TID 0000.0001)                 1.977267295821495E+11,      /* J = 21 */
(PID.TID 0000.0001)                 1.972450772065981E+11,      /* J = 22 */
(PID.TID 0000.0001)                 1.958024666419019E+11,      /* J = 23 */
(PID.TID 0000.0001)                 1.934059261417216E+11,      /* J = 24 */
(PID.TID 0000.0001)                 1.900671314104743E+11,      /* J = 25 */
(PID.TID 0000.0001)                 1.858023487204767E+11,      /* J = 26 */
(PID.TID 0000.0001)                 1.806323556642996E+11,      /* J = 27 */
(PID.TID 0000.0001)                 1.745823399284268E+11,      /* J = 28 */
(PID.TID 0000.0001)                 1.676817765813788E+11,      /* J = 29 */
(PID.TID 0000.0001)                 1.599642844741385E+11,      /* J = 30 */
(PID.TID 0000.0001)                 1.514674624524945E+11,      /* J = 31 */
(PID.TID 0000.0001)                 1.422327061792377E+11,      /* J = 32 */
(PID.TID 0000.0001)                 1.323050064586578E+11,      /* J = 33 */
(PID.TID 0000.0001)                 1.217327300458638E+11,      /* J = 34 */
(PID.TID 0000.0001)                 1.105673840088173E+11,      /* J = 35 */
(PID.TID 0000.0001)                 9.886336479107463E+10,      /* J = 36 */
(PID.TID 0000.0001)                 8.667769319778079E+10,      /* J = 37 */
(PID.TID 0000.0001)                 7.406973659603818E+10,      /* J = 38 */
(PID.TID 0000.0001)                 6.110091968306414E+10,      /* J = 39 */
(PID.TID 0000.0001)                 4.783442523123625E+10       /* J = 40 */
(PID.TID 0000.0001)     ;
(PID.TID 0000.0001) globalArea = /* Integrated horizontal Area (m^2) */
(PID.TID 0000.0001)                 3.450614146649749E+14
(PID.TID 0000.0001)     ;
(PID.TID 0000.0001) // =======================================================
(PID.TID 0000.0001) // End of Model config. summary
(PID.TID 0000.0001) // =======================================================
(PID.TID 0000.0001) 
(PID.TID 0000.0001) == Packages configuration : Check & print summary ==
(PID.TID 0000.0001) 
(PID.TID 0000.0001) GMREDI_CHECK: #define GMREDI
(PID.TID 0000.0001) GM_AdvForm =     /* if FALSE => use SkewFlux Form */
(PID.TID 0000.0001)                   T
(PID.TID 0000.0001)     ;
(PID.TID 0000.0001) GM_InMomAsStress = /* if TRUE => apply as Eddy Stress */
(PID.TID 0000.0001)                   F
(PID.TID 0000.0001)     ;
(PID.TID 0000.0001) GM_AdvSeparate = /* Calc Bolus & Euler Adv. separately */
(PID.TID 0000.0001)                   F
(PID.TID 0000.0001)     ;
(PID.TID 0000.0001) GM_ExtraDiag =   /* Tensor Extra Diag (line 1&2) non 0 */
(PID.TID 0000.0001)                   T
(PID.TID 0000.0001)     ;
(PID.TID 0000.0001) GM_isopycK =    /* Background Isopyc. Diffusivity [m^2/s] */
(PID.TID 0000.0001)                 1.100000000000000E+03
(PID.TID 0000.0001)     ;
(PID.TID 0000.0001) GM_skewflx*K =  /* Background GM_SkewFlx Diffusivity [m^2/s] */
(PID.TID 0000.0001)                 0.000000000000000E+00
(PID.TID 0000.0001)     ;
(PID.TID 0000.0001) GM_advec*K =    /* Backg. GM-Advec(=Bolus) Diffusivity [m^2/s]*/
(PID.TID 0000.0001)                 9.000000000000000E+02
(PID.TID 0000.0001)     ;
(PID.TID 0000.0001) GM_Kmin_horiz = /* Minimum Horizontal Diffusivity [m^2/s] */
(PID.TID 0000.0001)                 5.000000000000000E+01
(PID.TID 0000.0001)     ;
(PID.TID 0000.0001) GM_Visbeck_alpha = /* Visbeck alpha coeff. [-] */
(PID.TID 0000.0001)                 0.000000000000000E+00
(PID.TID 0000.0001)     ;
(PID.TID 0000.0001) GM_Small_Number =  /* epsilon used in slope calc */
(PID.TID 0000.0001)                 9.999999999999999E-21
(PID.TID 0000.0001)     ;
(PID.TID 0000.0001) GM_slopeSqCutoff = /* Slope^2 cut-off value */
(PID.TID 0000.0001)                 1.000000000000000E+08
(PID.TID 0000.0001)     ;
(PID.TID 0000.0001) GM_taper_scheme =  /* Type of Tapering/Clipping scheme */
(PID.TID 0000.0001)               'dm95                                    '
(PID.TID 0000.0001)     ;
(PID.TID 0000.0001) GM_maxSlope =  /* Maximum Slope (Tapering/Clipping) */
(PID.TID 0000.0001)                 1.000000000000000E-02
(PID.TID 0000.0001)     ;
(PID.TID 0000.0001) GM_facTrL2dz = /* Minimum Trans.Layer Thick. (factor of dz) */
(PID.TID 0000.0001)                 1.000000000000000E+00
(PID.TID 0000.0001)     ;
(PID.TID 0000.0001) GM_facTrL2ML = /* Max.Trans.Layer Thick. (factor of MxL Depth)*/
(PID.TID 0000.0001)                 5.000000000000000E+00
(PID.TID 0000.0001)     ;
(PID.TID 0000.0001) GM_maxTransLay = /* Maximum Transition Layer Thickness [m] */
(PID.TID 0000.0001)                 5.000000000000000E+02
(PID.TID 0000.0001)     ;
(PID.TID 0000.0001) GM_UseBVP = /* if TRUE => use bvp a la Ferrari et al. (2010) */
(PID.TID 0000.0001)                   F
(PID.TID 0000.0001)     ;
(PID.TID 0000.0001) GM_BVP_ModeNumber = /* Vertical mode number for BVP wave speed */
(PID.TID 0000.0001)                       1
(PID.TID 0000.0001)     ;
(PID.TID 0000.0001) GM_BVP_cMin = /* Minimum wave speed for BVP [m/s] */
(PID.TID 0000.0001)                 1.000000000000000E-01
(PID.TID 0000.0001)     ;
(PID.TID 0000.0001) GM_useSubMeso = /* if TRUE => use Sub-Meso param. (B.Fox-Kemper) */
(PID.TID 0000.0001)                   F
(PID.TID 0000.0001)     ;
(PID.TID 0000.0001) subMeso_Ceff = /* efficiency coeff. of Mixed-Layer Eddies [-] */
(PID.TID 0000.0001)                 7.000000000000001E-02
(PID.TID 0000.0001)     ;
(PID.TID 0000.0001) subMeso_invTau = /* inverse of Sub-Meso mixing time-scale [/s] */
(PID.TID 0000.0001)                 2.000000000000000E-06
(PID.TID 0000.0001)     ;
(PID.TID 0000.0001) subMeso_LfMin = /* minimum length-scale "Lf" [m] */
(PID.TID 0000.0001)                 1.000000000000000E+03
(PID.TID 0000.0001)     ;
(PID.TID 0000.0001) subMeso_Lmax = /* maximum grid-scale length [m] */
(PID.TID 0000.0001)                 1.100000000000000E+05
(PID.TID 0000.0001)     ;
(PID.TID 0000.0001) GM_useLeithQG = /* if TRUE => add QG Leith viscosity to GMRedi tensor */
(PID.TID 0000.0001)                   F
(PID.TID 0000.0001)     ;
(PID.TID 0000.0001) CTRL_CHECK:  --> Starts to check CTRL set-up
(PID.TID 0000.0001) CTRL_CHECK:  <-- Ends Normally
(PID.TID 0000.0001) 
(PID.TID 0000.0001) COST_CHECK: #define ALLOW_COST
(PID.TID 0000.0001) GRDCHK_CHECK: grdchk package
(PID.TID 0000.0001) GAD_CHECK: #define ALLOW_GENERIC_ADVDIFF
(PID.TID 0000.0001) // =======================================================
(PID.TID 0000.0001) // Check Model config. (CONFIG_CHECK):
(PID.TID 0000.0001) // CONFIG_CHECK : Normal End
(PID.TID 0000.0001) // =======================================================
(PID.TID 0000.0001) 
(PID.TID 0000.0001) Start initial hydrostatic pressure computation
(PID.TID 0000.0001) Pressure is predetermined for buoyancyRelation OCEANIC
(PID.TID 0000.0001) 
(PID.TID 0000.0001) // =======================================================
(PID.TID 0000.0001) // Begin MONITOR dynamic field statistics
(PID.TID 0000.0001) // =======================================================
(PID.TID 0000.0001) %MON time_tsnumber                =                     0
(PID.TID 0000.0001) %MON time_secondsf                =   0.0000000000000E+00
(PID.TID 0000.0001) %MON dynstat_eta_max              =   0.0000000000000E+00
(PID.TID 0000.0001) %MON dynstat_eta_min              =   0.0000000000000E+00
(PID.TID 0000.0001) %MON dynstat_eta_mean             =   0.0000000000000E+00
(PID.TID 0000.0001) %MON dynstat_eta_sd               =   0.0000000000000E+00
(PID.TID 0000.0001) %MON dynstat_eta_del2             =   0.0000000000000E+00
(PID.TID 0000.0001) %MON dynstat_uvel_max             =   0.0000000000000E+00
(PID.TID 0000.0001) %MON dynstat_uvel_min             =   0.0000000000000E+00
(PID.TID 0000.0001) %MON dynstat_uvel_mean            =   0.0000000000000E+00
(PID.TID 0000.0001) %MON dynstat_uvel_sd              =   0.0000000000000E+00
(PID.TID 0000.0001) %MON dynstat_uvel_del2            =   0.0000000000000E+00
(PID.TID 0000.0001) %MON dynstat_vvel_max             =   0.0000000000000E+00
(PID.TID 0000.0001) %MON dynstat_vvel_min             =   0.0000000000000E+00
(PID.TID 0000.0001) %MON dynstat_vvel_mean            =   0.0000000000000E+00
(PID.TID 0000.0001) %MON dynstat_vvel_sd              =   0.0000000000000E+00
(PID.TID 0000.0001) %MON dynstat_vvel_del2            =   0.0000000000000E+00
(PID.TID 0000.0001) %MON dynstat_wvel_max             =  -0.0000000000000E+00
(PID.TID 0000.0001) %MON dynstat_wvel_min             =  -0.0000000000000E+00
(PID.TID 0000.0001) %MON dynstat_wvel_mean            =   0.0000000000000E+00
(PID.TID 0000.0001) %MON dynstat_wvel_sd              =   0.0000000000000E+00
(PID.TID 0000.0001) %MON dynstat_wvel_del2            =   0.0000000000000E+00
(PID.TID 0000.0001) %MON dynstat_theta_max            =   2.9733388900757E+01
(PID.TID 0000.0001) %MON dynstat_theta_min            =  -1.9000000000000E+00
(PID.TID 0000.0001) %MON dynstat_theta_mean           =   3.6197074666132E+00
(PID.TID 0000.0001) %MON dynstat_theta_sd             =   4.4174614518570E+00
(PID.TID 0000.0001) %MON dynstat_theta_del2           =   5.6229722638211E-03
(PID.TID 0000.0001) %MON dynstat_salt_max             =   3.7475627899170E+01
(PID.TID 0000.0001) %MON dynstat_salt_min             =   2.9752769470215E+01
(PID.TID 0000.0001) %MON dynstat_salt_mean            =   3.4718006161478E+01
(PID.TID 0000.0001) %MON dynstat_salt_sd              =   2.9628819587991E-01
(PID.TID 0000.0001) %MON dynstat_salt_del2            =   1.0127003139695E-03
(PID.TID 0000.0001) %MON forcing_qnet_max             =   4.4161361694336E+02
(PID.TID 0000.0001) %MON forcing_qnet_min             =  -1.8132531738281E+02
(PID.TID 0000.0001) %MON forcing_qnet_mean            =  -1.6512526001044E+01
(PID.TID 0000.0001) %MON forcing_qnet_sd              =   1.0987288293460E+02
(PID.TID 0000.0001) %MON forcing_qnet_del2            =   1.0245701543512E+00
(PID.TID 0000.0001) %MON forcing_qsw_max              =   0.0000000000000E+00
(PID.TID 0000.0001) %MON forcing_qsw_min              =   0.0000000000000E+00
(PID.TID 0000.0001) %MON forcing_qsw_mean             =   0.0000000000000E+00
(PID.TID 0000.0001) %MON forcing_qsw_sd               =   0.0000000000000E+00
(PID.TID 0000.0001) %MON forcing_qsw_del2             =   0.0000000000000E+00
(PID.TID 0000.0001) %MON forcing_empmr_max            =   0.0000000000000E+00
(PID.TID 0000.0001) %MON forcing_empmr_min            =   0.0000000000000E+00
(PID.TID 0000.0001) %MON forcing_empmr_mean           =   0.0000000000000E+00
(PID.TID 0000.0001) %MON forcing_empmr_sd             =   0.0000000000000E+00
(PID.TID 0000.0001) %MON forcing_empmr_del2           =   0.0000000000000E+00
(PID.TID 0000.0001) %MON forcing_fu_max               =   2.7877888083458E-01
(PID.TID 0000.0001) %MON forcing_fu_min               =  -1.7088057100773E-01
(PID.TID 0000.0001) %MON forcing_fu_mean              =   1.6001735152566E-02
(PID.TID 0000.0001) %MON forcing_fu_sd                =   9.1062350670783E-02
(PID.TID 0000.0001) %MON forcing_fu_del2              =   7.2483493833855E-04
(PID.TID 0000.0001) %MON forcing_fv_max               =   2.3312132060528E-01
(PID.TID 0000.0001) %MON forcing_fv_min               =  -1.7813690006733E-01
(PID.TID 0000.0001) %MON forcing_fv_mean              =  -5.2588977395051E-03
(PID.TID 0000.0001) %MON forcing_fv_sd                =   4.8248606070107E-02
(PID.TID 0000.0001) %MON forcing_fv_del2              =   4.9948324922575E-04
(PID.TID 0000.0001) %MON trAdv_CFL_u_max              =   0.0000000000000E+00
(PID.TID 0000.0001) %MON trAdv_CFL_v_max              =   0.0000000000000E+00
(PID.TID 0000.0001) %MON trAdv_CFL_w_max              =   0.0000000000000E+00
(PID.TID 0000.0001) %MON advcfl_uvel_max              =   0.0000000000000E+00
(PID.TID 0000.0001) %MON advcfl_vvel_max              =   0.0000000000000E+00
(PID.TID 0000.0001) %MON advcfl_wvel_max              =   0.0000000000000E+00
(PID.TID 0000.0001) %MON advcfl_W_hf_max              =   0.0000000000000E+00
(PID.TID 0000.0001) %MON pe_b_mean                    =   0.0000000000000E+00
(PID.TID 0000.0001) %MON ke_max                       =   0.0000000000000E+00
(PID.TID 0000.0001) %MON ke_mean                      =   0.0000000000000E+00
(PID.TID 0000.0001) %MON ke_vol                       =   1.3226782436722E+18
(PID.TID 0000.0001) %MON vort_r_min                   =   0.0000000000000E+00
(PID.TID 0000.0001) %MON vort_r_max                   =   0.0000000000000E+00
(PID.TID 0000.0001) %MON vort_a_mean                  =  -2.5274807396950E-05
(PID.TID 0000.0001) %MON vort_a_sd                    =   7.3604350271442E-05
(PID.TID 0000.0001) %MON vort_p_mean                  =  -3.1845655798840E-05
(PID.TID 0000.0001) %MON vort_p_sd                    =   1.3162570071704E-04
(PID.TID 0000.0001) %MON surfExpan_theta_mean         =   0.0000000000000E+00
(PID.TID 0000.0001) %MON surfExpan_salt_mean          =   0.0000000000000E+00
(PID.TID 0000.0001) // =======================================================
(PID.TID 0000.0001) // End MONITOR dynamic field statistics
(PID.TID 0000.0001) // =======================================================
 EXTERNAL_FIELDS_LOAD, it=         0 : Reading new data, i0,i1=   12    1 (prev=   12    0 )
(PID.TID 0000.0001) SOLVE_FOR_PRESSURE: putPmEinXvector =    F
 cg2d: Sum(rhs),rhsMax =   1.33226762955019E-15  2.53681867617526E+00
 Calling CG2D_STORE with doStore = T
 Calling CG2D_STORE with ikey_dynamics =    1
(PID.TID 0000.0001)      cg2d_init_res =   6.19004776436843E+00
(PID.TID 0000.0001)      cg2d_iters(min,last) =      -1      26
(PID.TID 0000.0001)      cg2d_last_res =   4.93003434666719E-14
(PID.TID 0000.0001) // =======================================================
(PID.TID 0000.0001) // Begin MONITOR dynamic field statistics
(PID.TID 0000.0001) // =======================================================
(PID.TID 0000.0001) %MON time_tsnumber                =                     1
(PID.TID 0000.0001) %MON time_secondsf                =   4.3200000000000E+04
(PID.TID 0000.0001) %MON dynstat_eta_max              =   1.7835501510432E-01
(PID.TID 0000.0001) %MON dynstat_eta_min              =  -1.1527725642340E-01
(PID.TID 0000.0001) %MON dynstat_eta_mean             =  -1.0736737945540E-18
(PID.TID 0000.0001) %MON dynstat_eta_sd               =   2.6147195551812E-02
(PID.TID 0000.0001) %MON dynstat_eta_del2             =   1.1687983755966E-03
(PID.TID 0000.0001) %MON dynstat_uvel_max             =   8.2594970479946E-03
(PID.TID 0000.0001) %MON dynstat_uvel_min             =  -8.7901417818620E-03
(PID.TID 0000.0001) %MON dynstat_uvel_mean            =  -3.6003437861003E-04
(PID.TID 0000.0001) %MON dynstat_uvel_sd              =   1.2236078778406E-03
(PID.TID 0000.0001) %MON dynstat_uvel_del2            =   1.1644314026670E-05
(PID.TID 0000.0001) %MON dynstat_vvel_max             =   1.8420456850262E-02
(PID.TID 0000.0001) %MON dynstat_vvel_min             =  -1.1236797715423E-02
(PID.TID 0000.0001) %MON dynstat_vvel_mean            =   9.0347115559653E-04
(PID.TID 0000.0001) %MON dynstat_vvel_sd              =   3.3986207714626E-03
(PID.TID 0000.0001) %MON dynstat_vvel_del2            =   1.5509378592299E-05
(PID.TID 0000.0001) %MON dynstat_wvel_max             =   1.5968055615738E-04
(PID.TID 0000.0001) %MON dynstat_wvel_min             =  -1.0325436991384E-04
(PID.TID 0000.0001) %MON dynstat_wvel_mean            =   3.2643828647473E-22
(PID.TID 0000.0001) %MON dynstat_wvel_sd              =   1.6737776475799E-05
(PID.TID 0000.0001) %MON dynstat_wvel_del2            =   2.5270568681909E-07
(PID.TID 0000.0001) %MON dynstat_theta_max            =   2.9699273516110E+01
(PID.TID 0000.0001) %MON dynstat_theta_min            =  -1.9050542098560E+00
(PID.TID 0000.0001) %MON dynstat_theta_mean           =   3.6192179827046E+00
(PID.TID 0000.0001) %MON dynstat_theta_sd             =   4.4161305638953E+00
(PID.TID 0000.0001) %MON dynstat_theta_del2           =   5.5412594073541E-03
(PID.TID 0000.0001) %MON dynstat_salt_max             =   3.7470364138591E+01
(PID.TID 0000.0001) %MON dynstat_salt_min             =   2.9754504310352E+01
(PID.TID 0000.0001) %MON dynstat_salt_mean            =   3.4717966813767E+01
(PID.TID 0000.0001) %MON dynstat_salt_sd              =   2.9617242746708E-01
(PID.TID 0000.0001) %MON dynstat_salt_del2            =   1.0135784299347E-03
(PID.TID 0000.0001) %MON forcing_qnet_max             =   4.2589080810547E+02
(PID.TID 0000.0001) %MON forcing_qnet_min             =  -1.8702698516846E+02
(PID.TID 0000.0001) %MON forcing_qnet_mean            =  -1.6700205338390E+01
(PID.TID 0000.0001) %MON forcing_qnet_sd              =   1.1285666794876E+02
(PID.TID 0000.0001) %MON forcing_qnet_del2            =   9.9079877721394E-01
(PID.TID 0000.0001) %MON forcing_qsw_max              =   0.0000000000000E+00
(PID.TID 0000.0001) %MON forcing_qsw_min              =   0.0000000000000E+00
(PID.TID 0000.0001) %MON forcing_qsw_mean             =   0.0000000000000E+00
(PID.TID 0000.0001) %MON forcing_qsw_sd               =   0.0000000000000E+00
(PID.TID 0000.0001) %MON forcing_qsw_del2             =   0.0000000000000E+00
(PID.TID 0000.0001) %MON forcing_empmr_max            =   0.0000000000000E+00
(PID.TID 0000.0001) %MON forcing_empmr_min            =   0.0000000000000E+00
(PID.TID 0000.0001) %MON forcing_empmr_mean           =   0.0000000000000E+00
(PID.TID 0000.0001) %MON forcing_empmr_sd             =   0.0000000000000E+00
(PID.TID 0000.0001) %MON forcing_empmr_del2           =   0.0000000000000E+00
(PID.TID 0000.0001) %MON forcing_fu_max               =   2.7488999068737E-01
(PID.TID 0000.0001) %MON forcing_fu_min               =  -1.6014087945223E-01
(PID.TID 0000.0001) %MON forcing_fu_mean              =   1.6117127468124E-02
(PID.TID 0000.0001) %MON forcing_fu_sd                =   9.0153154829689E-02
(PID.TID 0000.0001) %MON forcing_fu_del2              =   6.5365667764058E-04
(PID.TID 0000.0001) %MON forcing_fv_max               =   2.0835298299789E-01
(PID.TID 0000.0001) %MON forcing_fv_min               =  -1.8690676242113E-01
(PID.TID 0000.0001) %MON forcing_fv_mean              =  -6.3653356424171E-03
(PID.TID 0000.0001) %MON forcing_fv_sd                =   4.5157892194461E-02
(PID.TID 0000.0001) %MON forcing_fv_del2              =   4.4595114894327E-04
(PID.TID 0000.0001) %MON trAdv_CFL_u_max              =   1.6473995611769E-02
(PID.TID 0000.0001) %MON trAdv_CFL_v_max              =   6.7299768296355E-03
(PID.TID 0000.0001) %MON trAdv_CFL_w_max              =   1.2841561087511E-01
(PID.TID 0000.0001) %MON advcfl_uvel_max              =   2.7952902304027E-03
(PID.TID 0000.0001) %MON advcfl_vvel_max              =   1.7893996686981E-03
(PID.TID 0000.0001) %MON advcfl_wvel_max              =   2.5683122175023E-01
(PID.TID 0000.0001) %MON advcfl_W_hf_max              =   1.3027453583942E-01
(PID.TID 0000.0001) %MON pe_b_mean                    =   8.7484563655387E-07
(PID.TID 0000.0001) %MON ke_max                       =   1.1989976505691E-04
(PID.TID 0000.0001) %MON ke_mean                      =   6.2911345720361E-06
(PID.TID 0000.0001) %MON ke_vol                       =   1.3226782436722E+18
(PID.TID 0000.0001) %MON vort_r_min                   =  -5.9378942106145E-08
(PID.TID 0000.0001) %MON vort_r_max                   =   6.6688456970462E-08
(PID.TID 0000.0001) %MON vort_a_mean                  =  -2.5274807035010E-05
(PID.TID 0000.0001) %MON vort_a_sd                    =   7.3604272454006E-05
(PID.TID 0000.0001) %MON vort_p_mean                  =  -3.1845655342804E-05
(PID.TID 0000.0001) %MON vort_p_sd                    =   1.3162561594329E-04
(PID.TID 0000.0001) %MON surfExpan_theta_mean         =   4.5818950441065E-05
(PID.TID 0000.0001) %MON surfExpan_salt_mean          =   3.5023643642046E-06
(PID.TID 0000.0001) // =======================================================
(PID.TID 0000.0001) // End MONITOR dynamic field statistics
(PID.TID 0000.0001) // =======================================================
 cg2d: Sum(rhs),rhsMax =   9.76996261670138E-15  4.94468860746549E+00
 Calling CG2D_STORE with doStore = T
 Calling CG2D_STORE with ikey_dynamics =    2
(PID.TID 0000.0001)      cg2d_init_res =   3.35156912126038E+00
(PID.TID 0000.0001)      cg2d_iters(min,last) =      -1      26
(PID.TID 0000.0001)      cg2d_last_res =   3.26388584617911E-14
(PID.TID 0000.0001) // =======================================================
(PID.TID 0000.0001) // Begin MONITOR dynamic field statistics
(PID.TID 0000.0001) // =======================================================
(PID.TID 0000.0001) %MON time_tsnumber                =                     2
(PID.TID 0000.0001) %MON time_secondsf                =   8.6400000000000E+04
(PID.TID 0000.0001) %MON dynstat_eta_max              =   3.7228329456105E-01
(PID.TID 0000.0001) %MON dynstat_eta_min              =  -2.5296526716386E-01
(PID.TID 0000.0001) %MON dynstat_eta_mean             =   4.5564805515173E-18
(PID.TID 0000.0001) %MON dynstat_eta_sd               =   5.9739393538329E-02
(PID.TID 0000.0001) %MON dynstat_eta_del2             =   2.2543793785614E-03
(PID.TID 0000.0001) %MON dynstat_uvel_max             =   1.8925269605388E-02
(PID.TID 0000.0001) %MON dynstat_uvel_min             =  -1.7111191601090E-02
(PID.TID 0000.0001) %MON dynstat_uvel_mean            =  -8.9154316818453E-04
(PID.TID 0000.0001) %MON dynstat_uvel_sd              =   2.1240116402385E-03
(PID.TID 0000.0001) %MON dynstat_uvel_del2            =   2.3331389566024E-05
(PID.TID 0000.0001) %MON dynstat_vvel_max             =   3.3641195202861E-02
(PID.TID 0000.0001) %MON dynstat_vvel_min             =  -1.8056085134207E-02
(PID.TID 0000.0001) %MON dynstat_vvel_mean            =   1.7545820131551E-03
(PID.TID 0000.0001) %MON dynstat_vvel_sd              =   6.1931139781555E-03
(PID.TID 0000.0001) %MON dynstat_vvel_del2            =   2.8845091677147E-05
(PID.TID 0000.0001) %MON dynstat_wvel_max             =   2.0459760182478E-04
(PID.TID 0000.0001) %MON dynstat_wvel_min             =  -1.4618423020835E-04
(PID.TID 0000.0001) %MON dynstat_wvel_mean            =  -8.8077783871765E-22
(PID.TID 0000.0001) %MON dynstat_wvel_sd              =   2.3949328111882E-05
(PID.TID 0000.0001) %MON dynstat_wvel_del2            =   2.8660134908243E-07
(PID.TID 0000.0001) %MON dynstat_theta_max            =   2.9665842881123E+01
(PID.TID 0000.0001) %MON dynstat_theta_min            =  -1.9059472148339E+00
(PID.TID 0000.0001) %MON dynstat_theta_mean           =   3.6183247767787E+00
(PID.TID 0000.0001) %MON dynstat_theta_sd             =   4.4141509279932E+00
(PID.TID 0000.0001) %MON dynstat_theta_del2           =   5.4704635587997E-03
(PID.TID 0000.0001) %MON dynstat_salt_max             =   3.7464956801130E+01
(PID.TID 0000.0001) %MON dynstat_salt_min             =   2.9756799082518E+01
(PID.TID 0000.0001) %MON dynstat_salt_mean            =   3.4717893337439E+01
(PID.TID 0000.0001) %MON dynstat_salt_sd              =   2.9611691531803E-01
(PID.TID 0000.0001) %MON dynstat_salt_del2            =   1.0185360169757E-03
(PID.TID 0000.0001) %MON forcing_qnet_max             =   4.2641490173340E+02
(PID.TID 0000.0001) %MON forcing_qnet_min             =  -1.8679340387980E+02
(PID.TID 0000.0001) %MON forcing_qnet_mean            =  -1.6693949360478E+01
(PID.TID 0000.0001) %MON forcing_qnet_sd              =   1.1274774925900E+02
(PID.TID 0000.0001) %MON forcing_qnet_del2            =   9.9129556347980E-01
(PID.TID 0000.0001) %MON forcing_qsw_max              =   0.0000000000000E+00
(PID.TID 0000.0001) %MON forcing_qsw_min              =   0.0000000000000E+00
(PID.TID 0000.0001) %MON forcing_qsw_mean             =   0.0000000000000E+00
(PID.TID 0000.0001) %MON forcing_qsw_sd               =   0.0000000000000E+00
(PID.TID 0000.0001) %MON forcing_qsw_del2             =   0.0000000000000E+00
(PID.TID 0000.0001) %MON forcing_empmr_max            =   0.0000000000000E+00
(PID.TID 0000.0001) %MON forcing_empmr_min            =   0.0000000000000E+00
(PID.TID 0000.0001) %MON forcing_empmr_mean           =   0.0000000000000E+00
(PID.TID 0000.0001) %MON forcing_empmr_sd             =   0.0000000000000E+00
(PID.TID 0000.0001) %MON forcing_empmr_del2           =   0.0000000000000E+00
(PID.TID 0000.0001) %MON forcing_fu_max               =   2.7446071654558E-01
(PID.TID 0000.0001) %MON forcing_fu_min               =  -1.5920810426275E-01
(PID.TID 0000.0001) %MON forcing_fu_mean              =   1.6113281057605E-02
(PID.TID 0000.0001) %MON forcing_fu_sd                =   9.0144235663722E-02
(PID.TID 0000.0001) %MON forcing_fu_del2              =   6.5420219060852E-04
(PID.TID 0000.0001) %MON forcing_fv_max               =   2.0858977933725E-01
(PID.TID 0000.0001) %MON forcing_fv_min               =  -1.8661443367600E-01
(PID.TID 0000.0001) %MON forcing_fv_mean              =  -6.3284543789867E-03
(PID.TID 0000.0001) %MON forcing_fv_sd                =   4.5207594835594E-02
(PID.TID 0000.0001) %MON forcing_fv_del2              =   4.4584970315419E-04
(PID.TID 0000.0001) %MON trAdv_CFL_u_max              =   1.2462691494402E-02
(PID.TID 0000.0001) %MON trAdv_CFL_v_max              =   8.2830447091977E-03
(PID.TID 0000.0001) %MON trAdv_CFL_w_max              =   1.3913206318423E-01
(PID.TID 0000.0001) %MON advcfl_uvel_max              =   5.5354354991435E-03
(PID.TID 0000.0001) %MON advcfl_vvel_max              =   3.2679723440058E-03
(PID.TID 0000.0001) %MON advcfl_wvel_max              =   2.7925672241768E-01
(PID.TID 0000.0001) %MON advcfl_W_hf_max              =   1.4447299673869E-01
(PID.TID 0000.0001) %MON pe_b_mean                    =   4.5667035390299E-06
(PID.TID 0000.0001) %MON ke_max                       =   3.9858159305779E-04
(PID.TID 0000.0001) %MON ke_mean                      =   2.1011846298270E-05
(PID.TID 0000.0001) %MON ke_vol                       =   1.3226782436722E+18
(PID.TID 0000.0001) %MON vort_r_min                   =  -1.0640989905139E-07
(PID.TID 0000.0001) %MON vort_r_max                   =   1.2967734828803E-07
(PID.TID 0000.0001) %MON vort_a_mean                  =  -2.5274806938110E-05
(PID.TID 0000.0001) %MON vort_a_sd                    =   7.3604163261062E-05
(PID.TID 0000.0001) %MON vort_p_mean                  =  -3.1845737396719E-05
(PID.TID 0000.0001) %MON vort_p_sd                    =   1.3162570733384E-04
(PID.TID 0000.0001) %MON surfExpan_theta_mean         =   8.2599349776639E-05
(PID.TID 0000.0001) %MON surfExpan_salt_mean          =   6.6452813835337E-06
(PID.TID 0000.0001) // =======================================================
(PID.TID 0000.0001) // End MONITOR dynamic field statistics
(PID.TID 0000.0001) // =======================================================
 cg2d: Sum(rhs),rhsMax =  -2.44249065417534E-15  6.31447821913423E+00
 Calling CG2D_STORE with doStore = T
 Calling CG2D_STORE with ikey_dynamics =    3
(PID.TID 0000.0001)      cg2d_init_res =   2.19890228719910E+00
(PID.TID 0000.0001)      cg2d_iters(min,last) =      -1      26
(PID.TID 0000.0001)      cg2d_last_res =   2.86196910870541E-14
(PID.TID 0000.0001) // =======================================================
(PID.TID 0000.0001) // Begin MONITOR dynamic field statistics
(PID.TID 0000.0001) // =======================================================
(PID.TID 0000.0001) %MON time_tsnumber                =                     3
(PID.TID 0000.0001) %MON time_secondsf                =   1.2960000000000E+05
(PID.TID 0000.0001) %MON dynstat_eta_max              =   5.1165236484596E-01
(PID.TID 0000.0001) %MON dynstat_eta_min              =  -3.7856509249073E-01
(PID.TID 0000.0001) %MON dynstat_eta_mean             =   1.0188403717678E-18
(PID.TID 0000.0001) %MON dynstat_eta_sd               =   9.2419287004261E-02
(PID.TID 0000.0001) %MON dynstat_eta_del2             =   2.8439707540617E-03
(PID.TID 0000.0001) %MON dynstat_uvel_max             =   3.0877643856063E-02
(PID.TID 0000.0001) %MON dynstat_uvel_min             =  -3.0162667610167E-02
(PID.TID 0000.0001) %MON dynstat_uvel_mean            =  -1.5662050123283E-03
(PID.TID 0000.0001) %MON dynstat_uvel_sd              =   3.0400894988902E-03
(PID.TID 0000.0001) %MON dynstat_uvel_del2            =   3.6541513181070E-05
(PID.TID 0000.0001) %MON dynstat_vvel_max             =   4.4955221816140E-02
(PID.TID 0000.0001) %MON dynstat_vvel_min             =  -2.4366653186901E-02
(PID.TID 0000.0001) %MON dynstat_vvel_mean            =   2.5319505015307E-03
(PID.TID 0000.0001) %MON dynstat_vvel_sd              =   8.4981797287233E-03
(PID.TID 0000.0001) %MON dynstat_vvel_del2            =   4.4605888214755E-05
(PID.TID 0000.0001) %MON dynstat_wvel_max             =   2.0173048972754E-04
(PID.TID 0000.0001) %MON dynstat_wvel_min             =  -1.6849657333618E-04
(PID.TID 0000.0001) %MON dynstat_wvel_mean            =  -7.2810968000659E-22
(PID.TID 0000.0001) %MON dynstat_wvel_sd              =   2.6878199389705E-05
(PID.TID 0000.0001) %MON dynstat_wvel_del2            =   2.6289678238517E-07
(PID.TID 0000.0001) %MON dynstat_theta_max            =   2.9652825368855E+01
(PID.TID 0000.0001) %MON dynstat_theta_min            =  -1.9142443539608E+00
(PID.TID 0000.0001) %MON dynstat_theta_mean           =   3.6171204502136E+00
(PID.TID 0000.0001) %MON dynstat_theta_sd             =   4.4116223761512E+00
(PID.TID 0000.0001) %MON dynstat_theta_del2           =   5.4056542467569E-03
(PID.TID 0000.0001) %MON dynstat_salt_max             =   3.7460139279249E+01
(PID.TID 0000.0001) %MON dynstat_salt_min             =   2.9759537673345E+01
(PID.TID 0000.0001) %MON dynstat_salt_mean            =   3.4717792078041E+01
(PID.TID 0000.0001) %MON dynstat_salt_sd              =   2.9612882764000E-01
(PID.TID 0000.0001) %MON dynstat_salt_del2            =   1.0170048849342E-03
(PID.TID 0000.0001) %MON forcing_qnet_max             =   4.2693899536133E+02
(PID.TID 0000.0001) %MON forcing_qnet_min             =  -1.8655982259115E+02
(PID.TID 0000.0001) %MON forcing_qnet_mean            =  -1.6687693382567E+01
(PID.TID 0000.0001) %MON forcing_qnet_sd              =   1.1263946608433E+02
(PID.TID 0000.0001) %MON forcing_qnet_del2            =   9.9183674388333E-01
(PID.TID 0000.0001) %MON forcing_qsw_max              =   0.0000000000000E+00
(PID.TID 0000.0001) %MON forcing_qsw_min              =   0.0000000000000E+00
(PID.TID 0000.0001) %MON forcing_qsw_mean             =   0.0000000000000E+00
(PID.TID 0000.0001) %MON forcing_qsw_sd               =   0.0000000000000E+00
(PID.TID 0000.0001) %MON forcing_qsw_del2             =   0.0000000000000E+00
(PID.TID 0000.0001) %MON forcing_empmr_max            =   0.0000000000000E+00
(PID.TID 0000.0001) %MON forcing_empmr_min            =   0.0000000000000E+00
(PID.TID 0000.0001) %MON forcing_empmr_mean           =   0.0000000000000E+00
(PID.TID 0000.0001) %MON forcing_empmr_sd             =   0.0000000000000E+00
(PID.TID 0000.0001) %MON forcing_empmr_del2           =   0.0000000000000E+00
(PID.TID 0000.0001) %MON forcing_fu_max               =   2.7403144240379E-01
(PID.TID 0000.0001) %MON forcing_fu_min               =  -1.5949268937111E-01
(PID.TID 0000.0001) %MON forcing_fu_mean              =   1.6109434647086E-02
(PID.TID 0000.0001) %MON forcing_fu_sd                =   9.0138031840955E-02
(PID.TID 0000.0001) %MON forcing_fu_del2              =   6.5488191036968E-04
(PID.TID 0000.0001) %MON forcing_fv_max               =   2.0882657567660E-01
(PID.TID 0000.0001) %MON forcing_fv_min               =  -1.8632210493088E-01
(PID.TID 0000.0001) %MON forcing_fv_mean              =  -6.2915731155563E-03
(PID.TID 0000.0001) %MON forcing_fv_sd                =   4.5261152700224E-02
(PID.TID 0000.0001) %MON forcing_fv_del2              =   4.4588571962377E-04
(PID.TID 0000.0001) %MON trAdv_CFL_u_max              =   1.8572377988428E-02
(PID.TID 0000.0001) %MON trAdv_CFL_v_max              =   9.4373637850502E-03
(PID.TID 0000.0001) %MON trAdv_CFL_w_max              =   1.0709610618812E-01
(PID.TID 0000.0001) %MON advcfl_uvel_max              =   6.8910834233748E-03
(PID.TID 0000.0001) %MON advcfl_vvel_max              =   4.3670393019001E-03
(PID.TID 0000.0001) %MON advcfl_wvel_max              =   2.0775206334318E-01
(PID.TID 0000.0001) %MON advcfl_W_hf_max              =   1.0906252632393E-01
(PID.TID 0000.0001) %MON pe_b_mean                    =   1.0929654349011E-05
(PID.TID 0000.0001) %MON ke_max                       =   7.8611735094216E-04
(PID.TID 0000.0001) %MON ke_mean                      =   4.0613408067361E-05
(PID.TID 0000.0001) %MON ke_vol                       =   1.3226782436722E+18
(PID.TID 0000.0001) %MON vort_r_min                   =  -1.5898912181075E-07
(PID.TID 0000.0001) %MON vort_r_max                   =   1.8840403768853E-07
(PID.TID 0000.0001) %MON vort_a_mean                  =  -2.5274806929063E-05
(PID.TID 0000.0001) %MON vort_a_sd                    =   7.3604029493782E-05
(PID.TID 0000.0001) %MON vort_p_mean                  =  -3.1845820910373E-05
(PID.TID 0000.0001) %MON vort_p_sd                    =   1.3162574485182E-04
(PID.TID 0000.0001) %MON surfExpan_theta_mean         =   1.1122114035801E-04
(PID.TID 0000.0001) %MON surfExpan_salt_mean          =   9.2011755740042E-06
(PID.TID 0000.0001) // =======================================================
(PID.TID 0000.0001) // End MONITOR dynamic field statistics
(PID.TID 0000.0001) // =======================================================
 EXTERNAL_FIELDS_LOAD, it=         3 : Reading new data, i0,i1=   12    1 (prev=   12    0 )
 cg2d: Sum(rhs),rhsMax =  -5.32907051820075E-15  6.83789717252028E+00
 Calling CG2D_STORE with doStore = T
 Calling CG2D_STORE with ikey_dynamics =    1
(PID.TID 0000.0001)      cg2d_init_res =   1.83718348086974E+00
(PID.TID 0000.0001)      cg2d_iters(min,last) =      -1      26
(PID.TID 0000.0001)      cg2d_last_res =   2.62647521501530E-14
(PID.TID 0000.0001) // =======================================================
(PID.TID 0000.0001) // Begin MONITOR dynamic field statistics
(PID.TID 0000.0001) // =======================================================
(PID.TID 0000.0001) %MON time_tsnumber                =                     4
(PID.TID 0000.0001) %MON time_secondsf                =   1.7280000000000E+05
(PID.TID 0000.0001) %MON dynstat_eta_max              =   5.9332663883853E-01
(PID.TID 0000.0001) %MON dynstat_eta_min              =  -4.9422513050372E-01
(PID.TID 0000.0001) %MON dynstat_eta_mean             =   3.3961345725595E-18
(PID.TID 0000.0001) %MON dynstat_eta_sd               =   1.2256705608066E-01
(PID.TID 0000.0001) %MON dynstat_eta_del2             =   3.0049283865333E-03
(PID.TID 0000.0001) %MON dynstat_uvel_max             =   4.3218635656321E-02
(PID.TID 0000.0001) %MON dynstat_uvel_min             =  -4.2931606132344E-02
(PID.TID 0000.0001) %MON dynstat_uvel_mean            =  -2.3544658652652E-03
(PID.TID 0000.0001) %MON dynstat_uvel_sd              =   4.0857252928503E-03
(PID.TID 0000.0001) %MON dynstat_uvel_del2            =   4.9169859210911E-05
(PID.TID 0000.0001) %MON dynstat_vvel_max             =   5.2834140210081E-02
(PID.TID 0000.0001) %MON dynstat_vvel_min             =  -3.5941821088414E-02
(PID.TID 0000.0001) %MON dynstat_vvel_mean            =   3.2177574690009E-03
(PID.TID 0000.0001) %MON dynstat_vvel_sd              =   1.0404540880021E-02
(PID.TID 0000.0001) %MON dynstat_vvel_del2            =   6.1049124161442E-05
(PID.TID 0000.0001) %MON dynstat_wvel_max             =   2.0611595031814E-04
(PID.TID 0000.0001) %MON dynstat_wvel_min             =  -2.0405407026144E-04
(PID.TID 0000.0001) %MON dynstat_wvel_mean            =   0.0000000000000E+00
(PID.TID 0000.0001) %MON dynstat_wvel_sd              =   2.8664166917143E-05
(PID.TID 0000.0001) %MON dynstat_wvel_del2            =   2.6349822849638E-07
(PID.TID 0000.0001) %MON dynstat_theta_max            =   2.9661703738628E+01
(PID.TID 0000.0001) %MON dynstat_theta_min            =  -1.9287025271557E+00
(PID.TID 0000.0001) %MON dynstat_theta_mean           =   3.6156823686471E+00
(PID.TID 0000.0001) %MON dynstat_theta_sd             =   4.4086134479451E+00
(PID.TID 0000.0001) %MON dynstat_theta_del2           =   5.3651609348647E-03
(PID.TID 0000.0001) %MON dynstat_salt_max             =   3.7455575115701E+01
(PID.TID 0000.0001) %MON dynstat_salt_min             =   2.9762586539312E+01
(PID.TID 0000.0001) %MON dynstat_salt_mean            =   3.4717670261252E+01
(PID.TID 0000.0001) %MON dynstat_salt_sd              =   2.9613204239255E-01
(PID.TID 0000.0001) %MON dynstat_salt_del2            =   1.0137682499337E-03
(PID.TID 0000.0001) %MON forcing_qnet_max             =   4.2746308898926E+02
(PID.TID 0000.0001) %MON forcing_qnet_min             =  -1.8632624130249E+02
(PID.TID 0000.0001) %MON forcing_qnet_mean            =  -1.6681437404655E+01
(PID.TID 0000.0001) %MON forcing_qnet_sd              =   1.1253182025933E+02
(PID.TID 0000.0001) %MON forcing_qnet_del2            =   9.9242224579849E-01
(PID.TID 0000.0001) %MON forcing_qsw_max              =   0.0000000000000E+00
(PID.TID 0000.0001) %MON forcing_qsw_min              =   0.0000000000000E+00
(PID.TID 0000.0001) %MON forcing_qsw_mean             =   0.0000000000000E+00
(PID.TID 0000.0001) %MON forcing_qsw_sd               =   0.0000000000000E+00
(PID.TID 0000.0001) %MON forcing_qsw_del2             =   0.0000000000000E+00
(PID.TID 0000.0001) %MON forcing_empmr_max            =   0.0000000000000E+00
(PID.TID 0000.0001) %MON forcing_empmr_min            =   0.0000000000000E+00
(PID.TID 0000.0001) %MON forcing_empmr_mean           =   0.0000000000000E+00
(PID.TID 0000.0001) %MON forcing_empmr_sd             =   0.0000000000000E+00
(PID.TID 0000.0001) %MON forcing_empmr_del2           =   0.0000000000000E+00
(PID.TID 0000.0001) %MON forcing_fu_max               =   2.7360216826200E-01
(PID.TID 0000.0001) %MON forcing_fu_min               =  -1.5989939942956E-01
(PID.TID 0000.0001) %MON forcing_fu_mean              =   1.6105588236568E-02
(PID.TID 0000.0001) %MON forcing_fu_sd                =   9.0134543922067E-02
(PID.TID 0000.0001) %MON forcing_fu_del2              =   6.5569541955203E-04
(PID.TID 0000.0001) %MON forcing_fv_max               =   2.0906337201595E-01
(PID.TID 0000.0001) %MON forcing_fv_min               =  -1.8602977618575E-01
(PID.TID 0000.0001) %MON forcing_fv_mean              =  -6.2546918521259E-03
(PID.TID 0000.0001) %MON forcing_fv_sd                =   4.5318552119942E-02
(PID.TID 0000.0001) %MON forcing_fv_del2              =   4.4605916505437E-04
(PID.TID 0000.0001) %MON trAdv_CFL_u_max              =   2.0397158980898E-02
(PID.TID 0000.0001) %MON trAdv_CFL_v_max              =   1.0213669991432E-02
(PID.TID 0000.0001) %MON trAdv_CFL_w_max              =   1.1728381950768E-01
(PID.TID 0000.0001) %MON advcfl_uvel_max              =   9.2496191323525E-03
(PID.TID 0000.0001) %MON advcfl_vvel_max              =   5.1324130425420E-03
(PID.TID 0000.0001) %MON advcfl_wvel_max              =   2.3553886266340E-01
(PID.TID 0000.0001) %MON advcfl_W_hf_max              =   1.1748350785893E-01
(PID.TID 0000.0001) %MON pe_b_mean                    =   1.9223333927360E-05
(PID.TID 0000.0001) %MON ke_max                       =   1.2256915734158E-03
(PID.TID 0000.0001) %MON ke_mean                      =   6.3350448812889E-05
(PID.TID 0000.0001) %MON ke_vol                       =   1.3226782436722E+18
(PID.TID 0000.0001) %MON vort_r_min                   =  -2.0930028611245E-07
(PID.TID 0000.0001) %MON vort_r_max                   =   2.4142126730626E-07
(PID.TID 0000.0001) %MON vort_a_mean                  =  -2.5274806919595E-05
(PID.TID 0000.0001) %MON vort_a_sd                    =   7.3603877073066E-05
(PID.TID 0000.0001) %MON vort_p_mean                  =  -3.1845876003472E-05
(PID.TID 0000.0001) %MON vort_p_sd                    =   1.3162564638644E-04
(PID.TID 0000.0001) %MON surfExpan_theta_mean         =   1.3281502993063E-04
(PID.TID 0000.0001) %MON surfExpan_salt_mean          =   1.1096478526734E-05
(PID.TID 0000.0001) // =======================================================
(PID.TID 0000.0001) // End MONITOR dynamic field statistics
(PID.TID 0000.0001) // =======================================================
 cg2d: Sum(rhs),rhsMax =  -4.08562073062058E-14  6.94384100142540E+00
 Calling CG2D_STORE with doStore = T
 Calling CG2D_STORE with ikey_dynamics =    2
(PID.TID 0000.0001)      cg2d_init_res =   1.75558590049548E+00
(PID.TID 0000.0001)      cg2d_iters(min,last) =      -1      26
(PID.TID 0000.0001)      cg2d_last_res =   2.58759978922822E-14
(PID.TID 0000.0001) // =======================================================
(PID.TID 0000.0001) // Begin MONITOR dynamic field statistics
(PID.TID 0000.0001) // =======================================================
(PID.TID 0000.0001) %MON time_tsnumber                =                     5
(PID.TID 0000.0001) %MON time_secondsf                =   2.1600000000000E+05
(PID.TID 0000.0001) %MON dynstat_eta_max              =   6.3655158589820E-01
(PID.TID 0000.0001) %MON dynstat_eta_min              =  -5.7239478454506E-01
(PID.TID 0000.0001) %MON dynstat_eta_mean             =  -8.6035409171507E-18
(PID.TID 0000.0001) %MON dynstat_eta_sd               =   1.5081228160997E-01
(PID.TID 0000.0001) %MON dynstat_eta_del2             =   2.9331517025219E-03
(PID.TID 0000.0001) %MON dynstat_uvel_max             =   5.5402325246736E-02
(PID.TID 0000.0001) %MON dynstat_uvel_min             =  -5.3962875625365E-02
(PID.TID 0000.0001) %MON dynstat_uvel_mean            =  -3.2258753002099E-03
(PID.TID 0000.0001) %MON dynstat_uvel_sd              =   5.2437923966823E-03
(PID.TID 0000.0001) %MON dynstat_uvel_del2            =   6.0248476366057E-05
(PID.TID 0000.0001) %MON dynstat_vvel_max             =   5.8361077665074E-02
(PID.TID 0000.0001) %MON dynstat_vvel_min             =  -4.6928730950544E-02
(PID.TID 0000.0001) %MON dynstat_vvel_mean            =   3.7976211107966E-03
(PID.TID 0000.0001) %MON dynstat_vvel_sd              =   1.1952445654836E-02
(PID.TID 0000.0001) %MON dynstat_vvel_del2            =   7.5812442805421E-05
(PID.TID 0000.0001) %MON dynstat_wvel_max             =   2.3578807103187E-04
(PID.TID 0000.0001) %MON dynstat_wvel_min             =  -2.3756575165574E-04
(PID.TID 0000.0001) %MON dynstat_wvel_mean            =   2.2547912671172E-21
(PID.TID 0000.0001) %MON dynstat_wvel_sd              =   3.0343969475523E-05
(PID.TID 0000.0001) %MON dynstat_wvel_del2            =   2.9079290334002E-07
(PID.TID 0000.0001) %MON dynstat_theta_max            =   2.9681493090107E+01
(PID.TID 0000.0001) %MON dynstat_theta_min            =  -1.9510005303741E+00
(PID.TID 0000.0001) %MON dynstat_theta_mean           =   3.6140773908329E+00
(PID.TID 0000.0001) %MON dynstat_theta_sd             =   4.4052284619851E+00
(PID.TID 0000.0001) %MON dynstat_theta_del2           =   5.3398312584804E-03
(PID.TID 0000.0001) %MON dynstat_salt_max             =   3.7451084354042E+01
(PID.TID 0000.0001) %MON dynstat_salt_min             =   2.9765802808034E+01
(PID.TID 0000.0001) %MON dynstat_salt_mean            =   3.4717534707453E+01
(PID.TID 0000.0001) %MON dynstat_salt_sd              =   2.9613505769125E-01
(PID.TID 0000.0001) %MON dynstat_salt_del2            =   1.0122980273370E-03
(PID.TID 0000.0001) %MON forcing_qnet_max             =   4.2798718261719E+02
(PID.TID 0000.0001) %MON forcing_qnet_min             =  -1.8609266001383E+02
(PID.TID 0000.0001) %MON forcing_qnet_mean            =  -1.6675181426744E+01
(PID.TID 0000.0001) %MON forcing_qnet_sd              =   1.1242481361476E+02
(PID.TID 0000.0001) %MON forcing_qnet_del2            =   9.9305199082959E-01
(PID.TID 0000.0001) %MON forcing_qsw_max              =   0.0000000000000E+00
(PID.TID 0000.0001) %MON forcing_qsw_min              =   0.0000000000000E+00
(PID.TID 0000.0001) %MON forcing_qsw_mean             =   0.0000000000000E+00
(PID.TID 0000.0001) %MON forcing_qsw_sd               =   0.0000000000000E+00
(PID.TID 0000.0001) %MON forcing_qsw_del2             =   0.0000000000000E+00
(PID.TID 0000.0001) %MON forcing_empmr_max            =   0.0000000000000E+00
(PID.TID 0000.0001) %MON forcing_empmr_min            =   0.0000000000000E+00
(PID.TID 0000.0001) %MON forcing_empmr_mean           =   0.0000000000000E+00
(PID.TID 0000.0001) %MON forcing_empmr_sd             =   0.0000000000000E+00
(PID.TID 0000.0001) %MON forcing_empmr_del2           =   0.0000000000000E+00
(PID.TID 0000.0001) %MON forcing_fu_max               =   2.7317289412022E-01
(PID.TID 0000.0001) %MON forcing_fu_min               =  -1.6030610948801E-01
(PID.TID 0000.0001) %MON forcing_fu_mean              =   1.6101741826049E-02
(PID.TID 0000.0001) %MON forcing_fu_sd                =   9.0133772222350E-02
(PID.TID 0000.0001) %MON forcing_fu_del2              =   6.5664222090357E-04
(PID.TID 0000.0001) %MON forcing_fv_max               =   2.0930016835531E-01
(PID.TID 0000.0001) %MON forcing_fv_min               =  -1.8573744744062E-01
(PID.TID 0000.0001) %MON forcing_fv_mean              =  -6.2178105886955E-03
(PID.TID 0000.0001) %MON forcing_fv_sd                =   4.5379778517573E-02
(PID.TID 0000.0001) %MON forcing_fv_del2              =   4.4636987924417E-04
(PID.TID 0000.0001) %MON trAdv_CFL_u_max              =   2.1968660629530E-02
(PID.TID 0000.0001) %MON trAdv_CFL_v_max              =   1.0685953462697E-02
(PID.TID 0000.0001) %MON trAdv_CFL_w_max              =   1.2235108974692E-01
(PID.TID 0000.0001) %MON advcfl_uvel_max              =   1.2045863652018E-02
(PID.TID 0000.0001) %MON advcfl_vvel_max              =   5.6693106955847E-03
(PID.TID 0000.0001) %MON advcfl_wvel_max              =   2.4651587717424E-01
(PID.TID 0000.0001) %MON advcfl_W_hf_max              =   1.2429140476340E-01
(PID.TID 0000.0001) %MON pe_b_mean                    =   2.9104129952101E-05
(PID.TID 0000.0001) %MON ke_max                       =   1.7702839798939E-03
(PID.TID 0000.0001) %MON ke_mean                      =   8.7830549251436E-05
(PID.TID 0000.0001) %MON ke_vol                       =   1.3226782436722E+18
(PID.TID 0000.0001) %MON vort_r_min                   =  -2.5383868179047E-07
(PID.TID 0000.0001) %MON vort_r_max                   =   2.8718049077609E-07
(PID.TID 0000.0001) %MON vort_a_mean                  =  -2.5274806909670E-05
(PID.TID 0000.0001) %MON vort_a_sd                    =   7.3603711067846E-05
(PID.TID 0000.0001) %MON vort_p_mean                  =  -3.1845903929215E-05
(PID.TID 0000.0001) %MON vort_p_sd                    =   1.3162541915672E-04
(PID.TID 0000.0001) %MON surfExpan_theta_mean         =   1.4827488039733E-04
(PID.TID 0000.0001) %MON surfExpan_salt_mean          =   1.2369718235349E-05
(PID.TID 0000.0001) // =======================================================
(PID.TID 0000.0001) // End MONITOR dynamic field statistics
(PID.TID 0000.0001) // =======================================================
 cg2d: Sum(rhs),rhsMax =  -8.26005930321116E-14  6.90180622751866E+00
 Calling CG2D_STORE with doStore = T
 Calling CG2D_STORE with ikey_dynamics =    3
(PID.TID 0000.0001)      cg2d_init_res =   1.71455039121629E+00
(PID.TID 0000.0001)      cg2d_iters(min,last) =      -1      26
(PID.TID 0000.0001)      cg2d_last_res =   2.78115450759936E-14
(PID.TID 0000.0001) // =======================================================
(PID.TID 0000.0001) // Begin MONITOR dynamic field statistics
(PID.TID 0000.0001) // =======================================================
(PID.TID 0000.0001) %MON time_tsnumber                =                     6
(PID.TID 0000.0001) %MON time_secondsf                =   2.5920000000000E+05
(PID.TID 0000.0001) %MON dynstat_eta_max              =   7.2495487957646E-01
(PID.TID 0000.0001) %MON dynstat_eta_min              =  -6.2834404204836E-01
(PID.TID 0000.0001) %MON dynstat_eta_mean             =   1.9923989492349E-17
(PID.TID 0000.0001) %MON dynstat_eta_sd               =   1.7780996474791E-01
(PID.TID 0000.0001) %MON dynstat_eta_del2             =   2.7865053306852E-03
(PID.TID 0000.0001) %MON dynstat_uvel_max             =   6.7106727349005E-02
(PID.TID 0000.0001) %MON dynstat_uvel_min             =  -6.3000368459810E-02
(PID.TID 0000.0001) %MON dynstat_uvel_mean            =  -4.1492657193289E-03
(PID.TID 0000.0001) %MON dynstat_uvel_sd              =   6.4759075178709E-03
(PID.TID 0000.0001) %MON dynstat_uvel_del2            =   6.9830992303500E-05
(PID.TID 0000.0001) %MON dynstat_vvel_max             =   6.8112150997953E-02
(PID.TID 0000.0001) %MON dynstat_vvel_min             =  -5.7379513695749E-02
(PID.TID 0000.0001) %MON dynstat_vvel_mean            =   4.2608455553467E-03
(PID.TID 0000.0001) %MON dynstat_vvel_sd              =   1.3163076745370E-02
(PID.TID 0000.0001) %MON dynstat_vvel_del2            =   8.8051326855580E-05
(PID.TID 0000.0001) %MON dynstat_wvel_max             =   2.6017036290394E-04
(PID.TID 0000.0001) %MON dynstat_wvel_min             =  -2.6582998772201E-04
(PID.TID 0000.0001) %MON dynstat_wvel_mean            =  -4.6974818064941E-22
(PID.TID 0000.0001) %MON dynstat_wvel_sd              =   3.2072891602029E-05
(PID.TID 0000.0001) %MON dynstat_wvel_del2            =   3.2747354619393E-07
(PID.TID 0000.0001) %MON dynstat_theta_max            =   2.9697877269738E+01
(PID.TID 0000.0001) %MON dynstat_theta_min            =  -1.9774848199134E+00
(PID.TID 0000.0001) %MON dynstat_theta_mean           =   3.6123649303994E+00
(PID.TID 0000.0001) %MON dynstat_theta_sd             =   4.4015635528983E+00
(PID.TID 0000.0001) %MON dynstat_theta_del2           =   5.3164374049269E-03
(PID.TID 0000.0001) %MON dynstat_salt_max             =   3.7446680696041E+01
(PID.TID 0000.0001) %MON dynstat_salt_min             =   2.9769042498232E+01
(PID.TID 0000.0001) %MON dynstat_salt_mean            =   3.4717391368244E+01
(PID.TID 0000.0001) %MON dynstat_salt_sd              =   2.9613780347999E-01
(PID.TID 0000.0001) %MON dynstat_salt_del2            =   1.0105489018568E-03
(PID.TID 0000.0001) %MON forcing_qnet_max             =   4.2851127624512E+02
(PID.TID 0000.0001) %MON forcing_qnet_min             =  -1.8585907872518E+02
(PID.TID 0000.0001) %MON forcing_qnet_mean            =  -1.6668925448832E+01
(PID.TID 0000.0001) %MON forcing_qnet_sd              =   1.1231844797748E+02
(PID.TID 0000.0001) %MON forcing_qnet_del2            =   9.9372589486325E-01
(PID.TID 0000.0001) %MON forcing_qsw_max              =   0.0000000000000E+00
(PID.TID 0000.0001) %MON forcing_qsw_min              =   0.0000000000000E+00
(PID.TID 0000.0001) %MON forcing_qsw_mean             =   0.0000000000000E+00
(PID.TID 0000.0001) %MON forcing_qsw_sd               =   0.0000000000000E+00
(PID.TID 0000.0001) %MON forcing_qsw_del2             =   0.0000000000000E+00
(PID.TID 0000.0001) %MON forcing_empmr_max            =   0.0000000000000E+00
(PID.TID 0000.0001) %MON forcing_empmr_min            =   0.0000000000000E+00
(PID.TID 0000.0001) %MON forcing_empmr_mean           =   0.0000000000000E+00
(PID.TID 0000.0001) %MON forcing_empmr_sd             =   0.0000000000000E+00
(PID.TID 0000.0001) %MON forcing_empmr_del2           =   0.0000000000000E+00
(PID.TID 0000.0001) %MON forcing_fu_max               =   2.7274361997843E-01
(PID.TID 0000.0001) %MON forcing_fu_min               =  -1.6071281954646E-01
(PID.TID 0000.0001) %MON forcing_fu_mean              =   1.6097895415531E-02
(PID.TID 0000.0001) %MON forcing_fu_sd                =   9.0135716811571E-02
(PID.TID 0000.0001) %MON forcing_fu_del2              =   6.5772173879570E-04
(PID.TID 0000.0001) %MON forcing_fv_max               =   2.0962250605226E-01
(PID.TID 0000.0001) %MON forcing_fv_min               =  -1.8544511869550E-01
(PID.TID 0000.0001) %MON forcing_fv_mean              =  -6.1809293252651E-03
(PID.TID 0000.0001) %MON forcing_fv_sd                =   4.5444816425210E-02
(PID.TID 0000.0001) %MON forcing_fv_del2              =   4.4681757582574E-04
(PID.TID 0000.0001) %MON trAdv_CFL_u_max              =   2.2804054143043E-02
(PID.TID 0000.0001) %MON trAdv_CFL_v_max              =   1.0941292243191E-02
(PID.TID 0000.0001) %MON trAdv_CFL_w_max              =   1.0628134249212E-01
(PID.TID 0000.0001) %MON advcfl_uvel_max              =   1.4584282803073E-02
(PID.TID 0000.0001) %MON advcfl_vvel_max              =   6.6165492756667E-03
(PID.TID 0000.0001) %MON advcfl_wvel_max              =   2.1486594815538E-01
(PID.TID 0000.0001) %MON advcfl_W_hf_max              =   1.1068116593107E-01
(PID.TID 0000.0001) %MON pe_b_mean                    =   4.0456973581906E-05
(PID.TID 0000.0001) %MON ke_max                       =   2.3522136323749E-03
(PID.TID 0000.0001) %MON ke_mean                      =   1.1281082092155E-04
(PID.TID 0000.0001) %MON ke_vol                       =   1.3226782436722E+18
(PID.TID 0000.0001) %MON vort_r_min                   =  -2.9062076173509E-07
(PID.TID 0000.0001) %MON vort_r_max                   =   3.2516505608948E-07
(PID.TID 0000.0001) %MON vort_a_mean                  =  -2.5274806925281E-05
(PID.TID 0000.0001) %MON vort_a_sd                    =   7.3603536358323E-05
(PID.TID 0000.0001) %MON vort_p_mean                  =  -3.1845915226162E-05
(PID.TID 0000.0001) %MON vort_p_sd                    =   1.3162510029297E-04
(PID.TID 0000.0001) %MON surfExpan_theta_mean         =   1.5830272667920E-04
(PID.TID 0000.0001) %MON surfExpan_salt_mean          =   1.3098855008477E-05
(PID.TID 0000.0001) // =======================================================
(PID.TID 0000.0001) // End MONITOR dynamic field statistics
(PID.TID 0000.0001) // =======================================================
 EXTERNAL_FIELDS_LOAD, it=         6 : Reading new data, i0,i1=   12    1 (prev=   12    0 )
 cg2d: Sum(rhs),rhsMax =   2.13162820728030E-14  7.20701040815593E+00
 Calling CG2D_STORE with doStore = T
 Calling CG2D_STORE with ikey_dynamics =    1
(PID.TID 0000.0001)      cg2d_init_res =   1.57763510935453E+00
(PID.TID 0000.0001)      cg2d_iters(min,last) =      -1      26
(PID.TID 0000.0001)      cg2d_last_res =   2.63356638607500E-14
(PID.TID 0000.0001) // =======================================================
(PID.TID 0000.0001) // Begin MONITOR dynamic field statistics
(PID.TID 0000.0001) // =======================================================
(PID.TID 0000.0001) %MON time_tsnumber                =                     7
(PID.TID 0000.0001) %MON time_secondsf                =   3.0240000000000E+05
(PID.TID 0000.0001) %MON dynstat_eta_max              =   8.2745281390079E-01
(PID.TID 0000.0001) %MON dynstat_eta_min              =  -6.8142861729595E-01
(PID.TID 0000.0001) %MON dynstat_eta_mean             =   5.4338153160952E-18
(PID.TID 0000.0001) %MON dynstat_eta_sd               =   2.0375904341884E-01
(PID.TID 0000.0001) %MON dynstat_eta_del2             =   2.6475928404561E-03
(PID.TID 0000.0001) %MON dynstat_uvel_max             =   7.8159332571699E-02
(PID.TID 0000.0001) %MON dynstat_uvel_min             =  -7.6174227976682E-02
(PID.TID 0000.0001) %MON dynstat_uvel_mean            =  -5.0932671412464E-03
(PID.TID 0000.0001) %MON dynstat_uvel_sd              =   7.7473925235318E-03
(PID.TID 0000.0001) %MON dynstat_uvel_del2            =   7.8218177293582E-05
(PID.TID 0000.0001) %MON dynstat_vvel_max             =   7.7500829206698E-02
(PID.TID 0000.0001) %MON dynstat_vvel_min             =  -6.7569295405785E-02
(PID.TID 0000.0001) %MON dynstat_vvel_mean            =   4.6008986477398E-03
(PID.TID 0000.0001) %MON dynstat_vvel_sd              =   1.4057299789122E-02
(PID.TID 0000.0001) %MON dynstat_vvel_del2            =   9.7899981298958E-05
(PID.TID 0000.0001) %MON dynstat_wvel_max             =   2.7895088528444E-04
(PID.TID 0000.0001) %MON dynstat_wvel_min             =  -2.8805692410674E-04
(PID.TID 0000.0001) %MON dynstat_wvel_mean            =   1.3152949058184E-21
(PID.TID 0000.0001) %MON dynstat_wvel_sd              =   3.3731388289339E-05
(PID.TID 0000.0001) %MON dynstat_wvel_del2            =   3.6244192375544E-07
(PID.TID 0000.0001) %MON dynstat_theta_max            =   2.9700112270813E+01
(PID.TID 0000.0001) %MON dynstat_theta_min            =  -2.0062117730992E+00
(PID.TID 0000.0001) %MON dynstat_theta_mean           =   3.6105982908503E+00
(PID.TID 0000.0001) %MON dynstat_theta_sd             =   4.3976960359804E+00
(PID.TID 0000.0001) %MON dynstat_theta_del2           =   5.2866738317011E-03
(PID.TID 0000.0001) %MON dynstat_salt_max             =   3.7442487035931E+01
(PID.TID 0000.0001) %MON dynstat_salt_min             =   2.9772168403498E+01
(PID.TID 0000.0001) %MON dynstat_salt_mean            =   3.4717245359885E+01
(PID.TID 0000.0001) %MON dynstat_salt_sd              =   2.9613499898986E-01
(PID.TID 0000.0001) %MON dynstat_salt_del2            =   1.0081019731284E-03
(PID.TID 0000.0001) %MON forcing_qnet_max             =   4.2903536987305E+02
(PID.TID 0000.0001) %MON forcing_qnet_min             =  -1.8562549743652E+02
(PID.TID 0000.0001) %MON forcing_qnet_mean            =  -1.6662669470921E+01
(PID.TID 0000.0001) %MON forcing_qnet_sd              =   1.1221272517031E+02
(PID.TID 0000.0001) %MON forcing_qnet_del2            =   9.9444386812388E-01
(PID.TID 0000.0001) %MON forcing_qsw_max              =   0.0000000000000E+00
(PID.TID 0000.0001) %MON forcing_qsw_min              =   0.0000000000000E+00
(PID.TID 0000.0001) %MON forcing_qsw_mean             =   0.0000000000000E+00
(PID.TID 0000.0001) %MON forcing_qsw_sd               =   0.0000000000000E+00
(PID.TID 0000.0001) %MON forcing_qsw_del2             =   0.0000000000000E+00
(PID.TID 0000.0001) %MON forcing_empmr_max            =   0.0000000000000E+00
(PID.TID 0000.0001) %MON forcing_empmr_min            =   0.0000000000000E+00
(PID.TID 0000.0001) %MON forcing_empmr_mean           =   0.0000000000000E+00
(PID.TID 0000.0001) %MON forcing_empmr_sd             =   0.0000000000000E+00
(PID.TID 0000.0001) %MON forcing_empmr_del2           =   0.0000000000000E+00
(PID.TID 0000.0001) %MON forcing_fu_max               =   2.7231434583664E-01
(PID.TID 0000.0001) %MON forcing_fu_min               =  -1.6111952960491E-01
(PID.TID 0000.0001) %MON forcing_fu_mean              =   1.6094049005012E-02
(PID.TID 0000.0001) %MON forcing_fu_sd                =   9.0140377513934E-02
(PID.TID 0000.0001) %MON forcing_fu_del2              =   6.5893332094781E-04
(PID.TID 0000.0001) %MON forcing_fv_max               =   2.1056245863438E-01
(PID.TID 0000.0001) %MON forcing_fv_min               =  -1.8515278995037E-01
(PID.TID 0000.0001) %MON forcing_fv_mean              =  -6.1440480618347E-03
(PID.TID 0000.0001) %MON forcing_fv_sd                =   4.5513649503191E-02
(PID.TID 0000.0001) %MON forcing_fv_del2              =   4.4740184358134E-04
(PID.TID 0000.0001) %MON trAdv_CFL_u_max              =   2.3005014719646E-02
(PID.TID 0000.0001) %MON trAdv_CFL_v_max              =   1.2469626639144E-02
(PID.TID 0000.0001) %MON trAdv_CFL_w_max              =   9.3513931162900E-02
(PID.TID 0000.0001) %MON advcfl_uvel_max              =   1.6819083450927E-02
(PID.TID 0000.0001) %MON advcfl_vvel_max              =   7.5285840754986E-03
(PID.TID 0000.0001) %MON advcfl_wvel_max              =   1.7668508760912E-01
(PID.TID 0000.0001) %MON advcfl_W_hf_max              =   8.9219579923036E-02
(PID.TID 0000.0001) %MON pe_b_mean                    =   5.3126962529735E-05
(PID.TID 0000.0001) %MON ke_max                       =   3.0459936181647E-03
(PID.TID 0000.0001) %MON ke_mean                      =   1.3727129307132E-04
(PID.TID 0000.0001) %MON ke_vol                       =   1.3226782436722E+18
(PID.TID 0000.0001) %MON vort_r_min                   =  -3.1880172650001E-07
(PID.TID 0000.0001) %MON vort_r_max                   =   3.5604323346668E-07
(PID.TID 0000.0001) %MON vort_a_mean                  =  -2.5274806980074E-05
(PID.TID 0000.0001) %MON vort_a_sd                    =   7.3603357975052E-05
(PID.TID 0000.0001) %MON vort_p_mean                  =  -3.1845919356707E-05
(PID.TID 0000.0001) %MON vort_p_sd                    =   1.3162472874917E-04
(PID.TID 0000.0001) %MON surfExpan_theta_mean         =   1.6346842037305E-04
(PID.TID 0000.0001) %MON surfExpan_salt_mean          =   1.3358943301473E-05
(PID.TID 0000.0001) // =======================================================
(PID.TID 0000.0001) // End MONITOR dynamic field statistics
(PID.TID 0000.0001) // =======================================================
 cg2d: Sum(rhs),rhsMax =   2.30926389122033E-14  7.81837601024606E+00
 Calling CG2D_STORE with doStore = T
 Calling CG2D_STORE with ikey_dynamics =    2
(PID.TID 0000.0001)      cg2d_init_res =   1.39388330512710E+00
(PID.TID 0000.0001)      cg2d_iters(min,last) =      -1      26
(PID.TID 0000.0001)      cg2d_last_res =   2.34627253902283E-14
(PID.TID 0000.0001) // =======================================================
(PID.TID 0000.0001) // Begin MONITOR dynamic field statistics
(PID.TID 0000.0001) // =======================================================
(PID.TID 0000.0001) %MON time_tsnumber                =                     8
(PID.TID 0000.0001) %MON time_secondsf                =   3.4560000000000E+05
(PID.TID 0000.0001) %MON dynstat_eta_max              =   9.0080743693430E-01
(PID.TID 0000.0001) %MON dynstat_eta_min              =  -7.1046497833653E-01
(PID.TID 0000.0001) %MON dynstat_eta_mean             =  -5.4338153160952E-18
(PID.TID 0000.0001) %MON dynstat_eta_sd               =   2.2854363522338E-01
(PID.TID 0000.0001) %MON dynstat_eta_del2             =   2.5403804032277E-03
(PID.TID 0000.0001) %MON dynstat_uvel_max             =   8.8502556036093E-02
(PID.TID 0000.0001) %MON dynstat_uvel_min             =  -9.5887692639833E-02
(PID.TID 0000.0001) %MON dynstat_uvel_mean            =  -6.0269743790123E-03
(PID.TID 0000.0001) %MON dynstat_uvel_sd              =   9.0264261851901E-03
(PID.TID 0000.0001) %MON dynstat_uvel_del2            =   8.5646055266316E-05
(PID.TID 0000.0001) %MON dynstat_vvel_max             =   8.3713258100673E-02
(PID.TID 0000.0001) %MON dynstat_vvel_min             =  -7.6681163508039E-02
(PID.TID 0000.0001) %MON dynstat_vvel_mean            =   4.8157974932383E-03
(PID.TID 0000.0001) %MON dynstat_vvel_sd              =   1.4661009028508E-02
(PID.TID 0000.0001) %MON dynstat_vvel_del2            =   1.0577881381605E-04
(PID.TID 0000.0001) %MON dynstat_wvel_max             =   2.9142819423315E-04
(PID.TID 0000.0001) %MON dynstat_wvel_min             =  -3.0395354323259E-04
(PID.TID 0000.0001) %MON dynstat_wvel_mean            =   7.5159708903906E-22
(PID.TID 0000.0001) %MON dynstat_wvel_sd              =   3.5137664658563E-05
(PID.TID 0000.0001) %MON dynstat_wvel_del2            =   3.9006721338729E-07
(PID.TID 0000.0001) %MON dynstat_theta_max            =   2.9684213251436E+01
(PID.TID 0000.0001) %MON dynstat_theta_min            =  -2.0350554201448E+00
(PID.TID 0000.0001) %MON dynstat_theta_mean           =   3.6088248969102E+00
(PID.TID 0000.0001) %MON dynstat_theta_sd             =   4.3937009431247E+00
(PID.TID 0000.0001) %MON dynstat_theta_del2           =   5.2516848352604E-03
(PID.TID 0000.0001) %MON dynstat_salt_max             =   3.7438655607287E+01
(PID.TID 0000.0001) %MON dynstat_salt_min             =   2.9775057227095E+01
(PID.TID 0000.0001) %MON dynstat_salt_mean            =   3.4717101102692E+01
(PID.TID 0000.0001) %MON dynstat_salt_sd              =   2.9612427741656E-01
(PID.TID 0000.0001) %MON dynstat_salt_del2            =   1.0056524576384E-03
(PID.TID 0000.0001) %MON forcing_qnet_max             =   4.2955946350098E+02
(PID.TID 0000.0001) %MON forcing_qnet_min             =  -1.8539191614787E+02
(PID.TID 0000.0001) %MON forcing_qnet_mean            =  -1.6656413493009E+01
(PID.TID 0000.0001) %MON forcing_qnet_sd              =   1.1210764701191E+02
(PID.TID 0000.0001) %MON forcing_qnet_del2            =   9.9520581523265E-01
(PID.TID 0000.0001) %MON forcing_qsw_max              =   0.0000000000000E+00
(PID.TID 0000.0001) %MON forcing_qsw_min              =   0.0000000000000E+00
(PID.TID 0000.0001) %MON forcing_qsw_mean             =   0.0000000000000E+00
(PID.TID 0000.0001) %MON forcing_qsw_sd               =   0.0000000000000E+00
(PID.TID 0000.0001) %MON forcing_qsw_del2             =   0.0000000000000E+00
(PID.TID 0000.0001) %MON forcing_empmr_max            =   0.0000000000000E+00
(PID.TID 0000.0001) %MON forcing_empmr_min            =   0.0000000000000E+00
(PID.TID 0000.0001) %MON forcing_empmr_mean           =   0.0000000000000E+00
(PID.TID 0000.0001) %MON forcing_empmr_sd             =   0.0000000000000E+00
(PID.TID 0000.0001) %MON forcing_empmr_del2           =   0.0000000000000E+00
(PID.TID 0000.0001) %MON forcing_fu_max               =   2.7188507169485E-01
(PID.TID 0000.0001) %MON forcing_fu_min               =  -1.6152623966336E-01
(PID.TID 0000.0001) %MON forcing_fu_mean              =   1.6090202594493E-02
(PID.TID 0000.0001) %MON forcing_fu_sd                =   9.0147753908164E-02
(PID.TID 0000.0001) %MON forcing_fu_del2              =   6.6027624036139E-04
(PID.TID 0000.0001) %MON forcing_fv_max               =   2.1150241121650E-01
(PID.TID 0000.0001) %MON forcing_fv_min               =  -1.8486046120524E-01
(PID.TID 0000.0001) %MON forcing_fv_mean              =  -6.1071667984043E-03
(PID.TID 0000.0001) %MON forcing_fv_sd                =   4.5586260559939E-02
(PID.TID 0000.0001) %MON forcing_fv_del2              =   4.4812214832125E-04
(PID.TID 0000.0001) %MON trAdv_CFL_u_max              =   2.2627426002795E-02
(PID.TID 0000.0001) %MON trAdv_CFL_v_max              =   1.3642599561869E-02
(PID.TID 0000.0001) %MON trAdv_CFL_w_max              =   1.0754401103265E-01
(PID.TID 0000.0001) %MON advcfl_uvel_max              =   1.7806344413884E-02
(PID.TID 0000.0001) %MON advcfl_vvel_max              =   8.1320717248580E-03
(PID.TID 0000.0001) %MON advcfl_wvel_max              =   1.8976820663828E-01
(PID.TID 0000.0001) %MON advcfl_W_hf_max              =   9.7237137437731E-02
(PID.TID 0000.0001) %MON pe_b_mean                    =   6.6837386894942E-05
(PID.TID 0000.0001) %MON ke_max                       =   4.0112320110704E-03
(PID.TID 0000.0001) %MON ke_mean                      =   1.6042735344689E-04
(PID.TID 0000.0001) %MON ke_vol                       =   1.3226782436722E+18
(PID.TID 0000.0001) %MON vort_r_min                   =  -3.3866315623209E-07
(PID.TID 0000.0001) %MON vort_r_max                   =   4.2496459485461E-07
(PID.TID 0000.0001) %MON vort_a_mean                  =  -2.5274807070005E-05
(PID.TID 0000.0001) %MON vort_a_sd                    =   7.3603181068529E-05
(PID.TID 0000.0001) %MON vort_p_mean                  =  -3.1845921366588E-05
(PID.TID 0000.0001) %MON vort_p_sd                    =   1.3162433317546E-04
(PID.TID 0000.0001) %MON surfExpan_theta_mean         =   1.6430586019847E-04
(PID.TID 0000.0001) %MON surfExpan_salt_mean          =   1.3212987396878E-05
(PID.TID 0000.0001) // =======================================================
(PID.TID 0000.0001) // End MONITOR dynamic field statistics
(PID.TID 0000.0001) // =======================================================
 cg2d: Sum(rhs),rhsMax =  -5.50670620214078E-14  8.15854450345303E+00
 Calling CG2D_STORE with doStore = T
 Calling CG2D_STORE with ikey_dynamics =    3
(PID.TID 0000.0001)      cg2d_init_res =   1.28278817698496E+00
(PID.TID 0000.0001)      cg2d_iters(min,last) =      -1      25
(PID.TID 0000.0001)      cg2d_last_res =   9.46005911212935E-14
(PID.TID 0000.0001) // =======================================================
(PID.TID 0000.0001) // Begin MONITOR dynamic field statistics
(PID.TID 0000.0001) // =======================================================
(PID.TID 0000.0001) %MON time_tsnumber                =                     9
(PID.TID 0000.0001) %MON time_secondsf                =   3.8880000000000E+05
(PID.TID 0000.0001) %MON dynstat_eta_max              =   9.4354848209210E-01
(PID.TID 0000.0001) %MON dynstat_eta_min              =  -7.8942505535605E-01
(PID.TID 0000.0001) %MON dynstat_eta_mean             =  -6.3394512021110E-18
(PID.TID 0000.0001) %MON dynstat_eta_sd               =   2.5191646126902E-01
(PID.TID 0000.0001) %MON dynstat_eta_del2             =   2.4583721097331E-03
(PID.TID 0000.0001) %MON dynstat_uvel_max             =   9.8147228955646E-02
(PID.TID 0000.0001) %MON dynstat_uvel_min             =  -1.1314162594548E-01
(PID.TID 0000.0001) %MON dynstat_uvel_mean            =  -6.9208244773878E-03
(PID.TID 0000.0001) %MON dynstat_uvel_sd              =   1.0282909885627E-02
(PID.TID 0000.0001) %MON dynstat_uvel_del2            =   9.2250599084775E-05
(PID.TID 0000.0001) %MON dynstat_vvel_max             =   8.8371669407232E-02
(PID.TID 0000.0001) %MON dynstat_vvel_min             =  -8.4615463097381E-02
(PID.TID 0000.0001) %MON dynstat_vvel_mean            =   4.9083252204513E-03
(PID.TID 0000.0001) %MON dynstat_vvel_sd              =   1.5006298386427E-02
(PID.TID 0000.0001) %MON dynstat_vvel_del2            =   1.1204648654165E-04
(PID.TID 0000.0001) %MON dynstat_wvel_max             =   2.9669192820297E-04
(PID.TID 0000.0001) %MON dynstat_wvel_min             =  -3.1392389912539E-04
(PID.TID 0000.0001) %MON dynstat_wvel_mean            =   1.2213452696885E-21
(PID.TID 0000.0001) %MON dynstat_wvel_sd              =   3.6150263526391E-05
(PID.TID 0000.0001) %MON dynstat_wvel_del2            =   4.0843177833375E-07
(PID.TID 0000.0001) %MON dynstat_theta_max            =   2.9652734854043E+01
(PID.TID 0000.0001) %MON dynstat_theta_min            =  -2.0619733734513E+00
(PID.TID 0000.0001) %MON dynstat_theta_mean           =   3.6070859527139E+00
(PID.TID 0000.0001) %MON dynstat_theta_sd             =   4.3896490660333E+00
(PID.TID 0000.0001) %MON dynstat_theta_del2           =   5.2136298000505E-03
(PID.TID 0000.0001) %MON dynstat_salt_max             =   3.7435201291897E+01
(PID.TID 0000.0001) %MON dynstat_salt_min             =   2.9777605606692E+01
(PID.TID 0000.0001) %MON dynstat_salt_mean            =   3.4716962395163E+01
(PID.TID 0000.0001) %MON dynstat_salt_sd              =   2.9610616997525E-01
(PID.TID 0000.0001) %MON dynstat_salt_del2            =   1.0031975412375E-03
(PID.TID 0000.0001) %MON forcing_qnet_max             =   4.3008355712891E+02
(PID.TID 0000.0001) %MON forcing_qnet_min             =  -1.8515833485921E+02
(PID.TID 0000.0001) %MON forcing_qnet_mean            =  -1.6650157515098E+01
(PID.TID 0000.0001) %MON forcing_qnet_sd              =   1.1200321531664E+02
(PID.TID 0000.0001) %MON forcing_qnet_del2            =   9.9601163526981E-01
(PID.TID 0000.0001) %MON forcing_qsw_max              =   0.0000000000000E+00
(PID.TID 0000.0001) %MON forcing_qsw_min              =   0.0000000000000E+00
(PID.TID 0000.0001) %MON forcing_qsw_mean             =   0.0000000000000E+00
(PID.TID 0000.0001) %MON forcing_qsw_sd               =   0.0000000000000E+00
(PID.TID 0000.0001) %MON forcing_qsw_del2             =   0.0000000000000E+00
(PID.TID 0000.0001) %MON forcing_empmr_max            =   0.0000000000000E+00
(PID.TID 0000.0001) %MON forcing_empmr_min            =   0.0000000000000E+00
(PID.TID 0000.0001) %MON forcing_empmr_mean           =   0.0000000000000E+00
(PID.TID 0000.0001) %MON forcing_empmr_sd             =   0.0000000000000E+00
(PID.TID 0000.0001) %MON forcing_empmr_del2           =   0.0000000000000E+00
(PID.TID 0000.0001) %MON forcing_fu_max               =   2.7145579755306E-01
(PID.TID 0000.0001) %MON forcing_fu_min               =  -1.6193294972181E-01
(PID.TID 0000.0001) %MON forcing_fu_mean              =   1.6086356183975E-02
(PID.TID 0000.0001) %MON forcing_fu_sd                =   9.0157845327697E-02
(PID.TID 0000.0001) %MON forcing_fu_del2              =   6.6174969745051E-04
(PID.TID 0000.0001) %MON forcing_fv_max               =   2.1244236379862E-01
(PID.TID 0000.0001) %MON forcing_fv_min               =  -1.8456813246012E-01
(PID.TID 0000.0001) %MON forcing_fv_mean              =  -6.0702855349739E-03
(PID.TID 0000.0001) %MON forcing_fv_sd                =   4.5662631572644E-02
(PID.TID 0000.0001) %MON forcing_fv_del2              =   4.4897783530480E-04
(PID.TID 0000.0001) %MON trAdv_CFL_u_max              =   2.2711170113633E-02
(PID.TID 0000.0001) %MON trAdv_CFL_v_max              =   1.4369598904479E-02
(PID.TID 0000.0001) %MON trAdv_CFL_w_max              =   1.1305564495680E-01
(PID.TID 0000.0001) %MON advcfl_uvel_max              =   1.7419059573946E-02
(PID.TID 0000.0001) %MON advcfl_vvel_max              =   8.5845990273227E-03
(PID.TID 0000.0001) %MON advcfl_wvel_max              =   1.9482415389095E-01
(PID.TID 0000.0001) %MON advcfl_W_hf_max              =   1.0263840239069E-01
(PID.TID 0000.0001) %MON pe_b_mean                    =   8.1207154717783E-05
(PID.TID 0000.0001) %MON ke_max                       =   5.0188114462625E-03
(PID.TID 0000.0001) %MON ke_mean                      =   1.8171053790940E-04
(PID.TID 0000.0001) %MON ke_vol                       =   1.3226782436722E+18
(PID.TID 0000.0001) %MON vort_r_min                   =  -3.6964761441192E-07
(PID.TID 0000.0001) %MON vort_r_max                   =   5.0553176819497E-07
(PID.TID 0000.0001) %MON vort_a_mean                  =  -2.5274807181195E-05
(PID.TID 0000.0001) %MON vort_a_sd                    =   7.3603010707884E-05
(PID.TID 0000.0001) %MON vort_p_mean                  =  -3.1845922212246E-05
(PID.TID 0000.0001) %MON vort_p_sd                    =   1.3162393079971E-04
(PID.TID 0000.0001) %MON surfExpan_theta_mean         =   1.6138052407733E-04
(PID.TID 0000.0001) %MON surfExpan_salt_mean          =   1.2717201756273E-05
(PID.TID 0000.0001) // =======================================================
(PID.TID 0000.0001) // End MONITOR dynamic field statistics
(PID.TID 0000.0001) // =======================================================
 EXTERNAL_FIELDS_LOAD, it=         9 : Reading new data, i0,i1=   12    1 (prev=   12    0 )
 cg2d: Sum(rhs),rhsMax =   1.77635683940025E-14  8.25652180482843E+00
 Calling CG2D_STORE with doStore = T
 Calling CG2D_STORE with ikey_dynamics =    1
(PID.TID 0000.0001)      cg2d_init_res =   1.21999367717907E+00
(PID.TID 0000.0001)      cg2d_iters(min,last) =      -1      25
(PID.TID 0000.0001)      cg2d_last_res =   8.66790675002816E-14
(PID.TID 0000.0001) // =======================================================
(PID.TID 0000.0001) // Begin MONITOR dynamic field statistics
(PID.TID 0000.0001) // =======================================================
(PID.TID 0000.0001) %MON time_tsnumber                =                    10
(PID.TID 0000.0001) %MON time_secondsf                =   4.3200000000000E+05
(PID.TID 0000.0001) %MON dynstat_eta_max              =   9.5944722628084E-01
(PID.TID 0000.0001) %MON dynstat_eta_min              =  -8.4191729924160E-01
(PID.TID 0000.0001) %MON dynstat_eta_mean             =   3.7131071326650E-17
(PID.TID 0000.0001) %MON dynstat_eta_sd               =   2.7360336001403E-01
(PID.TID 0000.0001) %MON dynstat_eta_del2             =   2.3880767254268E-03
(PID.TID 0000.0001) %MON dynstat_uvel_max             =   1.0711803554478E-01
(PID.TID 0000.0001) %MON dynstat_uvel_min             =  -1.2667187198336E-01
(PID.TID 0000.0001) %MON dynstat_uvel_mean            =  -7.7474912957253E-03
(PID.TID 0000.0001) %MON dynstat_uvel_sd              =   1.1489410155348E-02
(PID.TID 0000.0001) %MON dynstat_uvel_del2            =   9.8096687209398E-05
(PID.TID 0000.0001) %MON dynstat_vvel_max             =   9.8546076894401E-02
(PID.TID 0000.0001) %MON dynstat_vvel_min             =  -9.1217004589313E-02
(PID.TID 0000.0001) %MON dynstat_vvel_mean            =   4.8860607953229E-03
(PID.TID 0000.0001) %MON dynstat_vvel_sd              =   1.5131616432514E-02
(PID.TID 0000.0001) %MON dynstat_vvel_del2            =   1.1691667781069E-04
(PID.TID 0000.0001) %MON dynstat_wvel_max             =   2.9419181972404E-04
(PID.TID 0000.0001) %MON dynstat_wvel_min             =  -3.1955199372335E-04
(PID.TID 0000.0001) %MON dynstat_wvel_mean            =   3.7579854451953E-22
(PID.TID 0000.0001) %MON dynstat_wvel_sd              =   3.6705944502941E-05
(PID.TID 0000.0001) %MON dynstat_wvel_del2            =   4.1791637914398E-07
(PID.TID 0000.0001) %MON dynstat_theta_max            =   2.9612024836865E+01
(PID.TID 0000.0001) %MON dynstat_theta_min            =  -2.0852223765410E+00
(PID.TID 0000.0001) %MON dynstat_theta_mean           =   3.6054160383426E+00
(PID.TID 0000.0001) %MON dynstat_theta_sd             =   4.3856036087736E+00
(PID.TID 0000.0001) %MON dynstat_theta_del2           =   5.1750662414688E-03
(PID.TID 0000.0001) %MON dynstat_salt_max             =   3.7432131516523E+01
(PID.TID 0000.0001) %MON dynstat_salt_min             =   2.9779734764478E+01
(PID.TID 0000.0001) %MON dynstat_salt_mean            =   3.4716832410927E+01
(PID.TID 0000.0001) %MON dynstat_salt_sd              =   2.9608183725615E-01
(PID.TID 0000.0001) %MON dynstat_salt_del2            =   1.0007968950895E-03
(PID.TID 0000.0001) %MON forcing_qnet_max             =   4.3060765075684E+02
(PID.TID 0000.0001) %MON forcing_qnet_min             =  -1.8492475357056E+02
(PID.TID 0000.0001) %MON forcing_qnet_mean            =  -1.6643901537186E+01
(PID.TID 0000.0001) %MON forcing_qnet_sd              =   1.1189943189448E+02
(PID.TID 0000.0001) %MON forcing_qnet_del2            =   9.9686122184036E-01
(PID.TID 0000.0001) %MON forcing_qsw_max              =   0.0000000000000E+00
(PID.TID 0000.0001) %MON forcing_qsw_min              =   0.0000000000000E+00
(PID.TID 0000.0001) %MON forcing_qsw_mean             =   0.0000000000000E+00
(PID.TID 0000.0001) %MON forcing_qsw_sd               =   0.0000000000000E+00
(PID.TID 0000.0001) %MON forcing_qsw_del2             =   0.0000000000000E+00
(PID.TID 0000.0001) %MON forcing_empmr_max            =   0.0000000000000E+00
(PID.TID 0000.0001) %MON forcing_empmr_min            =   0.0000000000000E+00
(PID.TID 0000.0001) %MON forcing_empmr_mean           =   0.0000000000000E+00
(PID.TID 0000.0001) %MON forcing_empmr_sd             =   0.0000000000000E+00
(PID.TID 0000.0001) %MON forcing_empmr_del2           =   0.0000000000000E+00
(PID.TID 0000.0001) %MON forcing_fu_max               =   2.7102652341127E-01
(PID.TID 0000.0001) %MON forcing_fu_min               =  -1.6233965978026E-01
(PID.TID 0000.0001) %MON forcing_fu_mean              =   1.6082509773456E-02
(PID.TID 0000.0001) %MON forcing_fu_sd                =   9.0170650860979E-02
(PID.TID 0000.0001) %MON forcing_fu_del2              =   6.6335282235437E-04
(PID.TID 0000.0001) %MON forcing_fv_max               =   2.1338231638074E-01
(PID.TID 0000.0001) %MON forcing_fv_min               =  -1.8427580371499E-01
(PID.TID 0000.0001) %MON forcing_fv_mean              =  -6.0334042715435E-03
(PID.TID 0000.0001) %MON forcing_fv_sd                =   4.5742743708708E-02
(PID.TID 0000.0001) %MON forcing_fv_del2              =   4.4996813217914E-04
(PID.TID 0000.0001) %MON trAdv_CFL_u_max              =   2.3963707482485E-02
(PID.TID 0000.0001) %MON trAdv_CFL_v_max              =   1.4614484621932E-02
(PID.TID 0000.0001) %MON trAdv_CFL_w_max              =   1.0925202600420E-01
(PID.TID 0000.0001) %MON advcfl_uvel_max              =   1.5987486684876E-02
(PID.TID 0000.0001) %MON advcfl_vvel_max              =   9.5729611257622E-03
(PID.TID 0000.0001) %MON advcfl_wvel_max              =   1.9294764802575E-01
(PID.TID 0000.0001) %MON advcfl_W_hf_max              =   9.8702065621374E-02
(PID.TID 0000.0001) %MON pe_b_mean                    =   9.5790855765647E-05
(PID.TID 0000.0001) %MON ke_max                       =   5.7888688221175E-03
(PID.TID 0000.0001) %MON ke_mean                      =   2.0075114767795E-04
(PID.TID 0000.0001) %MON ke_vol                       =   1.3226782436722E+18
(PID.TID 0000.0001) %MON vort_r_min                   =  -3.9629958818193E-07
(PID.TID 0000.0001) %MON vort_r_max                   =   5.7690762779611E-07
(PID.TID 0000.0001) %MON vort_a_mean                  =  -2.5274807297113E-05
(PID.TID 0000.0001) %MON vort_a_sd                    =   7.3602851688492E-05
(PID.TID 0000.0001) %MON vort_p_mean                  =  -3.1845921354773E-05
(PID.TID 0000.0001) %MON vort_p_sd                    =   1.3162353480139E-04
(PID.TID 0000.0001) %MON surfExpan_theta_mean         =   1.5528835507615E-04
(PID.TID 0000.0001) %MON surfExpan_salt_mean          =   1.1928201119021E-05
(PID.TID 0000.0001) // =======================================================
(PID.TID 0000.0001) // End MONITOR dynamic field statistics
(PID.TID 0000.0001) // =======================================================
(PID.TID 0000.0001) %CHECKPOINT        10 ckptA
(PID.TID 0000.0001)   early fc =  0.000000000000000D+00
 --> objf_atl(bi,bj)    =  0.000000000000000D+00
 --> objf_atl(bi,bj)    =  0.000000000000000D+00
 --> objf_atl(bi,bj)    =  0.000000000000000D+00
 --> objf_atl(bi,bj)    = -0.449960735199708D-01
(PID.TID 0000.0001)   local fc = -0.449960735199708D-01
(PID.TID 0000.0001)  global fc = -0.449960735199708D-01
 EXTERNAL_FIELDS_LOAD, it=         0 : Reading new data, i0,i1=   12    1 (prev=   12    0 )
(PID.TID 0000.0001) SOLVE_FOR_PRESSURE: putPmEinXvector =    F
 cg2d: Sum(rhs),rhsMax =   1.33226762955019E-15  2.53681867617526E+00
 Calling CG2D_STORE with doStore = T
 Calling CG2D_STORE with ikey_dynamics =    1
 cg2d: Sum(rhs),rhsMax =   9.76996261670138E-15  4.94468860746549E+00
 Calling CG2D_STORE with doStore = T
 Calling CG2D_STORE with ikey_dynamics =    2
 cg2d: Sum(rhs),rhsMax =  -2.44249065417534E-15  6.31447821913423E+00
 Calling CG2D_STORE with doStore = T
 Calling CG2D_STORE with ikey_dynamics =    3
 EXTERNAL_FIELDS_LOAD, it=         3 : Reading new data, i0,i1=   12    1 (prev=   12    0 )
 cg2d: Sum(rhs),rhsMax =  -5.32907051820075E-15  6.83789717252028E+00
 Calling CG2D_STORE with doStore = T
 Calling CG2D_STORE with ikey_dynamics =    1
 cg2d: Sum(rhs),rhsMax =  -4.08562073062058E-14  6.94384100142540E+00
 Calling CG2D_STORE with doStore = T
 Calling CG2D_STORE with ikey_dynamics =    2
 cg2d: Sum(rhs),rhsMax =  -8.26005930321116E-14  6.90180622751866E+00
 Calling CG2D_STORE with doStore = T
 Calling CG2D_STORE with ikey_dynamics =    3
 EXTERNAL_FIELDS_LOAD, it=         6 : Reading new data, i0,i1=   12    1 (prev=   12    0 )
 cg2d: Sum(rhs),rhsMax =   2.13162820728030E-14  7.20701040815593E+00
 Calling CG2D_STORE with doStore = T
 Calling CG2D_STORE with ikey_dynamics =    1
 cg2d: Sum(rhs),rhsMax =   2.30926389122033E-14  7.81837601024606E+00
 Calling CG2D_STORE with doStore = T
 Calling CG2D_STORE with ikey_dynamics =    2
 cg2d: Sum(rhs),rhsMax =  -5.50670620214078E-14  8.15854450345303E+00
 Calling CG2D_STORE with doStore = T
 Calling CG2D_STORE with ikey_dynamics =    3
 EXTERNAL_FIELDS_LOAD, it=         9 : Reading new data, i0,i1=   12    1 (prev=   12    0 )
 cg2d: Sum(rhs),rhsMax =   1.77635683940025E-14  8.25652180482843E+00
 Calling CG2D_STORE with doStore = T
 Calling CG2D_STORE with ikey_dynamics =    1
(PID.TID 0000.0001) Did not write pickup because writePickupAtEnd = FALSE
 EXTERNAL_FIELDS_LOAD, it=         9 : Reading new data, i0,i1=   12    1 (prev=   12    0 )
 cg2d: Sum(rhs),rhsMax =   1.77635683940025E-14  8.25652180482843E+00
 Calling CG2D_STORE with doStore = T
 Calling CG2D_STORE with ikey_dynamics =    1
(PID.TID 0000.0001) Did not write pickup because writePickupAtEnd = FALSE
(PID.TID 0000.0001) Did not write pickup because writePickupAtEnd = FALSE
(PID.TID 0000.0001) // =======================================================
(PID.TID 0000.0001) // Begin AD_MONITOR dynamic field statistics
(PID.TID 0000.0001) // =======================================================
(PID.TID 0000.0001) %MON ad_time_tsnumber             =                    10
(PID.TID 0000.0001) %MON ad_time_secondsf             =   4.3200000000000E+05
(PID.TID 0000.0001) %MON ad_dynstat_adeta_max         =   0.0000000000000E+00
(PID.TID 0000.0001) %MON ad_dynstat_adeta_min         =   0.0000000000000E+00
(PID.TID 0000.0001) %MON ad_dynstat_adeta_mean        =   0.0000000000000E+00
(PID.TID 0000.0001) %MON ad_dynstat_adeta_sd          =   0.0000000000000E+00
(PID.TID 0000.0001) %MON ad_dynstat_adeta_del2        =   0.0000000000000E+00
(PID.TID 0000.0001) %MON ad_dynstat_aduvel_max        =   0.0000000000000E+00
(PID.TID 0000.0001) %MON ad_dynstat_aduvel_min        =   0.0000000000000E+00
(PID.TID 0000.0001) %MON ad_dynstat_aduvel_mean       =   0.0000000000000E+00
(PID.TID 0000.0001) %MON ad_dynstat_aduvel_sd         =   0.0000000000000E+00
(PID.TID 0000.0001) %MON ad_dynstat_aduvel_del2       =   0.0000000000000E+00
(PID.TID 0000.0001) %MON ad_dynstat_advvel_max        =   5.3509816049551E-03
(PID.TID 0000.0001) %MON ad_dynstat_advvel_min        =   0.0000000000000E+00
(PID.TID 0000.0001) %MON ad_dynstat_advvel_mean       =   3.0040234948646E-05
(PID.TID 0000.0001) %MON ad_dynstat_advvel_sd         =   3.1340826586524E-04
(PID.TID 0000.0001) %MON ad_dynstat_advvel_del2       =   4.2137135479857E-06
(PID.TID 0000.0001) %MON ad_dynstat_adwvel_max        =   0.0000000000000E+00
(PID.TID 0000.0001) %MON ad_dynstat_adwvel_min        =   0.0000000000000E+00
(PID.TID 0000.0001) %MON ad_dynstat_adwvel_mean       =   0.0000000000000E+00
(PID.TID 0000.0001) %MON ad_dynstat_adwvel_sd         =   0.0000000000000E+00
(PID.TID 0000.0001) %MON ad_dynstat_adwvel_del2       =   0.0000000000000E+00
(PID.TID 0000.0001) %MON ad_dynstat_adtheta_max       =   1.9999020517668E-06
(PID.TID 0000.0001) %MON ad_dynstat_adtheta_min       =  -4.8630755434897E-06
(PID.TID 0000.0001) %MON ad_dynstat_adtheta_mean      =  -1.9772359607498E-08
(PID.TID 0000.0001) %MON ad_dynstat_adtheta_sd        =   2.3555902936863E-07
(PID.TID 0000.0001) %MON ad_dynstat_adtheta_del2      =   1.9411000933708E-09
(PID.TID 0000.0001) %MON ad_dynstat_adsalt_max        =   0.0000000000000E+00
(PID.TID 0000.0001) %MON ad_dynstat_adsalt_min        =   0.0000000000000E+00
(PID.TID 0000.0001) %MON ad_dynstat_adsalt_mean       =   0.0000000000000E+00
(PID.TID 0000.0001) %MON ad_dynstat_adsalt_sd         =   0.0000000000000E+00
(PID.TID 0000.0001) %MON ad_dynstat_adsalt_del2       =   0.0000000000000E+00
(PID.TID 0000.0001) %MON ad_forcing_adqnet_max        =   0.0000000000000E+00
(PID.TID 0000.0001) %MON ad_forcing_adqnet_min        =   0.0000000000000E+00
(PID.TID 0000.0001) %MON ad_forcing_adqnet_mean       =   0.0000000000000E+00
(PID.TID 0000.0001) %MON ad_forcing_adqnet_sd         =   0.0000000000000E+00
(PID.TID 0000.0001) %MON ad_forcing_adqnet_del2       =   0.0000000000000E+00
(PID.TID 0000.0001) %MON ad_forcing_adempmr_max       =   0.0000000000000E+00
(PID.TID 0000.0001) %MON ad_forcing_adempmr_min       =   0.0000000000000E+00
(PID.TID 0000.0001) %MON ad_forcing_adempmr_mean      =   0.0000000000000E+00
(PID.TID 0000.0001) %MON ad_forcing_adempmr_sd        =   0.0000000000000E+00
(PID.TID 0000.0001) %MON ad_forcing_adempmr_del2      =   0.0000000000000E+00
(PID.TID 0000.0001) %MON ad_forcing_adfu_max          =   0.0000000000000E+00
(PID.TID 0000.0001) %MON ad_forcing_adfu_min          =   0.0000000000000E+00
(PID.TID 0000.0001) %MON ad_forcing_adfu_mean         =   0.0000000000000E+00
(PID.TID 0000.0001) %MON ad_forcing_adfu_sd           =   0.0000000000000E+00
(PID.TID 0000.0001) %MON ad_forcing_adfu_del2         =   0.0000000000000E+00
(PID.TID 0000.0001) %MON ad_forcing_adfv_max          =   0.0000000000000E+00
(PID.TID 0000.0001) %MON ad_forcing_adfv_min          =   0.0000000000000E+00
(PID.TID 0000.0001) %MON ad_forcing_adfv_mean         =   0.0000000000000E+00
(PID.TID 0000.0001) %MON ad_forcing_adfv_sd           =   0.0000000000000E+00
(PID.TID 0000.0001) %MON ad_forcing_adfv_del2         =   0.0000000000000E+00
(PID.TID 0000.0001) // =======================================================
(PID.TID 0000.0001) // End AD_MONITOR dynamic field statistics
(PID.TID 0000.0001) // =======================================================
 Calling cg2d from S/R CG2D_MAD
 cg2d: Sum(rhs),rhsMax =   1.87827014251696E-15  8.04927720303465E-09
 Calling CG2D_STORE with doStore = F
 Calling CG2D_STORE with ikey_dynamics =    1
 EXTERNAL_FIELDS_LOAD, it=         6 : Reading new data, i0,i1=   12    1 (prev=   12    0 )
 cg2d: Sum(rhs),rhsMax =   2.13162820728030E-14  7.20701040815593E+00
 Calling CG2D_STORE with doStore = T
 Calling CG2D_STORE with ikey_dynamics =    1
 cg2d: Sum(rhs),rhsMax =   2.30926389122033E-14  7.81837601024606E+00
 Calling CG2D_STORE with doStore = T
 Calling CG2D_STORE with ikey_dynamics =    2
 cg2d: Sum(rhs),rhsMax =  -5.50670620214078E-14  8.15854450345303E+00
 Calling CG2D_STORE with doStore = T
 Calling CG2D_STORE with ikey_dynamics =    3
(PID.TID 0000.0001) // =======================================================
(PID.TID 0000.0001) // Begin AD_MONITOR dynamic field statistics
(PID.TID 0000.0001) // =======================================================
(PID.TID 0000.0001) %MON ad_time_tsnumber             =                     9
(PID.TID 0000.0001) %MON ad_time_secondsf             =   3.8880000000000E+05
(PID.TID 0000.0001) %MON ad_dynstat_adeta_max         =   6.9059411313167E-05
(PID.TID 0000.0001) %MON ad_dynstat_adeta_min         =  -5.7280425340053E-05
(PID.TID 0000.0001) %MON ad_dynstat_adeta_mean        =   5.4068167753259E-10
(PID.TID 0000.0001) %MON ad_dynstat_adeta_sd          =   2.7433839312673E-06
(PID.TID 0000.0001) %MON ad_dynstat_adeta_del2        =   8.0317963935171E-08
(PID.TID 0000.0001) %MON ad_dynstat_aduvel_max        =   6.5740349288389E-04
(PID.TID 0000.0001) %MON ad_dynstat_aduvel_min        =  -1.3521232320320E-04
(PID.TID 0000.0001) %MON ad_dynstat_aduvel_mean       =   3.3828302624777E-07
(PID.TID 0000.0001) %MON ad_dynstat_aduvel_sd         =   1.1952055611281E-05
(PID.TID 0000.0001) %MON ad_dynstat_aduvel_del2       =   8.0943477091909E-08
(PID.TID 0000.0001) %MON ad_dynstat_advvel_max        =   1.0028501325037E-02
(PID.TID 0000.0001) %MON ad_dynstat_advvel_min        =  -2.1777871526893E-03
(PID.TID 0000.0001) %MON ad_dynstat_advvel_mean       =   5.8217690719023E-05
(PID.TID 0000.0001) %MON ad_dynstat_advvel_sd         =   5.1537248126629E-04
(PID.TID 0000.0001) %MON ad_dynstat_advvel_del2       =   6.8481915378782E-06
(PID.TID 0000.0001) %MON ad_dynstat_adwvel_max        =   1.6642123994398E-04
(PID.TID 0000.0001) %MON ad_dynstat_adwvel_min        =  -3.1977605160147E-04
(PID.TID 0000.0001) %MON ad_dynstat_adwvel_mean       =   2.0884700798680E-07
(PID.TID 0000.0001) %MON ad_dynstat_adwvel_sd         =   5.8012789802427E-06
(PID.TID 0000.0001) %MON ad_dynstat_adwvel_del2       =   6.9747208657098E-08
(PID.TID 0000.0001) %MON ad_dynstat_adtheta_max       =   1.4099061351979E-05
(PID.TID 0000.0001) %MON ad_dynstat_adtheta_min       =  -2.0592099351819E-05
(PID.TID 0000.0001) %MON ad_dynstat_adtheta_mean      =  -4.3485896003495E-08
(PID.TID 0000.0001) %MON ad_dynstat_adtheta_sd        =   1.1332001933710E-06
(PID.TID 0000.0001) %MON ad_dynstat_adtheta_del2      =   1.7338978524527E-08
(PID.TID 0000.0001) %MON ad_dynstat_adsalt_max        =   5.5013697166949E-05
(PID.TID 0000.0001) %MON ad_dynstat_adsalt_min        =  -5.3038374052639E-05
(PID.TID 0000.0001) %MON ad_dynstat_adsalt_mean       =   2.2323222988604E-08
(PID.TID 0000.0001) %MON ad_dynstat_adsalt_sd         =   4.2216760545609E-06
(PID.TID 0000.0001) %MON ad_dynstat_adsalt_del2       =   6.0846185694723E-08
(PID.TID 0000.0001) %MON ad_forcing_adqnet_max        =   0.0000000000000E+00
(PID.TID 0000.0001) %MON ad_forcing_adqnet_min        =   0.0000000000000E+00
(PID.TID 0000.0001) %MON ad_forcing_adqnet_mean       =   0.0000000000000E+00
(PID.TID 0000.0001) %MON ad_forcing_adqnet_sd         =   0.0000000000000E+00
(PID.TID 0000.0001) %MON ad_forcing_adqnet_del2       =   0.0000000000000E+00
(PID.TID 0000.0001) %MON ad_forcing_adempmr_max       =   8.1365194268497E-04
(PID.TID 0000.0001) %MON ad_forcing_adempmr_min       =  -7.9223927408862E-04
(PID.TID 0000.0001) %MON ad_forcing_adempmr_mean      =  -3.8139824969493E-07
(PID.TID 0000.0001) %MON ad_forcing_adempmr_sd        =   9.2021004100700E-05
(PID.TID 0000.0001) %MON ad_forcing_adempmr_del2      =   4.8978860458862E-06
(PID.TID 0000.0001) %MON ad_forcing_adfu_max          =   0.0000000000000E+00
(PID.TID 0000.0001) %MON ad_forcing_adfu_min          =   0.0000000000000E+00
(PID.TID 0000.0001) %MON ad_forcing_adfu_mean         =   0.0000000000000E+00
(PID.TID 0000.0001) %MON ad_forcing_adfu_sd           =   0.0000000000000E+00
(PID.TID 0000.0001) %MON ad_forcing_adfu_del2         =   0.0000000000000E+00
(PID.TID 0000.0001) %MON ad_forcing_adfv_max          =   0.0000000000000E+00
(PID.TID 0000.0001) %MON ad_forcing_adfv_min          =   0.0000000000000E+00
(PID.TID 0000.0001) %MON ad_forcing_adfv_mean         =   0.0000000000000E+00
(PID.TID 0000.0001) %MON ad_forcing_adfv_sd           =   0.0000000000000E+00
(PID.TID 0000.0001) %MON ad_forcing_adfv_del2         =   0.0000000000000E+00
(PID.TID 0000.0001) // =======================================================
(PID.TID 0000.0001) // End AD_MONITOR dynamic field statistics
(PID.TID 0000.0001) // =======================================================
 Calling cg2d from S/R CG2D_MAD
 cg2d: Sum(rhs),rhsMax =  -1.02564170264413E-15  9.22744712341934E-09
 Calling CG2D_STORE with doStore = F
 Calling CG2D_STORE with ikey_dynamics =    3
(PID.TID 0000.0001) // =======================================================
(PID.TID 0000.0001) // Begin AD_MONITOR dynamic field statistics
(PID.TID 0000.0001) // =======================================================
(PID.TID 0000.0001) %MON ad_time_tsnumber             =                     8
(PID.TID 0000.0001) %MON ad_time_secondsf             =   3.4560000000000E+05
(PID.TID 0000.0001) %MON ad_dynstat_adeta_max         =   1.6551794828246E-04
(PID.TID 0000.0001) %MON ad_dynstat_adeta_min         =  -1.3358106336791E-04
(PID.TID 0000.0001) %MON ad_dynstat_adeta_mean        =   2.4440587844758E-09
(PID.TID 0000.0001) %MON ad_dynstat_adeta_sd          =   6.6224209278337E-06
(PID.TID 0000.0001) %MON ad_dynstat_adeta_del2        =   2.0360239641180E-07
(PID.TID 0000.0001) %MON ad_dynstat_aduvel_max        =   1.7536487023645E-03
(PID.TID 0000.0001) %MON ad_dynstat_aduvel_min        =  -5.0565872979778E-04
(PID.TID 0000.0001) %MON ad_dynstat_aduvel_mean       =   1.2088012820674E-06
(PID.TID 0000.0001) %MON ad_dynstat_aduvel_sd         =   3.6621332683873E-05
(PID.TID 0000.0001) %MON ad_dynstat_aduvel_del2       =   2.6295459674633E-07
(PID.TID 0000.0001) %MON ad_dynstat_advvel_max        =   1.3954132992362E-02
(PID.TID 0000.0001) %MON ad_dynstat_advvel_min        =  -6.6204741239784E-03
(PID.TID 0000.0001) %MON ad_dynstat_advvel_mean       =   8.2837029936099E-05
(PID.TID 0000.0001) %MON ad_dynstat_advvel_sd         =   6.5274341318311E-04
(PID.TID 0000.0001) %MON ad_dynstat_advvel_del2       =   8.5795095347341E-06
(PID.TID 0000.0001) %MON ad_dynstat_adwvel_max        =   2.2059168529723E-04
(PID.TID 0000.0001) %MON ad_dynstat_adwvel_min        =  -4.5423005563567E-04
(PID.TID 0000.0001) %MON ad_dynstat_adwvel_mean       =   2.3073075664249E-07
(PID.TID 0000.0001) %MON ad_dynstat_adwvel_sd         =   7.6723147760935E-06
(PID.TID 0000.0001) %MON ad_dynstat_adwvel_del2       =   9.3818061271664E-08
(PID.TID 0000.0001) %MON ad_dynstat_adtheta_max       =   4.6643600556398E-05
(PID.TID 0000.0001) %MON ad_dynstat_adtheta_min       =  -4.0988592360468E-05
(PID.TID 0000.0001) %MON ad_dynstat_adtheta_mean      =  -7.0305331274923E-08
(PID.TID 0000.0001) %MON ad_dynstat_adtheta_sd        =   3.8529355927900E-06
(PID.TID 0000.0001) %MON ad_dynstat_adtheta_del2      =   5.5203508749055E-08
(PID.TID 0000.0001) %MON ad_dynstat_adsalt_max        =   1.8120558176457E-04
(PID.TID 0000.0001) %MON ad_dynstat_adsalt_min        =  -1.9010681898793E-04
(PID.TID 0000.0001) %MON ad_dynstat_adsalt_mean       =   6.0382482694212E-08
(PID.TID 0000.0001) %MON ad_dynstat_adsalt_sd         =   1.6970654382158E-05
(PID.TID 0000.0001) %MON ad_dynstat_adsalt_del2       =   2.4220414046608E-07
(PID.TID 0000.0001) %MON ad_forcing_adqnet_max        =   0.0000000000000E+00
(PID.TID 0000.0001) %MON ad_forcing_adqnet_min        =   0.0000000000000E+00
(PID.TID 0000.0001) %MON ad_forcing_adqnet_mean       =   0.0000000000000E+00
(PID.TID 0000.0001) %MON ad_forcing_adqnet_sd         =   0.0000000000000E+00
(PID.TID 0000.0001) %MON ad_forcing_adqnet_del2       =   0.0000000000000E+00
(PID.TID 0000.0001) %MON ad_forcing_adempmr_max       =   2.0091006101741E-03
(PID.TID 0000.0001) %MON ad_forcing_adempmr_min       =  -1.8095051107666E-03
(PID.TID 0000.0001) %MON ad_forcing_adempmr_mean      =  -8.3331382065184E-07
(PID.TID 0000.0001) %MON ad_forcing_adempmr_sd        =   2.0047845419983E-04
(PID.TID 0000.0001) %MON ad_forcing_adempmr_del2      =   9.7526156375386E-06
(PID.TID 0000.0001) %MON ad_forcing_adfu_max          =   0.0000000000000E+00
(PID.TID 0000.0001) %MON ad_forcing_adfu_min          =   0.0000000000000E+00
(PID.TID 0000.0001) %MON ad_forcing_adfu_mean         =   0.0000000000000E+00
(PID.TID 0000.0001) %MON ad_forcing_adfu_sd           =   0.0000000000000E+00
(PID.TID 0000.0001) %MON ad_forcing_adfu_del2         =   0.0000000000000E+00
(PID.TID 0000.0001) %MON ad_forcing_adfv_max          =   0.0000000000000E+00
(PID.TID 0000.0001) %MON ad_forcing_adfv_min          =   0.0000000000000E+00
(PID.TID 0000.0001) %MON ad_forcing_adfv_mean         =   0.0000000000000E+00
(PID.TID 0000.0001) %MON ad_forcing_adfv_sd           =   0.0000000000000E+00
(PID.TID 0000.0001) %MON ad_forcing_adfv_del2         =   0.0000000000000E+00
(PID.TID 0000.0001) // =======================================================
(PID.TID 0000.0001) // End AD_MONITOR dynamic field statistics
(PID.TID 0000.0001) // =======================================================
 Calling cg2d from S/R CG2D_MAD
 cg2d: Sum(rhs),rhsMax =  -7.48316339449495E-16  8.78944878319405E-09
 Calling CG2D_STORE with doStore = F
 Calling CG2D_STORE with ikey_dynamics =    2
(PID.TID 0000.0001) // =======================================================
(PID.TID 0000.0001) // Begin AD_MONITOR dynamic field statistics
(PID.TID 0000.0001) // =======================================================
(PID.TID 0000.0001) %MON ad_time_tsnumber             =                     7
(PID.TID 0000.0001) %MON ad_time_secondsf             =   3.0240000000000E+05
(PID.TID 0000.0001) %MON ad_dynstat_adeta_max         =   2.7886416242934E-04
(PID.TID 0000.0001) %MON ad_dynstat_adeta_min         =  -2.1991015281418E-04
(PID.TID 0000.0001) %MON ad_dynstat_adeta_mean        =   6.6978048334022E-09
(PID.TID 0000.0001) %MON ad_dynstat_adeta_sd          =   1.1437987965663E-05
(PID.TID 0000.0001) %MON ad_dynstat_adeta_del2        =   3.7538830875107E-07
(PID.TID 0000.0001) %MON ad_dynstat_aduvel_max        =   2.7803903318530E-03
(PID.TID 0000.0001) %MON ad_dynstat_aduvel_min        =  -1.0328051064796E-03
(PID.TID 0000.0001) %MON ad_dynstat_aduvel_mean       =   2.7144688739912E-06
(PID.TID 0000.0001) %MON ad_dynstat_aduvel_sd         =   7.2707418292113E-05
(PID.TID 0000.0001) %MON ad_dynstat_aduvel_del2       =   5.5969013460825E-07
(PID.TID 0000.0001) %MON ad_dynstat_advvel_max        =   1.7336590994387E-02
(PID.TID 0000.0001) %MON ad_dynstat_advvel_min        =  -1.2323407097197E-02
(PID.TID 0000.0001) %MON ad_dynstat_advvel_mean       =   1.0282232114918E-04
(PID.TID 0000.0001) %MON ad_dynstat_advvel_sd         =   8.1049941063362E-04
(PID.TID 0000.0001) %MON ad_dynstat_advvel_del2       =   1.0532175254771E-05
(PID.TID 0000.0001) %MON ad_dynstat_adwvel_max        =   2.5374595904114E-04
(PID.TID 0000.0001) %MON ad_dynstat_adwvel_min        =  -5.4429727237062E-04
(PID.TID 0000.0001) %MON ad_dynstat_adwvel_mean       =   2.1690179400683E-07
(PID.TID 0000.0001) %MON ad_dynstat_adwvel_sd         =   8.7826950354057E-06
(PID.TID 0000.0001) %MON ad_dynstat_adwvel_del2       =   1.0937450537006E-07
(PID.TID 0000.0001) %MON ad_dynstat_adtheta_max       =   1.1414821694434E-04
(PID.TID 0000.0001) %MON ad_dynstat_adtheta_min       =  -1.0961546099372E-04
(PID.TID 0000.0001) %MON ad_dynstat_adtheta_mean      =  -9.8927274861240E-08
(PID.TID 0000.0001) %MON ad_dynstat_adtheta_sd        =   9.8717222362799E-06
(PID.TID 0000.0001) %MON ad_dynstat_adtheta_del2      =   1.4241263201071E-07
(PID.TID 0000.0001) %MON ad_dynstat_adsalt_max        =   4.9757596443262E-04
(PID.TID 0000.0001) %MON ad_dynstat_adsalt_min        =  -5.1821769106841E-04
(PID.TID 0000.0001) %MON ad_dynstat_adsalt_mean       =   1.0684378006250E-07
(PID.TID 0000.0001) %MON ad_dynstat_adsalt_sd         =   4.5260428993924E-05
(PID.TID 0000.0001) %MON ad_dynstat_adsalt_del2       =   6.5857586316347E-07
(PID.TID 0000.0001) %MON ad_forcing_adqnet_max        =   0.0000000000000E+00
(PID.TID 0000.0001) %MON ad_forcing_adqnet_min        =   0.0000000000000E+00
(PID.TID 0000.0001) %MON ad_forcing_adqnet_mean       =   0.0000000000000E+00
(PID.TID 0000.0001) %MON ad_forcing_adqnet_sd         =   0.0000000000000E+00
(PID.TID 0000.0001) %MON ad_forcing_adqnet_del2       =   0.0000000000000E+00
(PID.TID 0000.0001) %MON ad_forcing_adempmr_max       =   3.1711628318278E-03
(PID.TID 0000.0001) %MON ad_forcing_adempmr_min       =  -2.7135841825131E-03
(PID.TID 0000.0001) %MON ad_forcing_adempmr_mean      =  -1.2008800409431E-06
(PID.TID 0000.0001) %MON ad_forcing_adempmr_sd        =   2.9142721514966E-04
(PID.TID 0000.0001) %MON ad_forcing_adempmr_del2      =   1.2720130859585E-05
(PID.TID 0000.0001) %MON ad_forcing_adfu_max          =   0.0000000000000E+00
(PID.TID 0000.0001) %MON ad_forcing_adfu_min          =   0.0000000000000E+00
(PID.TID 0000.0001) %MON ad_forcing_adfu_mean         =   0.0000000000000E+00
(PID.TID 0000.0001) %MON ad_forcing_adfu_sd           =   0.0000000000000E+00
(PID.TID 0000.0001) %MON ad_forcing_adfu_del2         =   0.0000000000000E+00
(PID.TID 0000.0001) %MON ad_forcing_adfv_max          =   0.0000000000000E+00
(PID.TID 0000.0001) %MON ad_forcing_adfv_min          =   0.0000000000000E+00
(PID.TID 0000.0001) %MON ad_forcing_adfv_mean         =   0.0000000000000E+00
(PID.TID 0000.0001) %MON ad_forcing_adfv_sd           =   0.0000000000000E+00
(PID.TID 0000.0001) %MON ad_forcing_adfv_del2         =   0.0000000000000E+00
(PID.TID 0000.0001) // =======================================================
(PID.TID 0000.0001) // End AD_MONITOR dynamic field statistics
(PID.TID 0000.0001) // =======================================================
 Calling cg2d from S/R CG2D_MAD
 cg2d: Sum(rhs),rhsMax =  -5.40192890419178E-15  5.57718053538893E-09
 Calling CG2D_STORE with doStore = F
 Calling CG2D_STORE with ikey_dynamics =    1
 EXTERNAL_FIELDS_LOAD, it=         3 : Reading new data, i0,i1=   12    1 (prev=   12    0 )
 cg2d: Sum(rhs),rhsMax =  -5.32907051820075E-15  6.83789717252028E+00
 Calling CG2D_STORE with doStore = T
 Calling CG2D_STORE with ikey_dynamics =    1
 cg2d: Sum(rhs),rhsMax =  -4.08562073062058E-14  6.94384100142540E+00
 Calling CG2D_STORE with doStore = T
 Calling CG2D_STORE with ikey_dynamics =    2
 cg2d: Sum(rhs),rhsMax =  -8.26005930321116E-14  6.90180622751866E+00
 Calling CG2D_STORE with doStore = T
 Calling CG2D_STORE with ikey_dynamics =    3
(PID.TID 0000.0001) // =======================================================
(PID.TID 0000.0001) // Begin AD_MONITOR dynamic field statistics
(PID.TID 0000.0001) // =======================================================
(PID.TID 0000.0001) %MON ad_time_tsnumber             =                     6
(PID.TID 0000.0001) %MON ad_time_secondsf             =   2.5920000000000E+05
(PID.TID 0000.0001) %MON ad_dynstat_adeta_max         =   4.0110573194288E-04
(PID.TID 0000.0001) %MON ad_dynstat_adeta_min         =  -3.1186077606995E-04
(PID.TID 0000.0001) %MON ad_dynstat_adeta_mean        =   1.4348231688990E-08
(PID.TID 0000.0001) %MON ad_dynstat_adeta_sd          =   1.7117829333382E-05
(PID.TID 0000.0001) %MON ad_dynstat_adeta_del2        =   5.9825370339924E-07
(PID.TID 0000.0001) %MON ad_dynstat_aduvel_max        =   4.1317346033996E-03
(PID.TID 0000.0001) %MON ad_dynstat_aduvel_min        =  -1.5025749243367E-03
(PID.TID 0000.0001) %MON ad_dynstat_aduvel_mean       =   4.9564558781622E-06
(PID.TID 0000.0001) %MON ad_dynstat_aduvel_sd         =   1.1812199356247E-04
(PID.TID 0000.0001) %MON ad_dynstat_aduvel_del2       =   9.3493743191194E-07
(PID.TID 0000.0001) %MON ad_dynstat_advvel_max        =   2.0444927991987E-02
(PID.TID 0000.0001) %MON ad_dynstat_advvel_min        =  -1.8291346755565E-02
(PID.TID 0000.0001) %MON ad_dynstat_advvel_mean       =   1.1787911665147E-04
(PID.TID 0000.0001) %MON ad_dynstat_advvel_sd         =   1.0035026362539E-03
(PID.TID 0000.0001) %MON ad_dynstat_advvel_del2       =   1.2855012590105E-05
(PID.TID 0000.0001) %MON ad_dynstat_adwvel_max        =   2.6876095924045E-04
(PID.TID 0000.0001) %MON ad_dynstat_adwvel_min        =  -5.9356842267463E-04
(PID.TID 0000.0001) %MON ad_dynstat_adwvel_mean       =   1.9556596737253E-07
(PID.TID 0000.0001) %MON ad_dynstat_adwvel_sd         =   9.3220363137086E-06
(PID.TID 0000.0001) %MON ad_dynstat_adwvel_del2       =   1.1827835943243E-07
(PID.TID 0000.0001) %MON ad_dynstat_adtheta_max       =   2.1648160939941E-04
(PID.TID 0000.0001) %MON ad_dynstat_adtheta_min       =  -2.1257680785493E-04
(PID.TID 0000.0001) %MON ad_dynstat_adtheta_mean      =  -1.2722650627755E-07
(PID.TID 0000.0001) %MON ad_dynstat_adtheta_sd        =   1.9231789515375E-05
(PID.TID 0000.0001) %MON ad_dynstat_adtheta_del2      =   2.7857922618154E-07
(PID.TID 0000.0001) %MON ad_dynstat_adsalt_max        =   9.9551875009916E-04
(PID.TID 0000.0001) %MON ad_dynstat_adsalt_min        =  -1.0212850864971E-03
(PID.TID 0000.0001) %MON ad_dynstat_adsalt_mean       =   1.5437959281814E-07
(PID.TID 0000.0001) %MON ad_dynstat_adsalt_sd         =   8.8983911563463E-05
(PID.TID 0000.0001) %MON ad_dynstat_adsalt_del2       =   1.2956485635341E-06
(PID.TID 0000.0001) %MON ad_forcing_adqnet_max        =   0.0000000000000E+00
(PID.TID 0000.0001) %MON ad_forcing_adqnet_min        =   0.0000000000000E+00
(PID.TID 0000.0001) %MON ad_forcing_adqnet_mean       =   0.0000000000000E+00
(PID.TID 0000.0001) %MON ad_forcing_adqnet_sd         =   0.0000000000000E+00
(PID.TID 0000.0001) %MON ad_forcing_adqnet_del2       =   0.0000000000000E+00
(PID.TID 0000.0001) %MON ad_forcing_adempmr_max       =   4.0484442367411E-03
(PID.TID 0000.0001) %MON ad_forcing_adempmr_min       =  -3.2778339931742E-03
(PID.TID 0000.0001) %MON ad_forcing_adempmr_mean      =  -1.4555688684256E-06
(PID.TID 0000.0001) %MON ad_forcing_adempmr_sd        =   3.6349914367948E-04
(PID.TID 0000.0001) %MON ad_forcing_adempmr_del2      =   1.4354020343445E-05
(PID.TID 0000.0001) %MON ad_forcing_adfu_max          =   0.0000000000000E+00
(PID.TID 0000.0001) %MON ad_forcing_adfu_min          =   0.0000000000000E+00
(PID.TID 0000.0001) %MON ad_forcing_adfu_mean         =   0.0000000000000E+00
(PID.TID 0000.0001) %MON ad_forcing_adfu_sd           =   0.0000000000000E+00
(PID.TID 0000.0001) %MON ad_forcing_adfu_del2         =   0.0000000000000E+00
(PID.TID 0000.0001) %MON ad_forcing_adfv_max          =   0.0000000000000E+00
(PID.TID 0000.0001) %MON ad_forcing_adfv_min          =   0.0000000000000E+00
(PID.TID 0000.0001) %MON ad_forcing_adfv_mean         =   0.0000000000000E+00
(PID.TID 0000.0001) %MON ad_forcing_adfv_sd           =   0.0000000000000E+00
(PID.TID 0000.0001) %MON ad_forcing_adfv_del2         =   0.0000000000000E+00
(PID.TID 0000.0001) // =======================================================
(PID.TID 0000.0001) // End AD_MONITOR dynamic field statistics
(PID.TID 0000.0001) // =======================================================
 Calling cg2d from S/R CG2D_MAD
 cg2d: Sum(rhs),rhsMax =   1.00683350545694E-14  3.72352839616250E-09
 Calling CG2D_STORE with doStore = F
 Calling CG2D_STORE with ikey_dynamics =    3
(PID.TID 0000.0001) // =======================================================
(PID.TID 0000.0001) // Begin AD_MONITOR dynamic field statistics
(PID.TID 0000.0001) // =======================================================
(PID.TID 0000.0001) %MON ad_time_tsnumber             =                     5
(PID.TID 0000.0001) %MON ad_time_secondsf             =   2.1600000000000E+05
(PID.TID 0000.0001) %MON ad_dynstat_adeta_max         =   5.2711878287758E-04
(PID.TID 0000.0001) %MON ad_dynstat_adeta_min         =  -4.0902991565363E-04
(PID.TID 0000.0001) %MON ad_dynstat_adeta_mean        =   2.6391788020730E-08
(PID.TID 0000.0001) %MON ad_dynstat_adeta_sd          =   2.3645765253909E-05
(PID.TID 0000.0001) %MON ad_dynstat_adeta_del2        =   8.7089700529175E-07
(PID.TID 0000.0001) %MON ad_dynstat_aduvel_max        =   6.4996309867570E-03
(PID.TID 0000.0001) %MON ad_dynstat_aduvel_min        =  -1.8033768020082E-03
(PID.TID 0000.0001) %MON ad_dynstat_aduvel_mean       =   8.0264667657020E-06
(PID.TID 0000.0001) %MON ad_dynstat_aduvel_sd         =   1.6826147527274E-04
(PID.TID 0000.0001) %MON ad_dynstat_aduvel_del2       =   1.3143780057695E-06
(PID.TID 0000.0001) %MON ad_dynstat_advvel_max        =   2.3365106321553E-02
(PID.TID 0000.0001) %MON ad_dynstat_advvel_min        =  -2.3986649945155E-02
(PID.TID 0000.0001) %MON ad_dynstat_advvel_mean       =   1.2831296325948E-04
(PID.TID 0000.0001) %MON ad_dynstat_advvel_sd         =   1.2063883993688E-03
(PID.TID 0000.0001) %MON ad_dynstat_advvel_del2       =   1.5209640679065E-05
(PID.TID 0000.0001) %MON ad_dynstat_adwvel_max        =   2.6882939166141E-04
(PID.TID 0000.0001) %MON ad_dynstat_adwvel_min        =  -6.0226560033133E-04
(PID.TID 0000.0001) %MON ad_dynstat_adwvel_mean       =   1.7780352781506E-07
(PID.TID 0000.0001) %MON ad_dynstat_adwvel_sd         =   9.2969345564872E-06
(PID.TID 0000.0001) %MON ad_dynstat_adwvel_del2       =   1.2031681480771E-07
(PID.TID 0000.0001) %MON ad_dynstat_adtheta_max       =   3.4692846546685E-04
(PID.TID 0000.0001) %MON ad_dynstat_adtheta_min       =  -3.5887236570381E-04
(PID.TID 0000.0001) %MON ad_dynstat_adtheta_mean      =  -1.5229128691832E-07
(PID.TID 0000.0001) %MON ad_dynstat_adtheta_sd        =   3.1384191275324E-05
(PID.TID 0000.0001) %MON ad_dynstat_adtheta_del2      =   4.5267163667292E-07
(PID.TID 0000.0001) %MON ad_dynstat_adsalt_max        =   1.7384886337243E-03
(PID.TID 0000.0001) %MON ad_dynstat_adsalt_min        =  -1.6622997074570E-03
(PID.TID 0000.0001) %MON ad_dynstat_adsalt_mean       =   1.9628580665613E-07
(PID.TID 0000.0001) %MON ad_dynstat_adsalt_sd         =   1.4558758388848E-04
(PID.TID 0000.0001) %MON ad_dynstat_adsalt_del2       =   2.1042277501590E-06
(PID.TID 0000.0001) %MON ad_forcing_adqnet_max        =   0.0000000000000E+00
(PID.TID 0000.0001) %MON ad_forcing_adqnet_min        =   0.0000000000000E+00
(PID.TID 0000.0001) %MON ad_forcing_adqnet_mean       =   0.0000000000000E+00
(PID.TID 0000.0001) %MON ad_forcing_adqnet_sd         =   0.0000000000000E+00
(PID.TID 0000.0001) %MON ad_forcing_adqnet_del2       =   0.0000000000000E+00
(PID.TID 0000.0001) %MON ad_forcing_adempmr_max       =   4.6032219377354E-03
(PID.TID 0000.0001) %MON ad_forcing_adempmr_min       =  -3.5253892642449E-03
(PID.TID 0000.0001) %MON ad_forcing_adempmr_mean      =  -1.5900241200054E-06
(PID.TID 0000.0001) %MON ad_forcing_adempmr_sd        =   4.2776286554350E-04
(PID.TID 0000.0001) %MON ad_forcing_adempmr_del2      =   1.6041122431684E-05
(PID.TID 0000.0001) %MON ad_forcing_adfu_max          =   0.0000000000000E+00
(PID.TID 0000.0001) %MON ad_forcing_adfu_min          =   0.0000000000000E+00
(PID.TID 0000.0001) %MON ad_forcing_adfu_mean         =   0.0000000000000E+00
(PID.TID 0000.0001) %MON ad_forcing_adfu_sd           =   0.0000000000000E+00
(PID.TID 0000.0001) %MON ad_forcing_adfu_del2         =   0.0000000000000E+00
(PID.TID 0000.0001) %MON ad_forcing_adfv_max          =   0.0000000000000E+00
(PID.TID 0000.0001) %MON ad_forcing_adfv_min          =   0.0000000000000E+00
(PID.TID 0000.0001) %MON ad_forcing_adfv_mean         =   0.0000000000000E+00
(PID.TID 0000.0001) %MON ad_forcing_adfv_sd           =   0.0000000000000E+00
(PID.TID 0000.0001) %MON ad_forcing_adfv_del2         =   0.0000000000000E+00
(PID.TID 0000.0001) // =======================================================
(PID.TID 0000.0001) // End AD_MONITOR dynamic field statistics
(PID.TID 0000.0001) // =======================================================
 Calling cg2d from S/R CG2D_MAD
 cg2d: Sum(rhs),rhsMax =  -5.39845945723982E-15  5.87902925761739E-09
 Calling CG2D_STORE with doStore = F
 Calling CG2D_STORE with ikey_dynamics =    2
(PID.TID 0000.0001) // =======================================================
(PID.TID 0000.0001) // Begin AD_MONITOR dynamic field statistics
(PID.TID 0000.0001) // =======================================================
(PID.TID 0000.0001) %MON ad_time_tsnumber             =                     4
(PID.TID 0000.0001) %MON ad_time_secondsf             =   1.7280000000000E+05
(PID.TID 0000.0001) %MON ad_dynstat_adeta_max         =   6.5431402022287E-04
(PID.TID 0000.0001) %MON ad_dynstat_adeta_min         =  -5.1338907291745E-04
(PID.TID 0000.0001) %MON ad_dynstat_adeta_mean        =   4.3687349782748E-08
(PID.TID 0000.0001) %MON ad_dynstat_adeta_sd          =   3.1005736986096E-05
(PID.TID 0000.0001) %MON ad_dynstat_adeta_del2        =   1.1902076716568E-06
(PID.TID 0000.0001) %MON ad_dynstat_aduvel_max        =   8.7888472451880E-03
(PID.TID 0000.0001) %MON ad_dynstat_aduvel_min        =  -2.3191329227338E-03
(PID.TID 0000.0001) %MON ad_dynstat_aduvel_mean       =   1.1951446176051E-05
(PID.TID 0000.0001) %MON ad_dynstat_aduvel_sd         =   2.1727568463476E-04
(PID.TID 0000.0001) %MON ad_dynstat_aduvel_del2       =   1.6361900432735E-06
(PID.TID 0000.0001) %MON ad_dynstat_advvel_max        =   2.6085405447342E-02
(PID.TID 0000.0001) %MON ad_dynstat_advvel_min        =  -2.9266487040693E-02
(PID.TID 0000.0001) %MON ad_dynstat_advvel_mean       =   1.3470138104792E-04
(PID.TID 0000.0001) %MON ad_dynstat_advvel_sd         =   1.4011330875548E-03
(PID.TID 0000.0001) %MON ad_dynstat_advvel_del2       =   1.7386653261700E-05
(PID.TID 0000.0001) %MON ad_dynstat_adwvel_max        =   2.5081319628886E-04
(PID.TID 0000.0001) %MON ad_dynstat_adwvel_min        =  -5.6860457511197E-04
(PID.TID 0000.0001) %MON ad_dynstat_adwvel_mean       =   1.6162073069782E-07
(PID.TID 0000.0001) %MON ad_dynstat_adwvel_sd         =   8.6603544030193E-06
(PID.TID 0000.0001) %MON ad_dynstat_adwvel_del2       =   1.1453334334399E-07
(PID.TID 0000.0001) %MON ad_dynstat_adtheta_max       =   5.0019905330357E-04
(PID.TID 0000.0001) %MON ad_dynstat_adtheta_min       =  -5.4625102838548E-04
(PID.TID 0000.0001) %MON ad_dynstat_adtheta_mean      =  -1.7099385145121E-07
(PID.TID 0000.0001) %MON ad_dynstat_adtheta_sd        =   4.5790981757445E-05
(PID.TID 0000.0001) %MON ad_dynstat_adtheta_del2      =   6.5523764913745E-07
(PID.TID 0000.0001) %MON ad_dynstat_adsalt_max        =   2.6645453102292E-03
(PID.TID 0000.0001) %MON ad_dynstat_adsalt_min        =  -2.4213624608862E-03
(PID.TID 0000.0001) %MON ad_dynstat_adsalt_mean       =   2.2692548488701E-07
(PID.TID 0000.0001) %MON ad_dynstat_adsalt_sd         =   2.1258908391905E-04
(PID.TID 0000.0001) %MON ad_dynstat_adsalt_del2       =   3.0427903889898E-06
(PID.TID 0000.0001) %MON ad_forcing_adqnet_max        =   0.0000000000000E+00
(PID.TID 0000.0001) %MON ad_forcing_adqnet_min        =   0.0000000000000E+00
(PID.TID 0000.0001) %MON ad_forcing_adqnet_mean       =   0.0000000000000E+00
(PID.TID 0000.0001) %MON ad_forcing_adqnet_sd         =   0.0000000000000E+00
(PID.TID 0000.0001) %MON ad_forcing_adqnet_del2       =   0.0000000000000E+00
(PID.TID 0000.0001) %MON ad_forcing_adempmr_max       =   4.9608184667690E-03
(PID.TID 0000.0001) %MON ad_forcing_adempmr_min       =  -3.8469572589792E-03
(PID.TID 0000.0001) %MON ad_forcing_adempmr_mean      =  -1.7698346161094E-06
(PID.TID 0000.0001) %MON ad_forcing_adempmr_sd        =   4.9898872308439E-04
(PID.TID 0000.0001) %MON ad_forcing_adempmr_del2      =   1.9230030445877E-05
(PID.TID 0000.0001) %MON ad_forcing_adfu_max          =   0.0000000000000E+00
(PID.TID 0000.0001) %MON ad_forcing_adfu_min          =   0.0000000000000E+00
(PID.TID 0000.0001) %MON ad_forcing_adfu_mean         =   0.0000000000000E+00
(PID.TID 0000.0001) %MON ad_forcing_adfu_sd           =   0.0000000000000E+00
(PID.TID 0000.0001) %MON ad_forcing_adfu_del2         =   0.0000000000000E+00
(PID.TID 0000.0001) %MON ad_forcing_adfv_max          =   0.0000000000000E+00
(PID.TID 0000.0001) %MON ad_forcing_adfv_min          =   0.0000000000000E+00
(PID.TID 0000.0001) %MON ad_forcing_adfv_mean         =   0.0000000000000E+00
(PID.TID 0000.0001) %MON ad_forcing_adfv_sd           =   0.0000000000000E+00
(PID.TID 0000.0001) %MON ad_forcing_adfv_del2         =   0.0000000000000E+00
(PID.TID 0000.0001) // =======================================================
(PID.TID 0000.0001) // End AD_MONITOR dynamic field statistics
(PID.TID 0000.0001) // =======================================================
 Calling cg2d from S/R CG2D_MAD
 cg2d: Sum(rhs),rhsMax =  -9.24260668000443E-15  7.27048602445241E-09
 Calling CG2D_STORE with doStore = F
 Calling CG2D_STORE with ikey_dynamics =    1
 EXTERNAL_FIELDS_LOAD, it=         0 : Reading new data, i0,i1=   12    1 (prev=   12    0 )
(PID.TID 0000.0001) SOLVE_FOR_PRESSURE: putPmEinXvector =    F
 cg2d: Sum(rhs),rhsMax =   1.33226762955019E-15  2.53681867617526E+00
 Calling CG2D_STORE with doStore = T
 Calling CG2D_STORE with ikey_dynamics =    1
 cg2d: Sum(rhs),rhsMax =   9.76996261670138E-15  4.94468860746549E+00
 Calling CG2D_STORE with doStore = T
 Calling CG2D_STORE with ikey_dynamics =    2
 cg2d: Sum(rhs),rhsMax =  -2.44249065417534E-15  6.31447821913423E+00
 Calling CG2D_STORE with doStore = T
 Calling CG2D_STORE with ikey_dynamics =    3
(PID.TID 0000.0001) // =======================================================
(PID.TID 0000.0001) // Begin AD_MONITOR dynamic field statistics
(PID.TID 0000.0001) // =======================================================
(PID.TID 0000.0001) %MON ad_time_tsnumber             =                     3
(PID.TID 0000.0001) %MON ad_time_secondsf             =   1.2960000000000E+05
(PID.TID 0000.0001) %MON ad_dynstat_adeta_max         =   7.8186181136365E-04
(PID.TID 0000.0001) %MON ad_dynstat_adeta_min         =  -6.2744691721140E-04
(PID.TID 0000.0001) %MON ad_dynstat_adeta_mean        =   6.6909974200618E-08
(PID.TID 0000.0001) %MON ad_dynstat_adeta_sd          =   3.9150713563587E-05
(PID.TID 0000.0001) %MON ad_dynstat_adeta_del2        =   1.5525238760922E-06
(PID.TID 0000.0001) %MON ad_dynstat_aduvel_max        =   1.0742811137698E-02
(PID.TID 0000.0001) %MON ad_dynstat_aduvel_min        =  -2.7268257021543E-03
(PID.TID 0000.0001) %MON ad_dynstat_aduvel_mean       =   1.6648182762120E-05
(PID.TID 0000.0001) %MON ad_dynstat_aduvel_sd         =   2.6062708453561E-04
(PID.TID 0000.0001) %MON ad_dynstat_aduvel_del2       =   1.8779430623187E-06
(PID.TID 0000.0001) %MON ad_dynstat_advvel_max        =   2.8568881838776E-02
(PID.TID 0000.0001) %MON ad_dynstat_advvel_min        =  -3.4151415039404E-02
(PID.TID 0000.0001) %MON ad_dynstat_advvel_mean       =   1.3762389863839E-04
(PID.TID 0000.0001) %MON ad_dynstat_advvel_sd         =   1.5814661984876E-03
(PID.TID 0000.0001) %MON ad_dynstat_advvel_del2       =   1.9327190410159E-05
(PID.TID 0000.0001) %MON ad_dynstat_adwvel_max        =   2.1384505701208E-04
(PID.TID 0000.0001) %MON ad_dynstat_adwvel_min        =  -4.9112677373841E-04
(PID.TID 0000.0001) %MON ad_dynstat_adwvel_mean       =   1.3958512686599E-07
(PID.TID 0000.0001) %MON ad_dynstat_adwvel_sd         =   7.3881549319110E-06
(PID.TID 0000.0001) %MON ad_dynstat_adwvel_del2       =   1.0007777494434E-07
(PID.TID 0000.0001) %MON ad_dynstat_adtheta_max       =   6.8398449931726E-04
(PID.TID 0000.0001) %MON ad_dynstat_adtheta_min       =  -7.6648649551872E-04
(PID.TID 0000.0001) %MON ad_dynstat_adtheta_mean      =  -1.8120680490679E-07
(PID.TID 0000.0001) %MON ad_dynstat_adtheta_sd        =   6.2088025042537E-05
(PID.TID 0000.0001) %MON ad_dynstat_adtheta_del2      =   8.8089816311239E-07
(PID.TID 0000.0001) %MON ad_dynstat_adsalt_max        =   3.7525554967675E-03
(PID.TID 0000.0001) %MON ad_dynstat_adsalt_min        =  -3.3196084643135E-03
(PID.TID 0000.0001) %MON ad_dynstat_adsalt_mean       =   2.4253034874606E-07
(PID.TID 0000.0001) %MON ad_dynstat_adsalt_sd         =   2.8830678517108E-04
(PID.TID 0000.0001) %MON ad_dynstat_adsalt_del2       =   4.0876510724118E-06
(PID.TID 0000.0001) %MON ad_forcing_adqnet_max        =   0.0000000000000E+00
(PID.TID 0000.0001) %MON ad_forcing_adqnet_min        =   0.0000000000000E+00
(PID.TID 0000.0001) %MON ad_forcing_adqnet_mean       =   0.0000000000000E+00
(PID.TID 0000.0001) %MON ad_forcing_adqnet_sd         =   0.0000000000000E+00
(PID.TID 0000.0001) %MON ad_forcing_adqnet_del2       =   0.0000000000000E+00
(PID.TID 0000.0001) %MON ad_forcing_adempmr_max       =   5.3130023870002E-03
(PID.TID 0000.0001) %MON ad_forcing_adempmr_min       =  -4.7335304970955E-03
(PID.TID 0000.0001) %MON ad_forcing_adempmr_mean      =  -1.6872195802807E-06
(PID.TID 0000.0001) %MON ad_forcing_adempmr_sd        =   5.8994378717975E-04
(PID.TID 0000.0001) %MON ad_forcing_adempmr_del2      =   2.4682694256005E-05
(PID.TID 0000.0001) %MON ad_forcing_adfu_max          =   0.0000000000000E+00
(PID.TID 0000.0001) %MON ad_forcing_adfu_min          =   0.0000000000000E+00
(PID.TID 0000.0001) %MON ad_forcing_adfu_mean         =   0.0000000000000E+00
(PID.TID 0000.0001) %MON ad_forcing_adfu_sd           =   0.0000000000000E+00
(PID.TID 0000.0001) %MON ad_forcing_adfu_del2         =   0.0000000000000E+00
(PID.TID 0000.0001) %MON ad_forcing_adfv_max          =   0.0000000000000E+00
(PID.TID 0000.0001) %MON ad_forcing_adfv_min          =   0.0000000000000E+00
(PID.TID 0000.0001) %MON ad_forcing_adfv_mean         =   0.0000000000000E+00
(PID.TID 0000.0001) %MON ad_forcing_adfv_sd           =   0.0000000000000E+00
(PID.TID 0000.0001) %MON ad_forcing_adfv_del2         =   0.0000000000000E+00
(PID.TID 0000.0001) // =======================================================
(PID.TID 0000.0001) // End AD_MONITOR dynamic field statistics
(PID.TID 0000.0001) // =======================================================
 Calling cg2d from S/R CG2D_MAD
 cg2d: Sum(rhs),rhsMax =   5.05151476204446E-15  8.25942290682932E-09
 Calling CG2D_STORE with doStore = F
 Calling CG2D_STORE with ikey_dynamics =    3
(PID.TID 0000.0001) // =======================================================
(PID.TID 0000.0001) // Begin AD_MONITOR dynamic field statistics
(PID.TID 0000.0001) // =======================================================
(PID.TID 0000.0001) %MON ad_time_tsnumber             =                     2
(PID.TID 0000.0001) %MON ad_time_secondsf             =   8.6400000000000E+04
(PID.TID 0000.0001) %MON ad_dynstat_adeta_max         =   9.0977213947496E-04
(PID.TID 0000.0001) %MON ad_dynstat_adeta_min         =  -7.5284510188976E-04
(PID.TID 0000.0001) %MON ad_dynstat_adeta_mean        =   9.6549450683893E-08
(PID.TID 0000.0001) %MON ad_dynstat_adeta_sd          =   4.7999461687780E-05
(PID.TID 0000.0001) %MON ad_dynstat_adeta_del2        =   1.9539984070436E-06
(PID.TID 0000.0001) %MON ad_dynstat_aduvel_max        =   1.2302753670333E-02
(PID.TID 0000.0001) %MON ad_dynstat_aduvel_min        =  -3.0298391063657E-03
(PID.TID 0000.0001) %MON ad_dynstat_aduvel_mean       =   2.1917825454251E-05
(PID.TID 0000.0001) %MON ad_dynstat_aduvel_sd         =   2.9656966434722E-04
(PID.TID 0000.0001) %MON ad_dynstat_aduvel_del2       =   2.0541349325053E-06
(PID.TID 0000.0001) %MON ad_dynstat_advvel_max        =   3.0779982855019E-02
(PID.TID 0000.0001) %MON ad_dynstat_advvel_min        =  -3.8658446316880E-02
(PID.TID 0000.0001) %MON ad_dynstat_advvel_mean       =   1.3753878490221E-04
(PID.TID 0000.0001) %MON ad_dynstat_advvel_sd         =   1.7456556349587E-03
(PID.TID 0000.0001) %MON ad_dynstat_advvel_del2       =   2.1019504783339E-05
(PID.TID 0000.0001) %MON ad_dynstat_adwvel_max        =   1.5850335237740E-04
(PID.TID 0000.0001) %MON ad_dynstat_adwvel_min        =  -3.6962326615650E-04
(PID.TID 0000.0001) %MON ad_dynstat_adwvel_mean       =   1.0556762457559E-07
(PID.TID 0000.0001) %MON ad_dynstat_adwvel_sd         =   5.4945279807285E-06
(PID.TID 0000.0001) %MON ad_dynstat_adwvel_del2       =   7.6404086951667E-08
(PID.TID 0000.0001) %MON ad_dynstat_adtheta_max       =   8.9315313617940E-04
(PID.TID 0000.0001) %MON ad_dynstat_adtheta_min       =  -1.0156061430691E-03
(PID.TID 0000.0001) %MON ad_dynstat_adtheta_mean      =  -1.8303246682241E-07
(PID.TID 0000.0001) %MON ad_dynstat_adtheta_sd        =   8.0039790256796E-05
(PID.TID 0000.0001) %MON ad_dynstat_adtheta_del2      =   1.1269647179276E-06
(PID.TID 0000.0001) %MON ad_dynstat_adsalt_max        =   4.9825342270860E-03
(PID.TID 0000.0001) %MON ad_dynstat_adsalt_min        =  -4.3177739176155E-03
(PID.TID 0000.0001) %MON ad_dynstat_adsalt_mean       =   2.4087376460497E-07
(PID.TID 0000.0001) %MON ad_dynstat_adsalt_sd         =   3.7165180453514E-04
(PID.TID 0000.0001) %MON ad_dynstat_adsalt_del2       =   5.2267883364770E-06
(PID.TID 0000.0001) %MON ad_forcing_adqnet_max        =   0.0000000000000E+00
(PID.TID 0000.0001) %MON ad_forcing_adqnet_min        =   0.0000000000000E+00
(PID.TID 0000.0001) %MON ad_forcing_adqnet_mean       =   0.0000000000000E+00
(PID.TID 0000.0001) %MON ad_forcing_adqnet_sd         =   0.0000000000000E+00
(PID.TID 0000.0001) %MON ad_forcing_adqnet_del2       =   0.0000000000000E+00
(PID.TID 0000.0001) %MON ad_forcing_adempmr_max       =   6.7063523536557E-03
(PID.TID 0000.0001) %MON ad_forcing_adempmr_min       =  -5.9950208477266E-03
(PID.TID 0000.0001) %MON ad_forcing_adempmr_mean      =  -1.1337414033940E-06
(PID.TID 0000.0001) %MON ad_forcing_adempmr_sd        =   7.1028426074350E-04
(PID.TID 0000.0001) %MON ad_forcing_adempmr_del2      =   3.2510650150129E-05
(PID.TID 0000.0001) %MON ad_forcing_adfu_max          =   0.0000000000000E+00
(PID.TID 0000.0001) %MON ad_forcing_adfu_min          =   0.0000000000000E+00
(PID.TID 0000.0001) %MON ad_forcing_adfu_mean         =   0.0000000000000E+00
(PID.TID 0000.0001) %MON ad_forcing_adfu_sd           =   0.0000000000000E+00
(PID.TID 0000.0001) %MON ad_forcing_adfu_del2         =   0.0000000000000E+00
(PID.TID 0000.0001) %MON ad_forcing_adfv_max          =   0.0000000000000E+00
(PID.TID 0000.0001) %MON ad_forcing_adfv_min          =   0.0000000000000E+00
(PID.TID 0000.0001) %MON ad_forcing_adfv_mean         =   0.0000000000000E+00
(PID.TID 0000.0001) %MON ad_forcing_adfv_sd           =   0.0000000000000E+00
(PID.TID 0000.0001) %MON ad_forcing_adfv_del2         =   0.0000000000000E+00
(PID.TID 0000.0001) // =======================================================
(PID.TID 0000.0001) // End AD_MONITOR dynamic field statistics
(PID.TID 0000.0001) // =======================================================
 Calling cg2d from S/R CG2D_MAD
 cg2d: Sum(rhs),rhsMax =  -4.32986979603811E-15  9.26555651473773E-09
 Calling CG2D_STORE with doStore = F
 Calling CG2D_STORE with ikey_dynamics =    2
(PID.TID 0000.0001) // =======================================================
(PID.TID 0000.0001) // Begin AD_MONITOR dynamic field statistics
(PID.TID 0000.0001) // =======================================================
(PID.TID 0000.0001) %MON ad_time_tsnumber             =                     1
(PID.TID 0000.0001) %MON ad_time_secondsf             =   4.3200000000000E+04
(PID.TID 0000.0001) %MON ad_dynstat_adeta_max         =   1.0381467916060E-03
(PID.TID 0000.0001) %MON ad_dynstat_adeta_min         =  -8.8969403944209E-04
(PID.TID 0000.0001) %MON ad_dynstat_adeta_mean        =   1.3293830053816E-07
(PID.TID 0000.0001) %MON ad_dynstat_adeta_sd          =   5.7449698323830E-05
(PID.TID 0000.0001) %MON ad_dynstat_adeta_del2        =   2.3905890678245E-06
(PID.TID 0000.0001) %MON ad_dynstat_aduvel_max        =   1.3554828433526E-02
(PID.TID 0000.0001) %MON ad_dynstat_aduvel_min        =  -3.2369463155377E-03
(PID.TID 0000.0001) %MON ad_dynstat_aduvel_mean       =   2.7479201292881E-05
(PID.TID 0000.0001) %MON ad_dynstat_aduvel_sd         =   3.2613856381106E-04
(PID.TID 0000.0001) %MON ad_dynstat_aduvel_del2       =   2.1972711504056E-06
(PID.TID 0000.0001) %MON ad_dynstat_advvel_max        =   3.2694891630846E-02
(PID.TID 0000.0001) %MON ad_dynstat_advvel_min        =  -4.2754154205614E-02
(PID.TID 0000.0001) %MON ad_dynstat_advvel_mean       =   1.3479611373245E-04
(PID.TID 0000.0001) %MON ad_dynstat_advvel_sd         =   1.8926726403944E-03
(PID.TID 0000.0001) %MON ad_dynstat_advvel_del2       =   2.2452089780802E-05
(PID.TID 0000.0001) %MON ad_dynstat_adwvel_max        =   8.6341296149985E-05
(PID.TID 0000.0001) %MON ad_dynstat_adwvel_min        =  -2.0510982176545E-04
(PID.TID 0000.0001) %MON ad_dynstat_adwvel_mean       =   5.8079679845013E-08
(PID.TID 0000.0001) %MON ad_dynstat_adwvel_sd         =   3.0175213840206E-06
(PID.TID 0000.0001) %MON ad_dynstat_adwvel_del2       =   4.3167454314600E-08
(PID.TID 0000.0001) %MON ad_dynstat_adtheta_max       =   1.1229378272469E-03
(PID.TID 0000.0001) %MON ad_dynstat_adtheta_min       =  -1.2897972751425E-03
(PID.TID 0000.0001) %MON ad_dynstat_adtheta_mean      =  -1.7939607286628E-07
(PID.TID 0000.0001) %MON ad_dynstat_adtheta_sd        =   9.9447781957202E-05
(PID.TID 0000.0001) %MON ad_dynstat_adtheta_del2      =   1.3913484210455E-06
(PID.TID 0000.0001) %MON ad_dynstat_adsalt_max        =   6.3348976448835E-03
(PID.TID 0000.0001) %MON ad_dynstat_adsalt_min        =  -5.4085640549227E-03
(PID.TID 0000.0001) %MON ad_dynstat_adsalt_mean       =   2.1986091184062E-07
(PID.TID 0000.0001) %MON ad_dynstat_adsalt_sd         =   4.6170823270674E-04
(PID.TID 0000.0001) %MON ad_dynstat_adsalt_del2       =   6.4505734414363E-06
(PID.TID 0000.0001) %MON ad_forcing_adqnet_max        =   0.0000000000000E+00
(PID.TID 0000.0001) %MON ad_forcing_adqnet_min        =   0.0000000000000E+00
(PID.TID 0000.0001) %MON ad_forcing_adqnet_mean       =   0.0000000000000E+00
(PID.TID 0000.0001) %MON ad_forcing_adqnet_sd         =   0.0000000000000E+00
(PID.TID 0000.0001) %MON ad_forcing_adqnet_del2       =   0.0000000000000E+00
(PID.TID 0000.0001) %MON ad_forcing_adempmr_max       =   8.4831336048467E-03
(PID.TID 0000.0001) %MON ad_forcing_adempmr_min       =  -7.6539896470569E-03
(PID.TID 0000.0001) %MON ad_forcing_adempmr_mean      =  -2.1092623104953E-08
(PID.TID 0000.0001) %MON ad_forcing_adempmr_sd        =   8.6332671871578E-04
(PID.TID 0000.0001) %MON ad_forcing_adempmr_del2      =   4.2384647225862E-05
(PID.TID 0000.0001) %MON ad_forcing_adfu_max          =   0.0000000000000E+00
(PID.TID 0000.0001) %MON ad_forcing_adfu_min          =   0.0000000000000E+00
(PID.TID 0000.0001) %MON ad_forcing_adfu_mean         =   0.0000000000000E+00
(PID.TID 0000.0001) %MON ad_forcing_adfu_sd           =   0.0000000000000E+00
(PID.TID 0000.0001) %MON ad_forcing_adfu_del2         =   0.0000000000000E+00
(PID.TID 0000.0001) %MON ad_forcing_adfv_max          =   0.0000000000000E+00
(PID.TID 0000.0001) %MON ad_forcing_adfv_min          =   0.0000000000000E+00
(PID.TID 0000.0001) %MON ad_forcing_adfv_mean         =   0.0000000000000E+00
(PID.TID 0000.0001) %MON ad_forcing_adfv_sd           =   0.0000000000000E+00
(PID.TID 0000.0001) %MON ad_forcing_adfv_del2         =   0.0000000000000E+00
(PID.TID 0000.0001) // =======================================================
(PID.TID 0000.0001) // End AD_MONITOR dynamic field statistics
(PID.TID 0000.0001) // =======================================================
 Calling cg2d from S/R CG2D_MAD
 cg2d: Sum(rhs),rhsMax =  -2.99760216648792E-15  1.10576460361330E-08
 Calling CG2D_STORE with doStore = F
 Calling CG2D_STORE with ikey_dynamics =    1
(PID.TID 0000.0001) Start initial hydrostatic pressure computation
(PID.TID 0000.0001) Pressure is predetermined for buoyancyRelation OCEANIC
(PID.TID 0000.0001) 
(PID.TID 0000.0001) // =======================================================
(PID.TID 0000.0001) // Begin AD_MONITOR dynamic field statistics
(PID.TID 0000.0001) // =======================================================
(PID.TID 0000.0001) %MON ad_time_tsnumber             =                     0
(PID.TID 0000.0001) %MON ad_time_secondsf             =   0.0000000000000E+00
(PID.TID 0000.0001) %MON ad_dynstat_adeta_max         =   5.1291752373355E-04
(PID.TID 0000.0001) %MON ad_dynstat_adeta_min         =  -4.6528967666418E-04
(PID.TID 0000.0001) %MON ad_dynstat_adeta_mean        =   8.4656300999877E-08
(PID.TID 0000.0001) %MON ad_dynstat_adeta_sd          =   3.0502093470363E-05
(PID.TID 0000.0001) %MON ad_dynstat_adeta_del2        =   1.3070296882678E-06
(PID.TID 0000.0001) %MON ad_dynstat_aduvel_max        =   1.4973866069575E-02
(PID.TID 0000.0001) %MON ad_dynstat_aduvel_min        =  -3.4330526534065E-03
(PID.TID 0000.0001) %MON ad_dynstat_aduvel_mean       =   3.4017883591818E-05
(PID.TID 0000.0001) %MON ad_dynstat_aduvel_sd         =   3.6034085485987E-04
(PID.TID 0000.0001) %MON ad_dynstat_aduvel_del2       =   2.3878499331569E-06
(PID.TID 0000.0001) %MON ad_dynstat_advvel_max        =   2.9698863190395E-02
(PID.TID 0000.0001) %MON ad_dynstat_advvel_min        =  -4.7426651632081E-02
(PID.TID 0000.0001) %MON ad_dynstat_advvel_mean       =   1.0254417222088E-04
(PID.TID 0000.0001) %MON ad_dynstat_advvel_sd         =   2.0721271221697E-03
(PID.TID 0000.0001) %MON ad_dynstat_advvel_del2       =   2.2522077739736E-05
(PID.TID 0000.0001) %MON ad_dynstat_adwvel_max        =   0.0000000000000E+00
(PID.TID 0000.0001) %MON ad_dynstat_adwvel_min        =   0.0000000000000E+00
(PID.TID 0000.0001) %MON ad_dynstat_adwvel_mean       =   0.0000000000000E+00
(PID.TID 0000.0001) %MON ad_dynstat_adwvel_sd         =   0.0000000000000E+00
(PID.TID 0000.0001) %MON ad_dynstat_adwvel_del2       =   0.0000000000000E+00
(PID.TID 0000.0001) %MON ad_dynstat_adtheta_max       =   1.3720881786983E-03
(PID.TID 0000.0001) %MON ad_dynstat_adtheta_min       =  -1.5854096100640E-03
(PID.TID 0000.0001) %MON ad_dynstat_adtheta_mean      =  -1.7488218795137E-07
(PID.TID 0000.0001) %MON ad_dynstat_adtheta_sd        =   1.2009934990537E-04
(PID.TID 0000.0001) %MON ad_dynstat_adtheta_del2      =   1.6713953007852E-06
(PID.TID 0000.0001) %MON ad_dynstat_adsalt_max        =   7.7905006185999E-03
(PID.TID 0000.0001) %MON ad_dynstat_adsalt_min        =  -6.5865003005200E-03
(PID.TID 0000.0001) %MON ad_dynstat_adsalt_mean       =   1.7540999235378E-07
(PID.TID 0000.0001) %MON ad_dynstat_adsalt_sd         =   5.5749508778885E-04
(PID.TID 0000.0001) %MON ad_dynstat_adsalt_del2       =   7.7466263507503E-06
(PID.TID 0000.0001) %MON ad_forcing_adqnet_max        =   0.0000000000000E+00
(PID.TID 0000.0001) %MON ad_forcing_adqnet_min        =   0.0000000000000E+00
(PID.TID 0000.0001) %MON ad_forcing_adqnet_mean       =   0.0000000000000E+00
(PID.TID 0000.0001) %MON ad_forcing_adqnet_sd         =   0.0000000000000E+00
(PID.TID 0000.0001) %MON ad_forcing_adqnet_del2       =   0.0000000000000E+00
(PID.TID 0000.0001) %MON ad_forcing_adempmr_max       =   1.0755871293773E-02
(PID.TID 0000.0001) %MON ad_forcing_adempmr_min       =  -9.7017374504133E-03
(PID.TID 0000.0001) %MON ad_forcing_adempmr_mean      =   1.6749780518838E-06
(PID.TID 0000.0001) %MON ad_forcing_adempmr_sd        =   1.0519059999158E-03
(PID.TID 0000.0001) %MON ad_forcing_adempmr_del2      =   5.4186959800609E-05
(PID.TID 0000.0001) %MON ad_forcing_adfu_max          =   0.0000000000000E+00
(PID.TID 0000.0001) %MON ad_forcing_adfu_min          =   0.0000000000000E+00
(PID.TID 0000.0001) %MON ad_forcing_adfu_mean         =   0.0000000000000E+00
(PID.TID 0000.0001) %MON ad_forcing_adfu_sd           =   0.0000000000000E+00
(PID.TID 0000.0001) %MON ad_forcing_adfu_del2         =   0.0000000000000E+00
(PID.TID 0000.0001) %MON ad_forcing_adfv_max          =   0.0000000000000E+00
(PID.TID 0000.0001) %MON ad_forcing_adfv_min          =   0.0000000000000E+00
(PID.TID 0000.0001) %MON ad_forcing_adfv_mean         =   0.0000000000000E+00
(PID.TID 0000.0001) %MON ad_forcing_adfv_sd           =   0.0000000000000E+00
(PID.TID 0000.0001) %MON ad_forcing_adfv_del2         =   0.0000000000000E+00
(PID.TID 0000.0001) // =======================================================
(PID.TID 0000.0001) // End AD_MONITOR dynamic field statistics
(PID.TID 0000.0001) // =======================================================
(PID.TID 0000.0001) Start initial hydrostatic pressure computation
(PID.TID 0000.0001) Pressure is predetermined for buoyancyRelation OCEANIC
(PID.TID 0000.0001) 
 ph-pack: packing ecco_cost
 ph-pack: packing ecco_ctrl
(PID.TID 0000.0001) // =======================================================
(PID.TID 0000.0001) // Gradient-check starts (grdchk_main)
(PID.TID 0000.0001) // =======================================================
(PID.TID 0000.0001) grdchk reference fc: fcref       = -4.49960735199708E-02
grad-res -------------------------------
 grad-res  proc    #    i    j    k   bi   bj iobc       fc ref            fc + eps           fc - eps
 grad-res  proc    #    i    j    k   bi   bj iobc      adj grad            fd grad          1 - fd/adj
 grad-res exact position met: 
 grad-res     0  258   31    7    1    2    2
(PID.TID 0000.0001) ====== Starts gradient-check number   1 (=ichknum) =======
 ph-test icomp, ncvarcomp, ichknum          258        2315           1
 ph-grd _loc: bi, bj, icomptest, ichknum            2           2           0           1
 ph-grd -->hit<--           31           7           1           1
(PID.TID 0000.0001) grdchk pos: i,j,k=   31    7    1 ; bi,bj=   2   2 ; iobc=  1 ; rec=   1
(PID.TID 0000.0001) Start initial hydrostatic pressure computation
(PID.TID 0000.0001) Pressure is predetermined for buoyancyRelation OCEANIC
(PID.TID 0000.0001) 
(PID.TID 0000.0001) // =======================================================
(PID.TID 0000.0001) // Model current state
(PID.TID 0000.0001) // =======================================================
(PID.TID 0000.0001) 
 EXTERNAL_FIELDS_LOAD, it=         0 : Reading new data, i0,i1=   12    1 (prev=   12    0 )
(PID.TID 0000.0001) SOLVE_FOR_PRESSURE: putPmEinXvector =    F
 cg2d: Sum(rhs),rhsMax =   1.33226762955019E-15  2.53681867617526E+00
 Calling CG2D_STORE with doStore = T
 Calling CG2D_STORE with ikey_dynamics =    1
 cg2d: Sum(rhs),rhsMax =   9.76996261670138E-15  4.94468860746549E+00
 Calling CG2D_STORE with doStore = T
 Calling CG2D_STORE with ikey_dynamics =    2
 cg2d: Sum(rhs),rhsMax =  -2.81996648254790E-14  6.31447821913423E+00
 Calling CG2D_STORE with doStore = T
 Calling CG2D_STORE with ikey_dynamics =    3
 EXTERNAL_FIELDS_LOAD, it=         3 : Reading new data, i0,i1=   12    1 (prev=   12    0 )
 cg2d: Sum(rhs),rhsMax =  -2.48689957516035E-14  6.83789717252072E+00
 Calling CG2D_STORE with doStore = T
 Calling CG2D_STORE with ikey_dynamics =    1
 cg2d: Sum(rhs),rhsMax =   7.99360577730113E-15  6.94384100142599E+00
 Calling CG2D_STORE with doStore = T
 Calling CG2D_STORE with ikey_dynamics =    2
 cg2d: Sum(rhs),rhsMax =  -2.75335310107039E-14  6.90180622751865E+00
 Calling CG2D_STORE with doStore = T
 Calling CG2D_STORE with ikey_dynamics =    3
 EXTERNAL_FIELDS_LOAD, it=         6 : Reading new data, i0,i1=   12    1 (prev=   12    0 )
 cg2d: Sum(rhs),rhsMax =  -1.24344978758018E-14  7.20701040815590E+00
 Calling CG2D_STORE with doStore = T
 Calling CG2D_STORE with ikey_dynamics =    1
 cg2d: Sum(rhs),rhsMax =   0.00000000000000E+00  7.81837601024609E+00
 Calling CG2D_STORE with doStore = T
 Calling CG2D_STORE with ikey_dynamics =    2
 cg2d: Sum(rhs),rhsMax =  -3.37507799486048E-14  8.15854450345303E+00
 Calling CG2D_STORE with doStore = T
 Calling CG2D_STORE with ikey_dynamics =    3
 EXTERNAL_FIELDS_LOAD, it=         9 : Reading new data, i0,i1=   12    1 (prev=   12    0 )
 cg2d: Sum(rhs),rhsMax =   4.44089209850063E-14  8.25652180482867E+00
 Calling CG2D_STORE with doStore = T
 Calling CG2D_STORE with ikey_dynamics =    1
(PID.TID 0000.0001) Did not write pickup because writePickupAtEnd = FALSE
(PID.TID 0000.0001)   early fc =  0.000000000000000D+00
 --> objf_atl(bi,bj)    =  0.000000000000000D+00
 --> objf_atl(bi,bj)    =  0.000000000000000D+00
 --> objf_atl(bi,bj)    =  0.000000000000000D+00
 --> objf_atl(bi,bj)    = -0.449960570611081D-01
(PID.TID 0000.0001)   local fc = -0.449960570611081D-01
(PID.TID 0000.0001)  global fc = -0.449960570611081D-01
(PID.TID 0000.0001) grdchk perturb(+)fc: fcpertplus  = -4.49960570611081E-02
(PID.TID 0000.0001) Start initial hydrostatic pressure computation
(PID.TID 0000.0001) Pressure is predetermined for buoyancyRelation OCEANIC
(PID.TID 0000.0001) 
(PID.TID 0000.0001) // =======================================================
(PID.TID 0000.0001) // Model current state
(PID.TID 0000.0001) // =======================================================
(PID.TID 0000.0001) 
 EXTERNAL_FIELDS_LOAD, it=         0 : Reading new data, i0,i1=   12    1 (prev=   12    0 )
(PID.TID 0000.0001) SOLVE_FOR_PRESSURE: putPmEinXvector =    F
 cg2d: Sum(rhs),rhsMax =   1.33226762955019E-15  2.53681867617526E+00
 Calling CG2D_STORE with doStore = T
 Calling CG2D_STORE with ikey_dynamics =    1
 cg2d: Sum(rhs),rhsMax =   9.76996261670138E-15  4.94468860746549E+00
 Calling CG2D_STORE with doStore = T
 Calling CG2D_STORE with ikey_dynamics =    2
 cg2d: Sum(rhs),rhsMax =   1.15463194561016E-14  6.31447821913433E+00
 Calling CG2D_STORE with doStore = T
 Calling CG2D_STORE with ikey_dynamics =    3
 EXTERNAL_FIELDS_LOAD, it=         3 : Reading new data, i0,i1=   12    1 (prev=   12    0 )
 cg2d: Sum(rhs),rhsMax =   2.44249065417534E-14  6.83789717252081E+00
 Calling CG2D_STORE with doStore = T
 Calling CG2D_STORE with ikey_dynamics =    1
 cg2d: Sum(rhs),rhsMax =   7.10542735760100E-15  6.94384100142575E+00
 Calling CG2D_STORE with doStore = T
 Calling CG2D_STORE with ikey_dynamics =    2
 cg2d: Sum(rhs),rhsMax =   1.77635683940025E-15  6.90180622751875E+00
 Calling CG2D_STORE with doStore = T
 Calling CG2D_STORE with ikey_dynamics =    3
 EXTERNAL_FIELDS_LOAD, it=         6 : Reading new data, i0,i1=   12    1 (prev=   12    0 )
 cg2d: Sum(rhs),rhsMax =   0.00000000000000E+00  7.20701040815569E+00
 Calling CG2D_STORE with doStore = T
 Calling CG2D_STORE with ikey_dynamics =    1
 cg2d: Sum(rhs),rhsMax =  -4.08562073062058E-14  7.81837601024608E+00
 Calling CG2D_STORE with doStore = T
 Calling CG2D_STORE with ikey_dynamics =    2
 cg2d: Sum(rhs),rhsMax =  -6.39488462184090E-14  8.15854450345313E+00
 Calling CG2D_STORE with doStore = T
 Calling CG2D_STORE with ikey_dynamics =    3
 EXTERNAL_FIELDS_LOAD, it=         9 : Reading new data, i0,i1=   12    1 (prev=   12    0 )
 cg2d: Sum(rhs),rhsMax =  -3.19744231092045E-14  8.25652180482852E+00
 Calling CG2D_STORE with doStore = T
 Calling CG2D_STORE with ikey_dynamics =    1
(PID.TID 0000.0001) Did not write pickup because writePickupAtEnd = FALSE
(PID.TID 0000.0001)   early fc =  0.000000000000000D+00
 --> objf_atl(bi,bj)    =  0.000000000000000D+00
 --> objf_atl(bi,bj)    =  0.000000000000000D+00
 --> objf_atl(bi,bj)    =  0.000000000000000D+00
 --> objf_atl(bi,bj)    = -0.449960899895836D-01
(PID.TID 0000.0001)   local fc = -0.449960899895836D-01
(PID.TID 0000.0001)  global fc = -0.449960899895836D-01
(PID.TID 0000.0001) grdchk perturb(-)fc: fcpertminus = -4.49960899895836E-02
grad-res -------------------------------
 grad-res     0    1   31    7    1    2    2    1  -4.49960735200E-02 -4.49960570611E-02 -4.49960899896E-02
 grad-res     0    1    1  258    0    2    2    1   1.64642380343E-04  1.64642377683E-04  1.61606291682E-08
(PID.TID 0000.0001)  ADM  ref_cost_function      = -4.49960735199708E-02
(PID.TID 0000.0001)  ADM  adjoint_gradient       =  1.64642380343436E-04
(PID.TID 0000.0001)  ADM  finite-diff_grad       =  1.64642377682711E-04
(PID.TID 0000.0001) ====== End of gradient-check number   1 (ierr=  0) =======
(PID.TID 0000.0001) ====== Starts gradient-check number   2 (=ichknum) =======
 ph-test icomp, ncvarcomp, ichknum          259        2315           2
 ph-grd _loc: bi, bj, icomptest, ichknum            2           2         258           2
 ph-grd -->hit<--           32           7           1           1
(PID.TID 0000.0001) grdchk pos: i,j,k=   32    7    1 ; bi,bj=   2   2 ; iobc=  1 ; rec=   1
(PID.TID 0000.0001) Start initial hydrostatic pressure computation
(PID.TID 0000.0001) Pressure is predetermined for buoyancyRelation OCEANIC
(PID.TID 0000.0001) 
(PID.TID 0000.0001) // =======================================================
(PID.TID 0000.0001) // Model current state
(PID.TID 0000.0001) // =======================================================
(PID.TID 0000.0001) 
 EXTERNAL_FIELDS_LOAD, it=         0 : Reading new data, i0,i1=   12    1 (prev=   12    0 )
(PID.TID 0000.0001) SOLVE_FOR_PRESSURE: putPmEinXvector =    F
 cg2d: Sum(rhs),rhsMax =   1.33226762955019E-15  2.53681867617526E+00
 Calling CG2D_STORE with doStore = T
 Calling CG2D_STORE with ikey_dynamics =    1
 cg2d: Sum(rhs),rhsMax =   9.76996261670138E-15  4.94468860746549E+00
 Calling CG2D_STORE with doStore = T
 Calling CG2D_STORE with ikey_dynamics =    2
 cg2d: Sum(rhs),rhsMax =   2.22044604925031E-16  6.31447821913423E+00
 Calling CG2D_STORE with doStore = T
 Calling CG2D_STORE with ikey_dynamics =    3
 EXTERNAL_FIELDS_LOAD, it=         3 : Reading new data, i0,i1=   12    1 (prev=   12    0 )
 cg2d: Sum(rhs),rhsMax =   1.82076576038526E-14  6.83789717252076E+00
 Calling CG2D_STORE with doStore = T
 Calling CG2D_STORE with ikey_dynamics =    1
 cg2d: Sum(rhs),rhsMax =   5.41788836017076E-14  6.94384100142593E+00
 Calling CG2D_STORE with doStore = T
 Calling CG2D_STORE with ikey_dynamics =    2
 cg2d: Sum(rhs),rhsMax =   3.28626015289046E-14  6.90180622751880E+00
 Calling CG2D_STORE with doStore = T
 Calling CG2D_STORE with ikey_dynamics =    3
 EXTERNAL_FIELDS_LOAD, it=         6 : Reading new data, i0,i1=   12    1 (prev=   12    0 )
 cg2d: Sum(rhs),rhsMax =   7.10542735760100E-15  7.20701040815563E+00
 Calling CG2D_STORE with doStore = T
 Calling CG2D_STORE with ikey_dynamics =    1
 cg2d: Sum(rhs),rhsMax =   3.55271367880050E-15  7.81837601024610E+00
 Calling CG2D_STORE with doStore = T
 Calling CG2D_STORE with ikey_dynamics =    2
 cg2d: Sum(rhs),rhsMax =  -5.86197757002083E-14  8.15854450345324E+00
 Calling CG2D_STORE with doStore = T
 Calling CG2D_STORE with ikey_dynamics =    3
 EXTERNAL_FIELDS_LOAD, it=         9 : Reading new data, i0,i1=   12    1 (prev=   12    0 )
 cg2d: Sum(rhs),rhsMax =  -8.88178419700125E-14  8.25652180482859E+00
 Calling CG2D_STORE with doStore = T
 Calling CG2D_STORE with ikey_dynamics =    1
(PID.TID 0000.0001) Did not write pickup because writePickupAtEnd = FALSE
(PID.TID 0000.0001)   early fc =  0.000000000000000D+00
 --> objf_atl(bi,bj)    =  0.000000000000000D+00
 --> objf_atl(bi,bj)    =  0.000000000000000D+00
 --> objf_atl(bi,bj)    =  0.000000000000000D+00
 --> objf_atl(bi,bj)    = -0.449960512543586D-01
(PID.TID 0000.0001)   local fc = -0.449960512543586D-01
(PID.TID 0000.0001)  global fc = -0.449960512543586D-01
(PID.TID 0000.0001) grdchk perturb(+)fc: fcpertplus  = -4.49960512543586E-02
(PID.TID 0000.0001) Start initial hydrostatic pressure computation
(PID.TID 0000.0001) Pressure is predetermined for buoyancyRelation OCEANIC
(PID.TID 0000.0001) 
(PID.TID 0000.0001) // =======================================================
(PID.TID 0000.0001) // Model current state
(PID.TID 0000.0001) // =======================================================
(PID.TID 0000.0001) 
 EXTERNAL_FIELDS_LOAD, it=         0 : Reading new data, i0,i1=   12    1 (prev=   12    0 )
(PID.TID 0000.0001) SOLVE_FOR_PRESSURE: putPmEinXvector =    F
 cg2d: Sum(rhs),rhsMax =   1.33226762955019E-15  2.53681867617526E+00
 Calling CG2D_STORE with doStore = T
 Calling CG2D_STORE with ikey_dynamics =    1
 cg2d: Sum(rhs),rhsMax =   9.76996261670138E-15  4.94468860746549E+00
 Calling CG2D_STORE with doStore = T
 Calling CG2D_STORE with ikey_dynamics =    2
 cg2d: Sum(rhs),rhsMax =  -1.35447209004269E-14  6.31447821913423E+00
 Calling CG2D_STORE with doStore = T
 Calling CG2D_STORE with ikey_dynamics =    3
 EXTERNAL_FIELDS_LOAD, it=         3 : Reading new data, i0,i1=   12    1 (prev=   12    0 )
 cg2d: Sum(rhs),rhsMax =   1.02140518265514E-14  6.83789717252026E+00
 Calling CG2D_STORE with doStore = T
 Calling CG2D_STORE with ikey_dynamics =    1
 cg2d: Sum(rhs),rhsMax =   2.66453525910038E-15  6.94384100142598E+00
 Calling CG2D_STORE with doStore = T
 Calling CG2D_STORE with ikey_dynamics =    2
 cg2d: Sum(rhs),rhsMax =   1.19904086659517E-13  6.90180622751909E+00
 Calling CG2D_STORE with doStore = T
 Calling CG2D_STORE with ikey_dynamics =    3
 EXTERNAL_FIELDS_LOAD, it=         6 : Reading new data, i0,i1=   12    1 (prev=   12    0 )
 cg2d: Sum(rhs),rhsMax =  -2.30926389122033E-14  7.20701040815576E+00
 Calling CG2D_STORE with doStore = T
 Calling CG2D_STORE with ikey_dynamics =    1
 cg2d: Sum(rhs),rhsMax =   6.03961325396085E-14  7.81837601024588E+00
 Calling CG2D_STORE with doStore = T
 Calling CG2D_STORE with ikey_dynamics =    2
 cg2d: Sum(rhs),rhsMax =  -1.59872115546023E-14  8.15854450345295E+00
 Calling CG2D_STORE with doStore = T
 Calling CG2D_STORE with ikey_dynamics =    3
 EXTERNAL_FIELDS_LOAD, it=         9 : Reading new data, i0,i1=   12    1 (prev=   12    0 )
 cg2d: Sum(rhs),rhsMax =   1.06581410364015E-14  8.25652180482845E+00
 Calling CG2D_STORE with doStore = T
 Calling CG2D_STORE with ikey_dynamics =    1
(PID.TID 0000.0001) Did not write pickup because writePickupAtEnd = FALSE
(PID.TID 0000.0001)   early fc =  0.000000000000000D+00
 --> objf_atl(bi,bj)    =  0.000000000000000D+00
 --> objf_atl(bi,bj)    =  0.000000000000000D+00
 --> objf_atl(bi,bj)    =  0.000000000000000D+00
 --> objf_atl(bi,bj)    = -0.449960958017290D-01
(PID.TID 0000.0001)   local fc = -0.449960958017290D-01
(PID.TID 0000.0001)  global fc = -0.449960958017290D-01
(PID.TID 0000.0001) grdchk perturb(-)fc: fcpertminus = -4.49960958017290E-02
grad-res -------------------------------
 grad-res     0    2   32    7    1    2    2    1  -4.49960735200E-02 -4.49960512544E-02 -4.49960958017E-02
 grad-res     0    2    2  259    0    2    2    1   2.22736823424E-04  2.22736852365E-04 -1.29935095128E-07
(PID.TID 0000.0001)  ADM  ref_cost_function      = -4.49960735199708E-02
(PID.TID 0000.0001)  ADM  adjoint_gradient       =  2.22736823423627E-04
(PID.TID 0000.0001)  ADM  finite-diff_grad       =  2.22736852364958E-04
(PID.TID 0000.0001) ====== End of gradient-check number   2 (ierr=  0) =======
(PID.TID 0000.0001) ====== Starts gradient-check number   3 (=ichknum) =======
 ph-test icomp, ncvarcomp, ichknum          260        2315           3
 ph-grd _loc: bi, bj, icomptest, ichknum            2           2         259           3
 ph-grd -->hit<--           33           7           1           1
(PID.TID 0000.0001) grdchk pos: i,j,k=   33    7    1 ; bi,bj=   2   2 ; iobc=  1 ; rec=   1
(PID.TID 0000.0001) Start initial hydrostatic pressure computation
(PID.TID 0000.0001) Pressure is predetermined for buoyancyRelation OCEANIC
(PID.TID 0000.0001) 
(PID.TID 0000.0001) // =======================================================
(PID.TID 0000.0001) // Model current state
(PID.TID 0000.0001) // =======================================================
(PID.TID 0000.0001) 
 EXTERNAL_FIELDS_LOAD, it=         0 : Reading new data, i0,i1=   12    1 (prev=   12    0 )
(PID.TID 0000.0001) SOLVE_FOR_PRESSURE: putPmEinXvector =    F
 cg2d: Sum(rhs),rhsMax =   1.33226762955019E-15  2.53681867617526E+00
 Calling CG2D_STORE with doStore = T
 Calling CG2D_STORE with ikey_dynamics =    1
 cg2d: Sum(rhs),rhsMax =   9.76996261670138E-15  4.94468860746549E+00
 Calling CG2D_STORE with doStore = T
 Calling CG2D_STORE with ikey_dynamics =    2
 cg2d: Sum(rhs),rhsMax =   1.88737914186277E-15  6.31447821913423E+00
 Calling CG2D_STORE with doStore = T
 Calling CG2D_STORE with ikey_dynamics =    3
 EXTERNAL_FIELDS_LOAD, it=         3 : Reading new data, i0,i1=   12    1 (prev=   12    0 )
 cg2d: Sum(rhs),rhsMax =  -3.10862446895044E-15  6.83789717252076E+00
 Calling CG2D_STORE with doStore = T
 Calling CG2D_STORE with ikey_dynamics =    1
 cg2d: Sum(rhs),rhsMax =  -2.04281036531029E-14  6.94384100142576E+00
 Calling CG2D_STORE with doStore = T
 Calling CG2D_STORE with ikey_dynamics =    2
 cg2d: Sum(rhs),rhsMax =   2.30926389122033E-14  6.90180622751845E+00
 Calling CG2D_STORE with doStore = T
 Calling CG2D_STORE with ikey_dynamics =    3
 EXTERNAL_FIELDS_LOAD, it=         6 : Reading new data, i0,i1=   12    1 (prev=   12    0 )
 cg2d: Sum(rhs),rhsMax =  -3.55271367880050E-14  7.20701040815594E+00
 Calling CG2D_STORE with doStore = T
 Calling CG2D_STORE with ikey_dynamics =    1
 cg2d: Sum(rhs),rhsMax =  -3.55271367880050E-15  7.81837601024613E+00
 Calling CG2D_STORE with doStore = T
 Calling CG2D_STORE with ikey_dynamics =    2
 cg2d: Sum(rhs),rhsMax =   1.19015908239817E-13  8.15854450345305E+00
 Calling CG2D_STORE with doStore = T
 Calling CG2D_STORE with ikey_dynamics =    3
 EXTERNAL_FIELDS_LOAD, it=         9 : Reading new data, i0,i1=   12    1 (prev=   12    0 )
 cg2d: Sum(rhs),rhsMax =   5.32907051820075E-14  8.25652180482838E+00
 Calling CG2D_STORE with doStore = T
 Calling CG2D_STORE with ikey_dynamics =    1
(PID.TID 0000.0001) Did not write pickup because writePickupAtEnd = FALSE
(PID.TID 0000.0001)   early fc =  0.000000000000000D+00
 --> objf_atl(bi,bj)    =  0.000000000000000D+00
 --> objf_atl(bi,bj)    =  0.000000000000000D+00
 --> objf_atl(bi,bj)    =  0.000000000000000D+00
 --> objf_atl(bi,bj)    = -0.449960486007357D-01
(PID.TID 0000.0001)   local fc = -0.449960486007357D-01
(PID.TID 0000.0001)  global fc = -0.449960486007357D-01
(PID.TID 0000.0001) grdchk perturb(+)fc: fcpertplus  = -4.49960486007357E-02
(PID.TID 0000.0001) Start initial hydrostatic pressure computation
(PID.TID 0000.0001) Pressure is predetermined for buoyancyRelation OCEANIC
(PID.TID 0000.0001) 
(PID.TID 0000.0001) // =======================================================
(PID.TID 0000.0001) // Model current state
(PID.TID 0000.0001) // =======================================================
(PID.TID 0000.0001) 
 EXTERNAL_FIELDS_LOAD, it=         0 : Reading new data, i0,i1=   12    1 (prev=   12    0 )
(PID.TID 0000.0001) SOLVE_FOR_PRESSURE: putPmEinXvector =    F
 cg2d: Sum(rhs),rhsMax =   1.33226762955019E-15  2.53681867617526E+00
 Calling CG2D_STORE with doStore = T
 Calling CG2D_STORE with ikey_dynamics =    1
 cg2d: Sum(rhs),rhsMax =   9.76996261670138E-15  4.94468860746549E+00
 Calling CG2D_STORE with doStore = T
 Calling CG2D_STORE with ikey_dynamics =    2
 cg2d: Sum(rhs),rhsMax =  -7.77156117237610E-16  6.31447821913423E+00
 Calling CG2D_STORE with doStore = T
 Calling CG2D_STORE with ikey_dynamics =    3
 EXTERNAL_FIELDS_LOAD, it=         3 : Reading new data, i0,i1=   12    1 (prev=   12    0 )
 cg2d: Sum(rhs),rhsMax =   6.66133814775094E-15  6.83789717252076E+00
 Calling CG2D_STORE with doStore = T
 Calling CG2D_STORE with ikey_dynamics =    1
 cg2d: Sum(rhs),rhsMax =   3.64153152077051E-14  6.94384100142593E+00
 Calling CG2D_STORE with doStore = T
 Calling CG2D_STORE with ikey_dynamics =    2
 cg2d: Sum(rhs),rhsMax =  -2.13162820728030E-14  6.90180622751881E+00
 Calling CG2D_STORE with doStore = T
 Calling CG2D_STORE with ikey_dynamics =    3
 EXTERNAL_FIELDS_LOAD, it=         6 : Reading new data, i0,i1=   12    1 (prev=   12    0 )
 cg2d: Sum(rhs),rhsMax =   1.77635683940025E-14  7.20701040815592E+00
 Calling CG2D_STORE with doStore = T
 Calling CG2D_STORE with ikey_dynamics =    1
 cg2d: Sum(rhs),rhsMax =   4.61852778244065E-14  7.81837601024620E+00
 Calling CG2D_STORE with doStore = T
 Calling CG2D_STORE with ikey_dynamics =    2
 cg2d: Sum(rhs),rhsMax =   7.28306304154103E-14  8.15854450345320E+00
 Calling CG2D_STORE with doStore = T
 Calling CG2D_STORE with ikey_dynamics =    3
 EXTERNAL_FIELDS_LOAD, it=         9 : Reading new data, i0,i1=   12    1 (prev=   12    0 )
 cg2d: Sum(rhs),rhsMax =   1.40332190312620E-13  8.25652180482855E+00
 Calling CG2D_STORE with doStore = T
 Calling CG2D_STORE with ikey_dynamics =    1
(PID.TID 0000.0001) Did not write pickup because writePickupAtEnd = FALSE
(PID.TID 0000.0001)   early fc =  0.000000000000000D+00
 --> objf_atl(bi,bj)    =  0.000000000000000D+00
 --> objf_atl(bi,bj)    =  0.000000000000000D+00
 --> objf_atl(bi,bj)    =  0.000000000000000D+00
 --> objf_atl(bi,bj)    = -0.449960984677059D-01
(PID.TID 0000.0001)   local fc = -0.449960984677059D-01
(PID.TID 0000.0001)  global fc = -0.449960984677059D-01
(PID.TID 0000.0001) grdchk perturb(-)fc: fcpertminus = -4.49960984677059E-02
grad-res -------------------------------
 grad-res     0    3   33    7    1    2    2    1  -4.49960735200E-02 -4.49960486007E-02 -4.49960984677E-02
 grad-res     0    3    3  260    0    2    2    1   2.49334788220E-04  2.49334850613E-04 -2.50237522703E-07
(PID.TID 0000.0001)  ADM  ref_cost_function      = -4.49960735199708E-02
(PID.TID 0000.0001)  ADM  adjoint_gradient       =  2.49334788220372E-04
(PID.TID 0000.0001)  ADM  finite-diff_grad       =  2.49334850613292E-04
(PID.TID 0000.0001) ====== End of gradient-check number   3 (ierr=  0) =======
(PID.TID 0000.0001) ====== Starts gradient-check number   4 (=ichknum) =======
 ph-test icomp, ncvarcomp, ichknum          261        2315           4
 ph-grd _loc: bi, bj, icomptest, ichknum            2           2         260           4
 ph-grd -->hit<--           34           7           1           1
(PID.TID 0000.0001) grdchk pos: i,j,k=   34    7    1 ; bi,bj=   2   2 ; iobc=  1 ; rec=   1
(PID.TID 0000.0001) Start initial hydrostatic pressure computation
(PID.TID 0000.0001) Pressure is predetermined for buoyancyRelation OCEANIC
(PID.TID 0000.0001) 
(PID.TID 0000.0001) // =======================================================
(PID.TID 0000.0001) // Model current state
(PID.TID 0000.0001) // =======================================================
(PID.TID 0000.0001) 
 EXTERNAL_FIELDS_LOAD, it=         0 : Reading new data, i0,i1=   12    1 (prev=   12    0 )
(PID.TID 0000.0001) SOLVE_FOR_PRESSURE: putPmEinXvector =    F
 cg2d: Sum(rhs),rhsMax =   1.33226762955019E-15  2.53681867617526E+00
 Calling CG2D_STORE with doStore = T
 Calling CG2D_STORE with ikey_dynamics =    1
 cg2d: Sum(rhs),rhsMax =   9.76996261670138E-15  4.94468860746549E+00
 Calling CG2D_STORE with doStore = T
 Calling CG2D_STORE with ikey_dynamics =    2
 cg2d: Sum(rhs),rhsMax =  -9.32587340685131E-15  6.31447821913423E+00
 Calling CG2D_STORE with doStore = T
 Calling CG2D_STORE with ikey_dynamics =    3
 EXTERNAL_FIELDS_LOAD, it=         3 : Reading new data, i0,i1=   12    1 (prev=   12    0 )
 cg2d: Sum(rhs),rhsMax =   1.28785870856518E-14  6.83789717252073E+00
 Calling CG2D_STORE with doStore = T
 Calling CG2D_STORE with ikey_dynamics =    1
 cg2d: Sum(rhs),rhsMax =  -1.77635683940025E-14  6.94384100142593E+00
 Calling CG2D_STORE with doStore = T
 Calling CG2D_STORE with ikey_dynamics =    2
 cg2d: Sum(rhs),rhsMax =   3.37507799486048E-14  6.90180622751863E+00
 Calling CG2D_STORE with doStore = T
 Calling CG2D_STORE with ikey_dynamics =    3
 EXTERNAL_FIELDS_LOAD, it=         6 : Reading new data, i0,i1=   12    1 (prev=   12    0 )
 cg2d: Sum(rhs),rhsMax =  -8.17124146124115E-14  7.20701040815589E+00
 Calling CG2D_STORE with doStore = T
 Calling CG2D_STORE with ikey_dynamics =    1
 cg2d: Sum(rhs),rhsMax =  -1.59872115546023E-14  7.81837601024609E+00
 Calling CG2D_STORE with doStore = T
 Calling CG2D_STORE with ikey_dynamics =    2
 cg2d: Sum(rhs),rhsMax =  -1.59872115546023E-14  8.15854450345308E+00
 Calling CG2D_STORE with doStore = T
 Calling CG2D_STORE with ikey_dynamics =    3
 EXTERNAL_FIELDS_LOAD, it=         9 : Reading new data, i0,i1=   12    1 (prev=   12    0 )
 cg2d: Sum(rhs),rhsMax =   1.24344978758018E-14  8.25652180482862E+00
 Calling CG2D_STORE with doStore = T
 Calling CG2D_STORE with ikey_dynamics =    1
(PID.TID 0000.0001) Did not write pickup because writePickupAtEnd = FALSE
(PID.TID 0000.0001)   early fc =  0.000000000000000D+00
 --> objf_atl(bi,bj)    =  0.000000000000000D+00
 --> objf_atl(bi,bj)    =  0.000000000000000D+00
 --> objf_atl(bi,bj)    =  0.000000000000000D+00
 --> objf_atl(bi,bj)    = -0.449960524578720D-01
(PID.TID 0000.0001)   local fc = -0.449960524578720D-01
(PID.TID 0000.0001)  global fc = -0.449960524578720D-01
(PID.TID 0000.0001) grdchk perturb(+)fc: fcpertplus  = -4.49960524578720E-02
(PID.TID 0000.0001) Start initial hydrostatic pressure computation
(PID.TID 0000.0001) Pressure is predetermined for buoyancyRelation OCEANIC
(PID.TID 0000.0001) 
(PID.TID 0000.0001) // =======================================================
(PID.TID 0000.0001) // Model current state
(PID.TID 0000.0001) // =======================================================
(PID.TID 0000.0001) 
 EXTERNAL_FIELDS_LOAD, it=         0 : Reading new data, i0,i1=   12    1 (prev=   12    0 )
(PID.TID 0000.0001) SOLVE_FOR_PRESSURE: putPmEinXvector =    F
 cg2d: Sum(rhs),rhsMax =   1.33226762955019E-15  2.53681867617526E+00
 Calling CG2D_STORE with doStore = T
 Calling CG2D_STORE with ikey_dynamics =    1
 cg2d: Sum(rhs),rhsMax =   9.76996261670138E-15  4.94468860746549E+00
 Calling CG2D_STORE with doStore = T
 Calling CG2D_STORE with ikey_dynamics =    2
 cg2d: Sum(rhs),rhsMax =   6.66133814775094E-15  6.31447821913433E+00
 Calling CG2D_STORE with doStore = T
 Calling CG2D_STORE with ikey_dynamics =    3
 EXTERNAL_FIELDS_LOAD, it=         3 : Reading new data, i0,i1=   12    1 (prev=   12    0 )
 cg2d: Sum(rhs),rhsMax =   3.15303338993544E-14  6.83789717252081E+00
 Calling CG2D_STORE with doStore = T
 Calling CG2D_STORE with ikey_dynamics =    1
 cg2d: Sum(rhs),rhsMax =   5.50670620214078E-14  6.94384100142567E+00
 Calling CG2D_STORE with doStore = T
 Calling CG2D_STORE with ikey_dynamics =    2
 cg2d: Sum(rhs),rhsMax =  -1.33226762955019E-14  6.90180622751869E+00
 Calling CG2D_STORE with doStore = T
 Calling CG2D_STORE with ikey_dynamics =    3
 EXTERNAL_FIELDS_LOAD, it=         6 : Reading new data, i0,i1=   12    1 (prev=   12    0 )
 cg2d: Sum(rhs),rhsMax =  -7.28306304154103E-14  7.20701040815576E+00
 Calling CG2D_STORE with doStore = T
 Calling CG2D_STORE with ikey_dynamics =    1
 cg2d: Sum(rhs),rhsMax =   2.13162820728030E-14  7.81837601024632E+00
 Calling CG2D_STORE with doStore = T
 Calling CG2D_STORE with ikey_dynamics =    2
 cg2d: Sum(rhs),rhsMax =   6.75015598972095E-14  8.15854450345331E+00
 Calling CG2D_STORE with doStore = T
 Calling CG2D_STORE with ikey_dynamics =    3
 EXTERNAL_FIELDS_LOAD, it=         9 : Reading new data, i0,i1=   12    1 (prev=   12    0 )
 cg2d: Sum(rhs),rhsMax =  -4.79616346638068E-14  8.25652180482858E+00
 Calling CG2D_STORE with doStore = T
 Calling CG2D_STORE with ikey_dynamics =    1
(PID.TID 0000.0001) Did not write pickup because writePickupAtEnd = FALSE
(PID.TID 0000.0001)   early fc =  0.000000000000000D+00
 --> objf_atl(bi,bj)    =  0.000000000000000D+00
 --> objf_atl(bi,bj)    =  0.000000000000000D+00
 --> objf_atl(bi,bj)    =  0.000000000000000D+00
 --> objf_atl(bi,bj)    = -0.449960945950784D-01
(PID.TID 0000.0001)   local fc = -0.449960945950784D-01
(PID.TID 0000.0001)  global fc = -0.449960945950784D-01
(PID.TID 0000.0001) grdchk perturb(-)fc: fcpertminus = -4.49960945950784E-02
grad-res -------------------------------
 grad-res     0    4   34    7    1    2    2    1  -4.49960735200E-02 -4.49960524579E-02 -4.49960945951E-02
 grad-res     0    4    4  261    0    2    2    1   2.10686027577E-04  2.10686031572E-04 -1.89621032209E-08
(PID.TID 0000.0001)  ADM  ref_cost_function      = -4.49960735199708E-02
(PID.TID 0000.0001)  ADM  adjoint_gradient       =  2.10686027577266E-04
(PID.TID 0000.0001)  ADM  finite-diff_grad       =  2.10686031572316E-04
(PID.TID 0000.0001) ====== End of gradient-check number   4 (ierr=  0) =======
(PID.TID 0000.0001) 
(PID.TID 0000.0001) // =======================================================
(PID.TID 0000.0001) // Gradient check results  >>> START <<<
(PID.TID 0000.0001) // =======================================================
(PID.TID 0000.0001) 
(PID.TID 0000.0001)  EPS =   1.000000E-04
(PID.TID 0000.0001) 
(PID.TID 0000.0001) grdchk output h.p:  Id Itile Jtile LAYER   bi   bj   X(Id)           X(Id)+/-EPS
(PID.TID 0000.0001) grdchk output h.c:  Id  FC                   FC1                  FC2
(PID.TID 0000.0001) grdchk output h.g:  Id     FC1-FC2/(2*EPS)      ADJ GRAD(FC)         1-FDGRD/ADGRD
(PID.TID 0000.0001) 
(PID.TID 0000.0001) grdchk output (p):   1    31     7     1    2    2   0.000000000E+00 -1.000000000E-04
(PID.TID 0000.0001) grdchk output (c):   1 -4.4996073519971E-02 -4.4996057061108E-02 -4.4996089989584E-02
(PID.TID 0000.0001) grdchk output (g):   1     1.6464237768271E-04  1.6464238034344E-04  1.6160629168205E-08
(PID.TID 0000.0001) 
(PID.TID 0000.0001) grdchk output (p):   2    32     7     1    2    2   0.000000000E+00 -1.000000000E-04
(PID.TID 0000.0001) grdchk output (c):   2 -4.4996073519971E-02 -4.4996051254359E-02 -4.4996095801729E-02
(PID.TID 0000.0001) grdchk output (g):   2     2.2273685236496E-04  2.2273682342363E-04 -1.2993509512782E-07
(PID.TID 0000.0001) 
(PID.TID 0000.0001) grdchk output (p):   3    33     7     1    2    2   0.000000000E+00 -1.000000000E-04
(PID.TID 0000.0001) grdchk output (c):   3 -4.4996073519971E-02 -4.4996048600736E-02 -4.4996098467706E-02
(PID.TID 0000.0001) grdchk output (g):   3     2.4933485061329E-04  2.4933478822037E-04 -2.5023752270315E-07
(PID.TID 0000.0001) 
(PID.TID 0000.0001) grdchk output (p):   4    34     7     1    2    2   0.000000000E+00 -1.000000000E-04
(PID.TID 0000.0001) grdchk output (c):   4 -4.4996073519971E-02 -4.4996052457872E-02 -4.4996094595078E-02
(PID.TID 0000.0001) grdchk output (g):   4     2.1068603157232E-04  2.1068602757727E-04 -1.8962103220943E-08
(PID.TID 0000.0001) 
(PID.TID 0000.0001) grdchk  summary  :  RMS of    4 ratios =  1.4152974423081E-07
(PID.TID 0000.0001) 
(PID.TID 0000.0001) // =======================================================
(PID.TID 0000.0001) // Gradient check results  >>> END <<<
(PID.TID 0000.0001) // =======================================================
(PID.TID 0000.0001) 
(PID.TID 0000.0001)   Seconds in section "ALL                    [THE_MODEL_MAIN]":
(PID.TID 0000.0001)           User time:   102.92847822327167
(PID.TID 0000.0001)         System time:   1.1511410386301577
(PID.TID 0000.0001)     Wall clock time:   104.11805295944214
(PID.TID 0000.0001)          No. starts:           1
(PID.TID 0000.0001)           No. stops:           1
(PID.TID 0000.0001)   Seconds in section "INITIALISE_FIXED       [THE_MODEL_MAIN]":
(PID.TID 0000.0001)           User time:  0.30066098738461733
(PID.TID 0000.0001)         System time:   7.8874001745134592E-002
(PID.TID 0000.0001)     Wall clock time:  0.40381312370300293
(PID.TID 0000.0001)          No. starts:           1
(PID.TID 0000.0001)           No. stops:           1
(PID.TID 0000.0001)   Seconds in section "ADTHE_MAIN_LOOP          [ADJOINT RUN]":
(PID.TID 0000.0001)           User time:   50.563866168260574
(PID.TID 0000.0001)         System time:   1.0481100305914879
(PID.TID 0000.0001)     Wall clock time:   51.623939990997314
(PID.TID 0000.0001)          No. starts:           1
(PID.TID 0000.0001)           No. stops:           1
(PID.TID 0000.0001)   Seconds in section "FORWARD_STEP        [MAIN_DO_LOOP]":
(PID.TID 0000.0001)           User time:   63.547893881797791
(PID.TID 0000.0001)         System time:   4.5324057340621948E-002
(PID.TID 0000.0001)     Wall clock time:   63.598602533340454
(PID.TID 0000.0001)          No. starts:         100
(PID.TID 0000.0001)           No. stops:         100
(PID.TID 0000.0001)   Seconds in section "UPDATE_SURF_DR      [FORWARD_STEP]":
(PID.TID 0000.0001)           User time:   6.4228594303131104E-002
(PID.TID 0000.0001)         System time:   2.0904839038848877E-004
(PID.TID 0000.0001)     Wall clock time:   6.4468622207641602E-002
(PID.TID 0000.0001)          No. starts:         200
(PID.TID 0000.0001)           No. stops:         200
(PID.TID 0000.0001)   Seconds in section "LOAD_FIELDS_DRIVER  [FORWARD_STEP]":
(PID.TID 0000.0001)           User time:  0.12838608026504517
(PID.TID 0000.0001)         System time:   8.9440792798995972E-003
(PID.TID 0000.0001)     Wall clock time:  0.13733363151550293
(PID.TID 0000.0001)          No. starts:         100
(PID.TID 0000.0001)           No. stops:         100
(PID.TID 0000.0001)   Seconds in section "EXTERNAL_FLDS_LOAD [LOAD_FLDS_DRIVER]":
(PID.TID 0000.0001)           User time:  0.13768690824508667
(PID.TID 0000.0001)         System time:   1.1882126331329346E-002
(PID.TID 0000.0001)     Wall clock time:  0.14961838722229004
(PID.TID 0000.0001)          No. starts:         110
(PID.TID 0000.0001)           No. stops:         110
(PID.TID 0000.0001)   Seconds in section "CTRL_MAP_FORCING  [FORWARD_STEP]":
(PID.TID 0000.0001)           User time:  0.15417063236236572
(PID.TID 0000.0001)         System time:   3.5681277513504028E-003
(PID.TID 0000.0001)     Wall clock time:  0.15781664848327637
(PID.TID 0000.0001)          No. starts:         100
(PID.TID 0000.0001)           No. stops:         100
(PID.TID 0000.0001)   Seconds in section "DO_ATMOSPHERIC_PHYS [FORWARD_STEP]":
(PID.TID 0000.0001)           User time:   5.4486811161041260E-002
(PID.TID 0000.0001)         System time:   2.5992095470428467E-004
(PID.TID 0000.0001)     Wall clock time:   5.4785251617431641E-002
(PID.TID 0000.0001)          No. starts:         100
(PID.TID 0000.0001)           No. stops:         100
(PID.TID 0000.0001)   Seconds in section "DO_OCEANIC_PHYS     [FORWARD_STEP]":
(PID.TID 0000.0001)           User time:   9.6043744683265686
(PID.TID 0000.0001)         System time:   4.0339529514312744E-003
(PID.TID 0000.0001)     Wall clock time:   9.6098556518554688
(PID.TID 0000.0001)          No. starts:         100
(PID.TID 0000.0001)           No. stops:         100
(PID.TID 0000.0001)   Seconds in section "DYNAMICS            [FORWARD_STEP]":
(PID.TID 0000.0001)           User time:   24.790241777896881
(PID.TID 0000.0001)         System time:   6.8068504333496094E-005
(PID.TID 0000.0001)     Wall clock time:   24.792293071746826
(PID.TID 0000.0001)          No. starts:         100
(PID.TID 0000.0001)           No. stops:         100
(PID.TID 0000.0001)   Seconds in section "UPDATE_CG2D         [FORWARD_STEP]":
(PID.TID 0000.0001)           User time:  0.35670453310012817
(PID.TID 0000.0001)         System time:   2.2187829017639160E-005
(PID.TID 0000.0001)     Wall clock time:  0.35678648948669434
(PID.TID 0000.0001)          No. starts:         100
(PID.TID 0000.0001)           No. stops:         100
(PID.TID 0000.0001)   Seconds in section "SOLVE_FOR_PRESSURE  [FORWARD_STEP]":
(PID.TID 0000.0001)           User time:   2.7896546125411987
(PID.TID 0000.0001)         System time:   1.0995566844940186E-004
(PID.TID 0000.0001)     Wall clock time:   2.7901132106781006
(PID.TID 0000.0001)          No. starts:         100
(PID.TID 0000.0001)           No. stops:         100
(PID.TID 0000.0001)   Seconds in section "MOM_CORRECTION_STEP [FORWARD_STEP]":
(PID.TID 0000.0001)           User time:  0.52198398113250732
(PID.TID 0000.0001)         System time:   2.7000904083251953E-005
(PID.TID 0000.0001)     Wall clock time:  0.52211976051330566
(PID.TID 0000.0001)          No. starts:         100
(PID.TID 0000.0001)           No. stops:         100
(PID.TID 0000.0001)   Seconds in section "INTEGR_CONTINUITY   [FORWARD_STEP]":
(PID.TID 0000.0001)           User time:  0.99925410747528076
(PID.TID 0000.0001)         System time:   7.9870223999023438E-006
(PID.TID 0000.0001)     Wall clock time:  0.99941325187683105
(PID.TID 0000.0001)          No. starts:         100
(PID.TID 0000.0001)           No. stops:         100
(PID.TID 0000.0001)   Seconds in section "CALC_SURF_DR      [FORWARD_STEP]":
(PID.TID 0000.0001)           User time:   7.0650637149810791E-002
(PID.TID 0000.0001)         System time:   6.8992376327514648E-005
(PID.TID 0000.0001)     Wall clock time:   7.0817947387695312E-002
(PID.TID 0000.0001)          No. starts:         100
(PID.TID 0000.0001)           No. stops:         100
(PID.TID 0000.0001)   Seconds in section "BLOCKING_EXCHANGES  [FORWARD_STEP]":
(PID.TID 0000.0001)           User time:  0.44236892461776733
(PID.TID 0000.0001)         System time:   1.0503828525543213E-004
(PID.TID 0000.0001)     Wall clock time:  0.44269990921020508
(PID.TID 0000.0001)          No. starts:         200
(PID.TID 0000.0001)           No. stops:         200
(PID.TID 0000.0001)   Seconds in section "THERMODYNAMICS      [FORWARD_STEP]":
(PID.TID 0000.0001)           User time:   21.870196580886841
(PID.TID 0000.0001)         System time:   7.7798962593078613E-003
(PID.TID 0000.0001)     Wall clock time:   21.880073070526123
(PID.TID 0000.0001)          No. starts:         100
(PID.TID 0000.0001)           No. stops:         100
(PID.TID 0000.0001)   Seconds in section "TRC_CORRECTION_STEP [FORWARD_STEP]":
(PID.TID 0000.0001)           User time:   7.9703330993652344E-004
(PID.TID 0000.0001)         System time:   1.0132789611816406E-006
(PID.TID 0000.0001)     Wall clock time:   8.0728530883789062E-004
(PID.TID 0000.0001)          No. starts:         100
(PID.TID 0000.0001)           No. stops:         100
(PID.TID 0000.0001)   Seconds in section "MONITOR             [FORWARD_STEP]":
(PID.TID 0000.0001)           User time:  0.53715419769287109
(PID.TID 0000.0001)         System time:   1.4090538024902344E-004
(PID.TID 0000.0001)     Wall clock time:  0.53751993179321289
(PID.TID 0000.0001)          No. starts:         100
(PID.TID 0000.0001)           No. stops:         100
(PID.TID 0000.0001)   Seconds in section "COST_TILE           [FORWARD_STEP]":
(PID.TID 0000.0001)           User time:   1.0816168785095215
(PID.TID 0000.0001)         System time:   8.9406967163085938E-006
(PID.TID 0000.0001)     Wall clock time:   1.0819339752197266
(PID.TID 0000.0001)          No. starts:         100
(PID.TID 0000.0001)           No. stops:         100
(PID.TID 0000.0001)   Seconds in section "DO_THE_MODEL_IO     [FORWARD_STEP]":
(PID.TID 0000.0001)           User time:   4.0634155273437500E-002
(PID.TID 0000.0001)         System time:   7.9730004072189331E-003
(PID.TID 0000.0001)     Wall clock time:   4.8612356185913086E-002
(PID.TID 0000.0001)          No. starts:         100
(PID.TID 0000.0001)           No. stops:         100
(PID.TID 0000.0001)   Seconds in section "DO_WRITE_PICKUP     [FORWARD_STEP]":
(PID.TID 0000.0001)           User time:   2.2469758987426758E-002
(PID.TID 0000.0001)         System time:   1.1913016438484192E-002
(PID.TID 0000.0001)     Wall clock time:   3.4404754638671875E-002
(PID.TID 0000.0001)          No. starts:         100
(PID.TID 0000.0001)           No. stops:         100
(PID.TID 0000.0001)   Seconds in section "I/O (WRITE)        [ADJOINT LOOP]":
(PID.TID 0000.0001)           User time:  0.16974258422851562
(PID.TID 0000.0001)         System time:   7.9943001270294189E-002
(PID.TID 0000.0001)     Wall clock time:  0.25014495849609375
(PID.TID 0000.0001)          No. starts:           3
(PID.TID 0000.0001)           No. stops:           3
(PID.TID 0000.0001)   Seconds in section "CTRL_PACK           [THE_MODEL_MAIN]":
(PID.TID 0000.0001)           User time:   5.6877136230468750E-003
(PID.TID 0000.0001)         System time:   0.0000000000000000
(PID.TID 0000.0001)     Wall clock time:   5.6908130645751953E-003
(PID.TID 0000.0001)          No. starts:           1
(PID.TID 0000.0001)           No. stops:           1
(PID.TID 0000.0001)   Seconds in section "CTRL_PACK     [THE_MODEL_MAIN]":
(PID.TID 0000.0001)           User time:   3.5858154296875000E-003
(PID.TID 0000.0001)         System time:   2.8014183044433594E-005
(PID.TID 0000.0001)     Wall clock time:   3.6239624023437500E-003
(PID.TID 0000.0001)          No. starts:           1
(PID.TID 0000.0001)           No. stops:           1
(PID.TID 0000.0001)   Seconds in section "GRDCHK_MAIN         [THE_MODEL_MAIN]":
(PID.TID 0000.0001)           User time:   52.051467895507812
(PID.TID 0000.0001)         System time:   2.4073004722595215E-002
(PID.TID 0000.0001)     Wall clock time:   52.077739953994751
(PID.TID 0000.0001)          No. starts:           1
(PID.TID 0000.0001)           No. stops:           1
(PID.TID 0000.0001)   Seconds in section "INITIALISE_VARIA    [THE_MAIN_LOOP]":
(PID.TID 0000.0001)           User time:  0.55919265747070312
(PID.TID 0000.0001)         System time:   6.2279701232910156E-003
(PID.TID 0000.0001)     Wall clock time:  0.56543803215026855
(PID.TID 0000.0001)          No. starts:           8
(PID.TID 0000.0001)           No. stops:           8
(PID.TID 0000.0001)   Seconds in section "MAIN LOOP           [THE_MAIN_LOOP]":
(PID.TID 0000.0001)           User time:   51.482364654541016
(PID.TID 0000.0001)         System time:   1.2178063392639160E-002
(PID.TID 0000.0001)     Wall clock time:   51.496722221374512
(PID.TID 0000.0001)          No. starts:           8
(PID.TID 0000.0001)           No. stops:           8
(PID.TID 0000.0001)   Seconds in section "MAIN_DO_LOOP        [THE_MAIN_LOOP]":
(PID.TID 0000.0001)           User time:   50.363868713378906
(PID.TID 0000.0001)         System time:   1.2165069580078125E-002
(PID.TID 0000.0001)     Wall clock time:   50.378075122833252
(PID.TID 0000.0001)          No. starts:          80
(PID.TID 0000.0001)           No. stops:          80
(PID.TID 0000.0001)   Seconds in section "COST_FINAL         [ADJOINT SPIN-DOWN]":
(PID.TID 0000.0001)           User time:   8.8882446289062500E-004
(PID.TID 0000.0001)         System time:   0.0000000000000000
(PID.TID 0000.0001)     Wall clock time:   8.7404251098632812E-004
(PID.TID 0000.0001)          No. starts:           8
(PID.TID 0000.0001)           No. stops:           8
(PID.TID 0000.0001) // ======================================================
(PID.TID 0000.0001) // Tile <-> Tile communication statistics
(PID.TID 0000.0001) // ======================================================
(PID.TID 0000.0001) // o Tile number: 000001
(PID.TID 0000.0001) //         No. X exchanges =              0
(PID.TID 0000.0001) //            Max. X spins =              0
(PID.TID 0000.0001) //            Min. X spins =     1000000000
(PID.TID 0000.0001) //          Total. X spins =              0
(PID.TID 0000.0001) //            Avg. X spins =       0.00E+00
(PID.TID 0000.0001) //         No. Y exchanges =              0
(PID.TID 0000.0001) //            Max. Y spins =              0
(PID.TID 0000.0001) //            Min. Y spins =     1000000000
(PID.TID 0000.0001) //          Total. Y spins =              0
(PID.TID 0000.0001) //            Avg. Y spins =       0.00E+00
(PID.TID 0000.0001) // o Tile number: 000002
(PID.TID 0000.0001) //         No. X exchanges =              0
(PID.TID 0000.0001) //            Max. X spins =              0
(PID.TID 0000.0001) //            Min. X spins =     1000000000
(PID.TID 0000.0001) //          Total. X spins =              0
(PID.TID 0000.0001) //            Avg. X spins =       0.00E+00
(PID.TID 0000.0001) //         No. Y exchanges =              0
(PID.TID 0000.0001) //            Max. Y spins =              0
(PID.TID 0000.0001) //            Min. Y spins =     1000000000
(PID.TID 0000.0001) //          Total. Y spins =              0
(PID.TID 0000.0001) //            Avg. Y spins =       0.00E+00
(PID.TID 0000.0001) // o Tile number: 000003
(PID.TID 0000.0001) //         No. X exchanges =              0
(PID.TID 0000.0001) //            Max. X spins =              0
(PID.TID 0000.0001) //            Min. X spins =     1000000000
(PID.TID 0000.0001) //          Total. X spins =              0
(PID.TID 0000.0001) //            Avg. X spins =       0.00E+00
(PID.TID 0000.0001) //         No. Y exchanges =              0
(PID.TID 0000.0001) //            Max. Y spins =              0
(PID.TID 0000.0001) //            Min. Y spins =     1000000000
(PID.TID 0000.0001) //          Total. Y spins =              0
(PID.TID 0000.0001) //            Avg. Y spins =       0.00E+00
(PID.TID 0000.0001) // o Tile number: 000004
(PID.TID 0000.0001) //         No. X exchanges =              0
(PID.TID 0000.0001) //            Max. X spins =              0
(PID.TID 0000.0001) //            Min. X spins =     1000000000
(PID.TID 0000.0001) //          Total. X spins =              0
(PID.TID 0000.0001) //            Avg. X spins =       0.00E+00
(PID.TID 0000.0001) //         No. Y exchanges =              0
(PID.TID 0000.0001) //            Max. Y spins =              0
(PID.TID 0000.0001) //            Min. Y spins =     1000000000
(PID.TID 0000.0001) //          Total. Y spins =              0
(PID.TID 0000.0001) //            Avg. Y spins =       0.00E+00
(PID.TID 0000.0001) // o Thread number: 000001
(PID.TID 0000.0001) //            No. barriers =          26442
(PID.TID 0000.0001) //      Max. barrier spins =              1
(PID.TID 0000.0001) //      Min. barrier spins =              1
(PID.TID 0000.0001) //     Total barrier spins =          26442
(PID.TID 0000.0001) //      Avg. barrier spins =       1.00E+00
PROGRAM MAIN: Execution ended Normally
