(PID.TID 0000.0001) 
(PID.TID 0000.0001) // ======================================================
(PID.TID 0000.0001) //                      MITgcm UV
(PID.TID 0000.0001) //                      =========
(PID.TID 0000.0001) // ======================================================
(PID.TID 0000.0001) // execution environment starting up...
(PID.TID 0000.0001) 
(PID.TID 0000.0001) // MITgcmUV version:  checkpoint68z
(PID.TID 0000.0001) // Build user:        jm_c
(PID.TID 0000.0001) // Build host:        villon
(PID.TID 0000.0001) // Build date:        Thu Aug  1 10:25:53 EDT 2024
(PID.TID 0000.0001) 
(PID.TID 0000.0001) // =======================================================
(PID.TID 0000.0001) // Execution Environment parameter file "eedata"
(PID.TID 0000.0001) // =======================================================
(PID.TID 0000.0001) ># Example "eedata" file
(PID.TID 0000.0001) ># Lines beginning "#" are comments
(PID.TID 0000.0001) >#  nTx      :: No. threads per process in X
(PID.TID 0000.0001) >#  nTy      :: No. threads per process in Y
(PID.TID 0000.0001) ># debugMode :: print debug msg (sequence of S/R calls)
(PID.TID 0000.0001) > &EEPARMS
(PID.TID 0000.0001) > nTx=1,
(PID.TID 0000.0001) > nTy=1,
(PID.TID 0000.0001) >#debugMode=.TRUE.,
(PID.TID 0000.0001) > /
(PID.TID 0000.0001) ># Note: Some systems use & as the namelist terminator (as shown here).
(PID.TID 0000.0001) >#       Other systems use a / character.
(PID.TID 0000.0001) 
(PID.TID 0000.0001) // =======================================================
(PID.TID 0000.0001) // Computational Grid Specification ( see files "SIZE.h" )
(PID.TID 0000.0001) //                                  ( and "eedata"       )
(PID.TID 0000.0001) // =======================================================
(PID.TID 0000.0001)      nPx =    1 ; /* No. processes in X */
(PID.TID 0000.0001)      nPy =    1 ; /* No. processes in Y */
(PID.TID 0000.0001)      nSx =    1 ; /* No. tiles in X per process */
(PID.TID 0000.0001)      nSy =    4 ; /* No. tiles in Y per process */
(PID.TID 0000.0001)      sNx =    1 ; /* Tile size in X */
(PID.TID 0000.0001)      sNy =   40 ; /* Tile size in Y */
(PID.TID 0000.0001)      OLx =    2 ; /* Tile overlap distance in X */
(PID.TID 0000.0001)      OLy =    2 ; /* Tile overlap distance in Y */
(PID.TID 0000.0001)      nTx =    1 ; /* No. threads in X per process */
(PID.TID 0000.0001)      nTy =    1 ; /* No. threads in Y per process */
(PID.TID 0000.0001)       Nr =  120 ; /* No. levels in the vertical   */
(PID.TID 0000.0001)       Nx =    1 ; /* Total domain size in X ( = nPx*nSx*sNx ) */
(PID.TID 0000.0001)       Ny =  160 ; /* Total domain size in Y ( = nPy*nSy*sNy ) */
(PID.TID 0000.0001)   nTiles =    4 ; /* Total no. tiles per process ( = nSx*nSy ) */
(PID.TID 0000.0001)   nProcs =    1 ; /* Total no. processes ( = nPx*nPy ) */
(PID.TID 0000.0001) nThreads =    1 ; /* Total no. threads per process ( = nTx*nTy ) */
(PID.TID 0000.0001) usingMPI =    F ; /* Flag used to control whether MPI is in use */
(PID.TID 0000.0001)                   /*  note: To execute a program with MPI calls */
(PID.TID 0000.0001)                   /*  it must be launched appropriately e.g     */
(PID.TID 0000.0001)                   /*  "mpirun -np 64 ......"                    */
(PID.TID 0000.0001) useCoupler=   F ; /* Flag used to control communications with   */
(PID.TID 0000.0001)                   /*  other model components, through a coupler */
(PID.TID 0000.0001) useNest2W_parent =    F ;/* Control 2-W Nesting comm */
(PID.TID 0000.0001) useNest2W_child  =    F ;/* Control 2-W Nesting comm */
(PID.TID 0000.0001) debugMode =    F ; /* print debug msg. (sequence of S/R calls)  */
(PID.TID 0000.0001) printMapIncludesZeros=    F ; /* print zeros in Std.Output maps */
(PID.TID 0000.0001) maxLengthPrt1D=   65 /* maxLength of 1D array printed to StdOut */
(PID.TID 0000.0001) 
(PID.TID 0000.0001) // ======================================================
(PID.TID 0000.0001) // Mapping of tiles to threads
(PID.TID 0000.0001) // ======================================================
(PID.TID 0000.0001) // -o- Thread   1, tiles (   1:   1,   1:   4)
(PID.TID 0000.0001) 
(PID.TID 0000.0001) // ======================================================
(PID.TID 0000.0001) // Tile <-> Tile connectvity table
(PID.TID 0000.0001) // ======================================================
(PID.TID 0000.0001) // Tile number: 000001 (process no. = 000000)
(PID.TID 0000.0001) //        WEST: Tile = 000001, Process = 000000, Comm = put
(PID.TID 0000.0001) //                bi = 000001, bj = 000001
(PID.TID 0000.0001) //        EAST: Tile = 000001, Process = 000000, Comm = put
(PID.TID 0000.0001) //                bi = 000001, bj = 000001
(PID.TID 0000.0001) //       SOUTH: Tile = 000004, Process = 000000, Comm = put
(PID.TID 0000.0001) //                bi = 000001, bj = 000004
(PID.TID 0000.0001) //       NORTH: Tile = 000002, Process = 000000, Comm = put
(PID.TID 0000.0001) //                bi = 000001, bj = 000002
(PID.TID 0000.0001) // Tile number: 000002 (process no. = 000000)
(PID.TID 0000.0001) //        WEST: Tile = 000002, Process = 000000, Comm = put
(PID.TID 0000.0001) //                bi = 000001, bj = 000002
(PID.TID 0000.0001) //        EAST: Tile = 000002, Process = 000000, Comm = put
(PID.TID 0000.0001) //                bi = 000001, bj = 000002
(PID.TID 0000.0001) //       SOUTH: Tile = 000001, Process = 000000, Comm = put
(PID.TID 0000.0001) //                bi = 000001, bj = 000001
(PID.TID 0000.0001) //       NORTH: Tile = 000003, Process = 000000, Comm = put
(PID.TID 0000.0001) //                bi = 000001, bj = 000003
(PID.TID 0000.0001) // Tile number: 000003 (process no. = 000000)
(PID.TID 0000.0001) //        WEST: Tile = 000003, Process = 000000, Comm = put
(PID.TID 0000.0001) //                bi = 000001, bj = 000003
(PID.TID 0000.0001) //        EAST: Tile = 000003, Process = 000000, Comm = put
(PID.TID 0000.0001) //                bi = 000001, bj = 000003
(PID.TID 0000.0001) //       SOUTH: Tile = 000002, Process = 000000, Comm = put
(PID.TID 0000.0001) //                bi = 000001, bj = 000002
(PID.TID 0000.0001) //       NORTH: Tile = 000004, Process = 000000, Comm = put
(PID.TID 0000.0001) //                bi = 000001, bj = 000004
(PID.TID 0000.0001) // Tile number: 000004 (process no. = 000000)
(PID.TID 0000.0001) //        WEST: Tile = 000004, Process = 000000, Comm = put
(PID.TID 0000.0001) //                bi = 000001, bj = 000004
(PID.TID 0000.0001) //        EAST: Tile = 000004, Process = 000000, Comm = put
(PID.TID 0000.0001) //                bi = 000001, bj = 000004
(PID.TID 0000.0001) //       SOUTH: Tile = 000003, Process = 000000, Comm = put
(PID.TID 0000.0001) //                bi = 000001, bj = 000003
(PID.TID 0000.0001) //       NORTH: Tile = 000001, Process = 000000, Comm = put
(PID.TID 0000.0001) //                bi = 000001, bj = 000001
(PID.TID 0000.0001) 
(PID.TID 0000.0001)  INI_PARMS: opening model parameter file "data"
(PID.TID 0000.0001)  OPEN_COPY_DATA_FILE: opening file data
(PID.TID 0000.0001) // =======================================================
(PID.TID 0000.0001) // Parameter file "data"
(PID.TID 0000.0001) // =======================================================
(PID.TID 0000.0001) ># Continuous equation parameters
(PID.TID 0000.0001) >#-note: rhoRefFile is used to turn on the anelastic formulation
(PID.TID 0000.0001) > &PARM01
(PID.TID 0000.0001) > rhoRefFile='rhoLin_x2.bin',
(PID.TID 0000.0001) > tRefFile='TRefFile.bin',
(PID.TID 0000.0001) > sRef=120*0.,
(PID.TID 0000.0001) > viscAh=1.E6,
(PID.TID 0000.0001) > viscAr=1.E6,
(PID.TID 0000.0001) > no_slip_sides=.FALSE.,
(PID.TID 0000.0001) > no_slip_bottom=.FALSE.,
(PID.TID 0000.0001) > diffKhT=1.E5,
(PID.TID 0000.0001) > diffKrT=1.E5,
(PID.TID 0000.0001) > rotationPeriod=86400.,
(PID.TID 0000.0001) > gravity=9.81,
(PID.TID 0000.0001) > rhoConst=1000.,
(PID.TID 0000.0001) > implicitFreeSurface=.TRUE.,
(PID.TID 0000.0001) > implicitDiffusion=.TRUE.,
(PID.TID 0000.0001) > implicitViscosity=.TRUE.,
(PID.TID 0000.0001) > tempAdvScheme=77,
(PID.TID 0000.0001) > staggerTimeStep=.TRUE.,
(PID.TID 0000.0001) > saltStepping=.FALSE.,
(PID.TID 0000.0001) > eosType='LINEAR',
(PID.TID 0000.0001) > vectorInvariantMomentum=.TRUE.,
(PID.TID 0000.0001) > nonHydrostatic=.TRUE.,
(PID.TID 0000.0001) > useNHMTerms=.TRUE.,
(PID.TID 0000.0001) > readBinaryPrec= 64,
(PID.TID 0000.0001) > writeBinaryPrec= 64,
(PID.TID 0000.0001) >#useSingleCpuIO=.TRUE.,
(PID.TID 0000.0001) >#debugLevel=1,
(PID.TID 0000.0001) > /
(PID.TID 0000.0001) >
(PID.TID 0000.0001) ># Elliptic solver parameters
(PID.TID 0000.0001) > &PARM02
(PID.TID 0000.0001) > cg2dMaxIters=1000,
(PID.TID 0000.0001) > cg2dTargetResidual=1.E-13,
(PID.TID 0000.0001) > cg3dMaxIters= 40,
(PID.TID 0000.0001) > cg3dTargetResidual=1.E-13,
(PID.TID 0000.0001) > /
(PID.TID 0000.0001) >
(PID.TID 0000.0001) ># Time stepping parameters
(PID.TID 0000.0001) > &PARM03
(PID.TID 0000.0001) > nIter0=0,
(PID.TID 0000.0001) > nTimeSteps=18,
(PID.TID 0000.0001) > deltaT=300.,
(PID.TID 0000.0001) > abEps=0.1,
(PID.TID 0000.0001) > pChkptFreq=86400.,
(PID.TID 0000.0001) > chkptFreq=0.,
(PID.TID 0000.0001) > dumpFreq=7200.,
(PID.TID 0000.0001) > monitorSelect=2,
(PID.TID 0000.0001) > monitorFreq=1.,
(PID.TID 0000.0001) > /
(PID.TID 0000.0001) >
(PID.TID 0000.0001) ># Gridding parameters
(PID.TID 0000.0001) > &PARM04
(PID.TID 0000.0001) > usingSphericalPolarGrid=.TRUE.,
(PID.TID 0000.0001) > deepAtmosphere=.TRUE.,
(PID.TID 0000.0001) > rSphere=6370.E+3,
(PID.TID 0000.0001) > delR=120*25.E+3,
(PID.TID 0000.0001) > delX=1*10.,
(PID.TID 0000.0001) > delY=160*1.,
(PID.TID 0000.0001) > ygOrigin=-80.,
(PID.TID 0000.0001) > /
(PID.TID 0000.0001) >
(PID.TID 0000.0001) ># Input datasets
(PID.TID 0000.0001) > &PARM05
(PID.TID 0000.0001) > bathyFile='bathymetry.bin',
(PID.TID 0000.0001) > hydrogThetaFile='init_temp.bin',
(PID.TID 0000.0001) > /
(PID.TID 0000.0001) 
(PID.TID 0000.0001)  INI_PARMS ; starts to read PARM01
(PID.TID 0000.0001)  INI_PARMS ; read PARM01 : OK
(PID.TID 0000.0001)  INI_PARMS ; starts to read PARM02
(PID.TID 0000.0001)  INI_PARMS ; read PARM02 : OK
(PID.TID 0000.0001)  INI_PARMS ; starts to read PARM03
(PID.TID 0000.0001)  INI_PARMS ; read PARM03 : OK
(PID.TID 0000.0001)  INI_PARMS ; starts to read PARM04
(PID.TID 0000.0001)  INI_PARMS ; read PARM04 : OK
(PID.TID 0000.0001)  INI_PARMS ; starts to read PARM05
(PID.TID 0000.0001)  INI_PARMS ; read PARM05 : OK
(PID.TID 0000.0001)  INI_PARMS: finished reading file "data"
(PID.TID 0000.0001)  PACKAGES_BOOT: opening data.pkg
(PID.TID 0000.0001)  OPEN_COPY_DATA_FILE: opening file data.pkg
(PID.TID 0000.0001) // =======================================================
(PID.TID 0000.0001) // Parameter file "data.pkg"
(PID.TID 0000.0001) // =======================================================
(PID.TID 0000.0001) ># Packages
(PID.TID 0000.0001) > &PACKAGES
(PID.TID 0000.0001) > useDiagnostics=.TRUE.,
(PID.TID 0000.0001) > /
(PID.TID 0000.0001) 
(PID.TID 0000.0001)  PACKAGES_BOOT: finished reading data.pkg
(PID.TID 0000.0001)  PACKAGES_BOOT: On/Off package Summary
 --------  pkgs with a standard "usePKG" On/Off switch in "data.pkg":  --------
 pkg/diagnostics          compiled   and   used ( useDiagnostics           = T )
 -------- pkgs without standard "usePKG" On/Off switch in "data.pkg":  --------
 pkg/generic_advdiff      compiled   and   used ( useGAD                   = T )
 pkg/mom_common           compiled   and   used ( momStepping              = T )
 pkg/mom_vecinv           compiled   and   used ( +vectorInvariantMomentum = T )
 pkg/mom_fluxform         compiled but not used ( & not vectorInvariantMom = F )
 pkg/monitor              compiled   and   used ( monitorFreq > 0.         = T )
 pkg/debug                compiled but not used ( debugMode                = F )
 pkg/rw                   compiled   and   used
 pkg/mdsio                compiled   and   used
(PID.TID 0000.0001)  PACKAGES_BOOT: End of package Summary
(PID.TID 0000.0001) 
(PID.TID 0000.0001)  DIAGNOSTICS_READPARMS: opening data.diagnostics
(PID.TID 0000.0001)  OPEN_COPY_DATA_FILE: opening file data.diagnostics
(PID.TID 0000.0001) // =======================================================
(PID.TID 0000.0001) // Parameter file "data.diagnostics"
(PID.TID 0000.0001) // =======================================================
(PID.TID 0000.0001) ># Diagnostics Package Choices
(PID.TID 0000.0001) >#--------------------
(PID.TID 0000.0001) >#  dumpAtLast (logical): always write output at the end of simulation (default=F)
(PID.TID 0000.0001) >#  diag_mnc   (logical): write to NetCDF files (default=useMNC)
(PID.TID 0000.0001) >#--for each output-stream:
(PID.TID 0000.0001) >#  fileName(n) : prefix of the output file name (max 80c long) for outp.stream n
(PID.TID 0000.0001) >#  frequency(n):< 0 : write snap-shot output every |frequency| seconds
(PID.TID 0000.0001) >#               > 0 : write time-average output every frequency seconds
(PID.TID 0000.0001) >#  timePhase(n)     : write at time = timePhase + multiple of |frequency|
(PID.TID 0000.0001) >#    averagingFreq  : frequency (in s) for periodic averaging interval
(PID.TID 0000.0001) >#    averagingPhase : phase     (in s) for periodic averaging interval
(PID.TID 0000.0001) >#    repeatCycle    : number of averaging intervals in 1 cycle
(PID.TID 0000.0001) >#  levels(:,n) : list of levels to write to file (Notes: declared as REAL)
(PID.TID 0000.0001) >#                when this entry is missing, select all common levels of this list
(PID.TID 0000.0001) >#  fields(:,n) : list of selected diagnostics fields (8.c) in outp.stream n
(PID.TID 0000.0001) >#                (see "available_diagnostics.log" file for the full list of diags)
(PID.TID 0000.0001) >#  missing_value(n) : missing value for real-type fields in output file "n"
(PID.TID 0000.0001) >#  fileFlags(n)     : specific code (8c string) for output file "n"
(PID.TID 0000.0001) >#--------------------
(PID.TID 0000.0001) > &DIAGNOSTICS_LIST
(PID.TID 0000.0001) ># diag_mnc     = .FALSE.,
(PID.TID 0000.0001) ># dumpAtLast   = .TRUE.,
(PID.TID 0000.0001) >#--
(PID.TID 0000.0001) >  fields(1,1) = 'RHOAnoma',
(PID.TID 0000.0001) >  fileName(1) = 'Rho',
(PID.TID 0000.0001) >  frequency(1) = 86400.,
(PID.TID 0000.0001) >
(PID.TID 0000.0001) >  fields(1,2) = 'PHIHYD  ',
(PID.TID 0000.0001) >  frequency(2) = 86400.,
(PID.TID 0000.0001) >  fileName(2) = 'P0',
(PID.TID 0000.0001) >
(PID.TID 0000.0001) >  fields(1,3) = 'DRHODR  ',
(PID.TID 0000.0001) >  fileName(3) = 'N2',
(PID.TID 0000.0001) >  frequency(3) = 86400.,
(PID.TID 0000.0001) > /
(PID.TID 0000.0001) >
(PID.TID 0000.0001) >#--------------------
(PID.TID 0000.0001) ># Parameter for Diagnostics of per level statistics:
(PID.TID 0000.0001) >#--------------------
(PID.TID 0000.0001) >#  diagSt_mnc (logical): write stat-diags to NetCDF files (default=diag_mnc)
(PID.TID 0000.0001) >#  diagSt_regMaskFile : file containing the region-mask to read-in
(PID.TID 0000.0001) >#  nSetRegMskFile   : number of region-mask sets within the region-mask file
(PID.TID 0000.0001) >#  set_regMask(i)   : region-mask set-index that identifies the region "i"
(PID.TID 0000.0001) >#  val_regMask(i)   : region "i" identifier value in the region mask
(PID.TID 0000.0001) >#--for each output-stream:
(PID.TID 0000.0001) >#  stat_fName(n) : prefix of the output file name (max 80c long) for outp.stream n
(PID.TID 0000.0001) >#  stat_freq(n):< 0 : write snap-shot output every |stat_freq| seconds
(PID.TID 0000.0001) >#               > 0 : write time-average output every stat_freq seconds
(PID.TID 0000.0001) >#  stat_phase(n)    : write at time = stat_phase + multiple of |stat_freq|
(PID.TID 0000.0001) >#  stat_region(:,n) : list of "regions" (default: 1 region only=global)
(PID.TID 0000.0001) >#  stat_fields(:,n) : list of selected diagnostics fields (8.c) in outp.stream n
(PID.TID 0000.0001) >#                (see "available_diagnostics.log" file for the full list of diags)
(PID.TID 0000.0001) >#--------------------
(PID.TID 0000.0001) > &DIAG_STATIS_PARMS
(PID.TID 0000.0001) >#---
(PID.TID 0000.0001) > stat_fields(1:6,1)  = 'ETAN    ','UVEL    ','VVEL    ','WVEL    ',
(PID.TID 0000.0001) >                       'THETA   ','Wm_Metr ',
(PID.TID 0000.0001) >#                      'Um_Metr ','Vm_Metr ',  <-- these 2 are empty
(PID.TID 0000.0001) >  stat_fName(1) = 'dynStDiag',
(PID.TID 0000.0001) >   stat_freq(1) = 1800.,
(PID.TID 0000.0001) > /
(PID.TID 0000.0001) 
(PID.TID 0000.0001) S/R DIAGNOSTICS_READPARMS, read namelist "diagnostics_list": start
(PID.TID 0000.0001) S/R DIAGNOSTICS_READPARMS, read namelist "diagnostics_list": OK
(PID.TID 0000.0001) S/R DIAGNOSTICS_READPARMS, read namelist "DIAG_STATIS_PARMS": start
(PID.TID 0000.0001) S/R DIAGNOSTICS_READPARMS, read namelist "DIAG_STATIS_PARMS": OK
(PID.TID 0000.0001) -----------------------------------------------------
(PID.TID 0000.0001)  DIAGNOSTICS_READPARMS: global parameter summary:
(PID.TID 0000.0001)  diag_dBugLevel = /* level of printed debug messages */
(PID.TID 0000.0001)                       2
(PID.TID 0000.0001)     ;
(PID.TID 0000.0001)  dumpAtLast = /* always write time-ave diags at the end */
(PID.TID 0000.0001)                   F
(PID.TID 0000.0001)     ;
(PID.TID 0000.0001)  diag_mnc =   /* write NetCDF output files */
(PID.TID 0000.0001)                   F
(PID.TID 0000.0001)     ;
(PID.TID 0000.0001)  useMissingValue = /* put MissingValue where mask = 0 */
(PID.TID 0000.0001)                   F
(PID.TID 0000.0001)     ;
(PID.TID 0000.0001)  diagCG_maxIters = /* max number of iters in diag_cg2d */
(PID.TID 0000.0001)                    1000
(PID.TID 0000.0001)     ;
(PID.TID 0000.0001)  diagCG_resTarget = /* residual target for diag_cg2d */
(PID.TID 0000.0001)                 1.000000000000000E-13
(PID.TID 0000.0001)     ;
(PID.TID 0000.0001)  diagCG_pcOffDFac = /* preconditioner off-diagonal factor */
(PID.TID 0000.0001)                 9.611687812379854E-01
(PID.TID 0000.0001)     ;
(PID.TID 0000.0001) -----------------------------------------------------
(PID.TID 0000.0001)  DIAGNOSTICS_READPARMS: active diagnostics summary:
(PID.TID 0000.0001) -----------------------------------------------------
(PID.TID 0000.0001) Creating Output Stream: Rho
(PID.TID 0000.0001) Output Frequency:      86400.000000 ; Phase:           0.000000
(PID.TID 0000.0001)  Averaging Freq.:      86400.000000 , Phase:           0.000000 , Cycle:   1
(PID.TID 0000.0001)  missing value: -9.990000000000E+02
(PID.TID 0000.0001)  Levels:    will be set later
(PID.TID 0000.0001)  Fields:    RHOAnoma
(PID.TID 0000.0001) Creating Output Stream: P0
(PID.TID 0000.0001) Output Frequency:      86400.000000 ; Phase:           0.000000
(PID.TID 0000.0001)  Averaging Freq.:      86400.000000 , Phase:           0.000000 , Cycle:   1
(PID.TID 0000.0001)  missing value: -9.990000000000E+02
(PID.TID 0000.0001)  Levels:    will be set later
(PID.TID 0000.0001)  Fields:    PHIHYD
(PID.TID 0000.0001) Creating Output Stream: N2
(PID.TID 0000.0001) Output Frequency:      86400.000000 ; Phase:           0.000000
(PID.TID 0000.0001)  Averaging Freq.:      86400.000000 , Phase:           0.000000 , Cycle:   1
(PID.TID 0000.0001)  missing value: -9.990000000000E+02
(PID.TID 0000.0001)  Levels:    will be set later
(PID.TID 0000.0001)  Fields:    DRHODR
(PID.TID 0000.0001) -----------------------------------------------------
(PID.TID 0000.0001)  DIAGNOSTICS_READPARMS: statistics diags. summary:
(PID.TID 0000.0001) Creating Stats. Output Stream: dynStDiag
(PID.TID 0000.0001) Output Frequency:       1800.000000 ; Phase:           0.000000
(PID.TID 0000.0001)  Regions:   0
(PID.TID 0000.0001)  Fields:    ETAN     UVEL     VVEL     WVEL     THETA    Wm_Metr
(PID.TID 0000.0001) -----------------------------------------------------
(PID.TID 0000.0001) 
(PID.TID 0000.0001) SET_PARMS: done
(PID.TID 0000.0001) Enter INI_VERTICAL_GRID: setInterFDr=    T ; setCenterDr=    F
(PID.TID 0000.0001) %MON XC_max                       =   5.0000000000000E+00
(PID.TID 0000.0001) %MON XC_min                       =   5.0000000000000E+00
(PID.TID 0000.0001) %MON XC_mean                      =   5.0000000000000E+00
(PID.TID 0000.0001) %MON XC_sd                        =   0.0000000000000E+00
(PID.TID 0000.0001) %MON XG_max                       =   0.0000000000000E+00
(PID.TID 0000.0001) %MON XG_min                       =   0.0000000000000E+00
(PID.TID 0000.0001) %MON XG_mean                      =   0.0000000000000E+00
(PID.TID 0000.0001) %MON XG_sd                        =   0.0000000000000E+00
(PID.TID 0000.0001) %MON DXC_max                      =   1.1117324005452E+06
(PID.TID 0000.0001) %MON DXC_min                      =   2.0260485279198E+05
(PID.TID 0000.0001) %MON DXC_mean                     =   7.8416312620425E+05
(PID.TID 0000.0001) %MON DXC_sd                       =   2.8072575688353E+05
(PID.TID 0000.0001) %MON DXF_max                      =   1.1117324005452E+06
(PID.TID 0000.0001) %MON DXF_min                      =   2.0260485279198E+05
(PID.TID 0000.0001) %MON DXF_mean                     =   7.8416312620425E+05
(PID.TID 0000.0001) %MON DXF_sd                       =   2.8072575688353E+05
(PID.TID 0000.0001) %MON DXG_max                      =   1.1117747335204E+06
(PID.TID 0000.0001) %MON DXG_min                      =   1.9305765645195E+05
(PID.TID 0000.0001) %MON DXG_mean                     =   7.8413326767521E+05
(PID.TID 0000.0001) %MON DXG_sd                       =   2.8078861897602E+05
(PID.TID 0000.0001) %MON DXV_max                      =   1.1117747335204E+06
(PID.TID 0000.0001) %MON DXV_min                      =   1.9305765645195E+05
(PID.TID 0000.0001) %MON DXV_mean                     =   7.8413326767521E+05
(PID.TID 0000.0001) %MON DXV_sd                       =   2.8078861897602E+05
(PID.TID 0000.0001) %MON YC_max                       =   7.9500000000000E+01
(PID.TID 0000.0001) %MON YC_min                       =  -7.9500000000000E+01
(PID.TID 0000.0001) %MON YC_mean                      =   0.0000000000000E+00
(PID.TID 0000.0001) %MON YC_sd                        =   4.6187119416565E+01
(PID.TID 0000.0001) %MON YG_max                       =   7.9000000000000E+01
(PID.TID 0000.0001) %MON YG_min                       =  -8.0000000000000E+01
(PID.TID 0000.0001) %MON YG_mean                      =  -5.0000000000000E-01
(PID.TID 0000.0001) %MON YG_sd                        =   4.6187119416565E+01
(PID.TID 0000.0001) %MON DYC_max                      =   1.1117747335204E+05
(PID.TID 0000.0001) %MON DYC_min                      =   1.1117747335204E+05
(PID.TID 0000.0001) %MON DYC_mean                     =   1.1117747335204E+05
(PID.TID 0000.0001) %MON DYC_sd                       =   2.9103830456734E-11
(PID.TID 0000.0001) %MON DYF_max                      =   1.1117747335204E+05
(PID.TID 0000.0001) %MON DYF_min                      =   1.1117747335204E+05
(PID.TID 0000.0001) %MON DYF_mean                     =   1.1117747335204E+05
(PID.TID 0000.0001) %MON DYF_sd                       =   2.9103830456734E-11
(PID.TID 0000.0001) %MON DYG_max                      =   1.1117747335204E+05
(PID.TID 0000.0001) %MON DYG_min                      =   1.1117747335204E+05
(PID.TID 0000.0001) %MON DYG_mean                     =   1.1117747335204E+05
(PID.TID 0000.0001) %MON DYG_sd                       =   2.9103830456734E-11
(PID.TID 0000.0001) %MON DYU_max                      =   1.1117747335204E+05
(PID.TID 0000.0001) %MON DYU_min                      =   1.1117747335204E+05
(PID.TID 0000.0001) %MON DYU_mean                     =   1.1117747335204E+05
(PID.TID 0000.0001) %MON DYU_sd                       =   2.9103830456734E-11
(PID.TID 0000.0001) %MON RA_max                       =   1.2359803056756E+11
(PID.TID 0000.0001) %MON RA_min                       =   2.2524809726008E+10
(PID.TID 0000.0001) %MON RA_mean                      =   8.7180168532477E+10
(PID.TID 0000.0001) %MON RA_sd                        =   3.1209984222261E+10
(PID.TID 0000.0001) %MON RAW_max                      =   1.2359803056756E+11
(PID.TID 0000.0001) %MON RAW_min                      =   2.2524809726008E+10
(PID.TID 0000.0001) %MON RAW_mean                     =   8.7180168532477E+10
(PID.TID 0000.0001) %MON RAW_sd                       =   3.1209984222261E+10
(PID.TID 0000.0001) %MON RAS_max                      =   1.2360273698104E+11
(PID.TID 0000.0001) %MON RAS_min                      =   2.1463390031403E+10
(PID.TID 0000.0001) %MON RAS_mean                     =   8.7176848978794E+10
(PID.TID 0000.0001) %MON RAS_sd                       =   3.1216972982169E+10
(PID.TID 0000.0001) %MON RAZ_max                      =   1.2360273698104E+11
(PID.TID 0000.0001) %MON RAZ_min                      =   2.1463390031403E+10
(PID.TID 0000.0001) %MON RAZ_mean                     =   8.7176848978794E+10
(PID.TID 0000.0001) %MON RAZ_sd                       =   3.1216972982169E+10
(PID.TID 0000.0001) %MON AngleCS_max                  =   1.0000000000000E+00
(PID.TID 0000.0001) %MON AngleCS_min                  =   1.0000000000000E+00
(PID.TID 0000.0001) %MON AngleCS_mean                 =   1.0000000000000E+00
(PID.TID 0000.0001) %MON AngleCS_sd                   =   0.0000000000000E+00
(PID.TID 0000.0001) %MON AngleSN_max                  =   0.0000000000000E+00
(PID.TID 0000.0001) %MON AngleSN_min                  =   0.0000000000000E+00
(PID.TID 0000.0001) %MON AngleSN_mean                 =   0.0000000000000E+00
(PID.TID 0000.0001) %MON AngleSN_sd                   =   0.0000000000000E+00
(PID.TID 0000.0001)  MDS_READVEC_LOC: open file: TRefFile.bin
(PID.TID 0000.0001) S/R LOAD_REF_FILES: tRef loaded from file: TRefFile.bin
(PID.TID 0000.0001)  MDS_READVEC_LOC: open file: rhoLin_x2.bin
(PID.TID 0000.0001) S/R LOAD_REF_FILES: rho1Ref loaded from file: rhoLin_x2.bin
(PID.TID 0000.0001)  MDS_READ_FIELD: opening global file: bathymetry.bin
(PID.TID 0000.0001) // =======================================================
(PID.TID 0000.0001) // Field Model R_low (ini_masks_etc)
(PID.TID 0000.0001) // CMIN =         -3.000000000000000E+06
(PID.TID 0000.0001) // CMAX =         -3.000000000000000E+06
(PID.TID 0000.0001) // CINT =          0.000000000000000E+00
(PID.TID 0000.0001) // SYMBOLS (CMIN->CMAX): -abcdefghijklmnopqrstuvwxyz+
(PID.TID 0000.0001) //                  0.0: .
(PID.TID 0000.0001) // RANGE I (Lo:Hi:Step):(    -1:     3:     1)
(PID.TID 0000.0001) // RANGE J (Lo:Hi:Step):(   162:    -1:    -1)
(PID.TID 0000.0001) // RANGE K (Lo:Hi:Step):(   1:   1:   1)
(PID.TID 0000.0001) // =======================================================
(PID.TID 0000.0001) // =======================================================
(PID.TID 0000.0001) // END OF FIELD                                          =
(PID.TID 0000.0001) // =======================================================
(PID.TID 0000.0001) 
(PID.TID 0000.0001) // =======================================================
(PID.TID 0000.0001) // Field Model Ro_surf (ini_masks_etc)
(PID.TID 0000.0001) // CMIN =          1.000000000000000E+32
(PID.TID 0000.0001) // CMAX =         -1.000000000000000E+32
(PID.TID 0000.0001) // CINT =          0.000000000000000E+00
(PID.TID 0000.0001) // SYMBOLS (CMIN->CMAX): -abcdefghijklmnopqrstuvwxyz+
(PID.TID 0000.0001) //                  0.0: .
(PID.TID 0000.0001) // RANGE I (Lo:Hi:Step):(    -1:     3:     1)
(PID.TID 0000.0001) // RANGE J (Lo:Hi:Step):(   162:    -1:    -1)
(PID.TID 0000.0001) // RANGE K (Lo:Hi:Step):(   1:   1:   1)
(PID.TID 0000.0001) // =======================================================
(PID.TID 0000.0001) // =======================================================
(PID.TID 0000.0001) // END OF FIELD                                          =
(PID.TID 0000.0001) // =======================================================
(PID.TID 0000.0001) 
(PID.TID 0000.0001) // =======================================================
(PID.TID 0000.0001) // Field hFacC at iteration          0
(PID.TID 0000.0001) // CMIN =          1.000000000000000E+00
(PID.TID 0000.0001) // CMAX =          1.000000000000000E+00
(PID.TID 0000.0001) // CINT =          0.000000000000000E+00
(PID.TID 0000.0001) // SYMBOLS (CMIN->CMAX): -abcdefghijklmnopqrstuvwxyz+
(PID.TID 0000.0001) //                  0.0: .
(PID.TID 0000.0001) // RANGE I (Lo:Hi:Step):(    -1:     3:     1)
(PID.TID 0000.0001) // RANGE J (Lo:Hi:Step):(   162:    -1:    -1)
(PID.TID 0000.0001) // RANGE K (Lo:Hi:Step):(   1:   1:   1)
(PID.TID 0000.0001) // =======================================================
(PID.TID 0000.0001) // =======================================================
(PID.TID 0000.0001) // END OF FIELD                                          =
(PID.TID 0000.0001) // =======================================================
(PID.TID 0000.0001) 
(PID.TID 0000.0001) // =======================================================
(PID.TID 0000.0001) // Field hFacW at iteration          0
(PID.TID 0000.0001) // CMIN =          1.000000000000000E+00
(PID.TID 0000.0001) // CMAX =          1.000000000000000E+00
(PID.TID 0000.0001) // CINT =          0.000000000000000E+00
(PID.TID 0000.0001) // SYMBOLS (CMIN->CMAX): -abcdefghijklmnopqrstuvwxyz+
(PID.TID 0000.0001) //                  0.0: .
(PID.TID 0000.0001) // RANGE I (Lo:Hi:Step):(    -1:     3:     1)
(PID.TID 0000.0001) // RANGE J (Lo:Hi:Step):(   162:    -1:    -1)
(PID.TID 0000.0001) // RANGE K (Lo:Hi:Step):(   1:   1:   1)
(PID.TID 0000.0001) // =======================================================
(PID.TID 0000.0001) // =======================================================
(PID.TID 0000.0001) // END OF FIELD                                          =
(PID.TID 0000.0001) // =======================================================
(PID.TID 0000.0001) 
(PID.TID 0000.0001) // =======================================================
(PID.TID 0000.0001) // Field hFacS at iteration          0
(PID.TID 0000.0001) // CMIN =          1.000000000000000E+00
(PID.TID 0000.0001) // CMAX =          1.000000000000000E+00
(PID.TID 0000.0001) // CINT =          0.000000000000000E+00
(PID.TID 0000.0001) // SYMBOLS (CMIN->CMAX): -abcdefghijklmnopqrstuvwxyz+
(PID.TID 0000.0001) //                  0.0: .
(PID.TID 0000.0001) // RANGE I (Lo:Hi:Step):(    -1:     3:     1)
(PID.TID 0000.0001) // RANGE J (Lo:Hi:Step):(   162:    -1:    -1)
(PID.TID 0000.0001) // RANGE K (Lo:Hi:Step):(   1:   1:   1)
(PID.TID 0000.0001) // =======================================================
(PID.TID 0000.0001) // =======================================================
(PID.TID 0000.0001) // END OF FIELD                                          =
(PID.TID 0000.0001) // =======================================================
(PID.TID 0000.0001) 
(PID.TID 0000.0001) GAD_INIT_FIXED: GAD_OlMinSize=  2  0  1
(PID.TID 0000.0001) 
(PID.TID 0000.0001) // ===================================
(PID.TID 0000.0001) // GAD parameters :
(PID.TID 0000.0001) // ===================================
(PID.TID 0000.0001) tempAdvScheme =   /* Temp. Horiz.Advection scheme selector */
(PID.TID 0000.0001)                      77
(PID.TID 0000.0001)     ;
(PID.TID 0000.0001) tempVertAdvScheme =   /* Temp. Vert. Advection scheme selector */
(PID.TID 0000.0001)                      77
(PID.TID 0000.0001)     ;
(PID.TID 0000.0001) tempMultiDimAdvec =   /* use Muti-Dim Advec method for Temp */
(PID.TID 0000.0001)                   T
(PID.TID 0000.0001)     ;
(PID.TID 0000.0001) tempSOM_Advection = /* use 2nd Order Moment Advection for Temp */
(PID.TID 0000.0001)                   F
(PID.TID 0000.0001)     ;
(PID.TID 0000.0001) AdamsBashforthGt = /* apply Adams-Bashforth extrapolation on Gt */
(PID.TID 0000.0001)                   F
(PID.TID 0000.0001)     ;
(PID.TID 0000.0001) AdamsBashforth_T = /* apply Adams-Bashforth extrapolation on Temp */
(PID.TID 0000.0001)                   F
(PID.TID 0000.0001)     ;
(PID.TID 0000.0001) saltAdvScheme =   /* Salt. Horiz.advection scheme selector */
(PID.TID 0000.0001)                       2
(PID.TID 0000.0001)     ;
(PID.TID 0000.0001) saltVertAdvScheme =   /* Salt. Vert. Advection scheme selector */
(PID.TID 0000.0001)                       2
(PID.TID 0000.0001)     ;
(PID.TID 0000.0001) saltMultiDimAdvec =   /* use Muti-Dim Advec method for Salt */
(PID.TID 0000.0001)                   F
(PID.TID 0000.0001)     ;
(PID.TID 0000.0001) saltSOM_Advection = /* use 2nd Order Moment Advection for Salt */
(PID.TID 0000.0001)                   F
(PID.TID 0000.0001)     ;
(PID.TID 0000.0001) AdamsBashforthGs = /* apply Adams-Bashforth extrapolation on Gs */
(PID.TID 0000.0001)                   F
(PID.TID 0000.0001)     ;
(PID.TID 0000.0001) AdamsBashforth_S = /* apply Adams-Bashforth extrapolation on Salt */
(PID.TID 0000.0001)                   F
(PID.TID 0000.0001)     ;
(PID.TID 0000.0001) // ===================================
(PID.TID 0000.0001) ------------------------------------------------------------
(PID.TID 0000.0001) DIAGNOSTICS_SET_LEVELS: done
(PID.TID 0000.0001)  Total Nb of available Diagnostics: ndiagt=   197
(PID.TID 0000.0001)  write list of available Diagnostics to file: available_diagnostics.log
(PID.TID 0000.0001) SETDIAG: Allocate120 x  1 Levels for Diagnostic #    64 RHOAnoma
(PID.TID 0000.0001) SETDIAG: Allocate120 x  1 Levels for Diagnostic #    71 PHIHYD
(PID.TID 0000.0001) SETDIAG: Allocate120 x  1 Levels for Diagnostic #    78 DRHODR
(PID.TID 0000.0001)   space allocated for all diagnostics:     360 levels
(PID.TID 0000.0001) DIAGNOSTICS_SET_POINTERS: Set levels for Outp.Stream: Rho
(PID.TID 0000.0001)  Levels:       1.   2.   3.   4.   5.   6.   7.   8.   9.  10.  11.  12.  13.  14.  15.  16.  17.  18.  19.  20.
(PID.TID 0000.0001)  Levels:      21.  22.  23.  24.  25.  26.  27.  28.  29.  30.  31.  32.  33.  34.  35.  36.  37.  38.  39.  40.
(PID.TID 0000.0001)  Levels:      41.  42.  43.  44.  45.  46.  47.  48.  49.  50.  51.  52.  53.  54.  55.  56.  57.  58.  59.  60.
(PID.TID 0000.0001)  Levels:      61.  62.  63.  64.  65.  66.  67.  68.  69.  70.  71.  72.  73.  74.  75.  76.  77.  78.  79.  80.
(PID.TID 0000.0001)  Levels:      81.  82.  83.  84.  85.  86.  87.  88.  89.  90.  91.  92.  93.  94.  95.  96.  97.  98.  99. 100.
(PID.TID 0000.0001)  Levels:     101. 102. 103. 104. 105. 106. 107. 108. 109. 110. 111. 112. 113. 114. 115. 116. 117. 118. 119. 120.
(PID.TID 0000.0001) DIAGNOSTICS_SET_POINTERS: Set levels for Outp.Stream: P0
(PID.TID 0000.0001)  Levels:       1.   2.   3.   4.   5.   6.   7.   8.   9.  10.  11.  12.  13.  14.  15.  16.  17.  18.  19.  20.
(PID.TID 0000.0001)  Levels:      21.  22.  23.  24.  25.  26.  27.  28.  29.  30.  31.  32.  33.  34.  35.  36.  37.  38.  39.  40.
(PID.TID 0000.0001)  Levels:      41.  42.  43.  44.  45.  46.  47.  48.  49.  50.  51.  52.  53.  54.  55.  56.  57.  58.  59.  60.
(PID.TID 0000.0001)  Levels:      61.  62.  63.  64.  65.  66.  67.  68.  69.  70.  71.  72.  73.  74.  75.  76.  77.  78.  79.  80.
(PID.TID 0000.0001)  Levels:      81.  82.  83.  84.  85.  86.  87.  88.  89.  90.  91.  92.  93.  94.  95.  96.  97.  98.  99. 100.
(PID.TID 0000.0001)  Levels:     101. 102. 103. 104. 105. 106. 107. 108. 109. 110. 111. 112. 113. 114. 115. 116. 117. 118. 119. 120.
(PID.TID 0000.0001) DIAGNOSTICS_SET_POINTERS: Set levels for Outp.Stream: N2
(PID.TID 0000.0001)  Levels:       1.   2.   3.   4.   5.   6.   7.   8.   9.  10.  11.  12.  13.  14.  15.  16.  17.  18.  19.  20.
(PID.TID 0000.0001)  Levels:      21.  22.  23.  24.  25.  26.  27.  28.  29.  30.  31.  32.  33.  34.  35.  36.  37.  38.  39.  40.
(PID.TID 0000.0001)  Levels:      41.  42.  43.  44.  45.  46.  47.  48.  49.  50.  51.  52.  53.  54.  55.  56.  57.  58.  59.  60.
(PID.TID 0000.0001)  Levels:      61.  62.  63.  64.  65.  66.  67.  68.  69.  70.  71.  72.  73.  74.  75.  76.  77.  78.  79.  80.
(PID.TID 0000.0001)  Levels:      81.  82.  83.  84.  85.  86.  87.  88.  89.  90.  91.  92.  93.  94.  95.  96.  97.  98.  99. 100.
(PID.TID 0000.0001)  Levels:     101. 102. 103. 104. 105. 106. 107. 108. 109. 110. 111. 112. 113. 114. 115. 116. 117. 118. 119. 120.
(PID.TID 0000.0001) DIAGNOSTICS_SET_POINTERS: done, use     360 levels (numDiags =    1200 )
(PID.TID 0000.0001) ------------------------------------------------------------
(PID.TID 0000.0001) DIAGSTATS_SET_REGIONS: define no region
(PID.TID 0000.0001) ------------------------------------------------------------
(PID.TID 0000.0001) SETDIAG: Allocate  1 Levels for Stats-Diag #    23 ETAN
(PID.TID 0000.0001) SETDIAG: Allocate120 Levels for Stats-Diag #    30 UVEL
(PID.TID 0000.0001) SETDIAG: Allocate120 Levels for Stats-Diag #    31 VVEL
(PID.TID 0000.0001) SETDIAG: Allocate120 Levels for Stats-Diag #    32 WVEL
(PID.TID 0000.0001) SETDIAG: Allocate120 Levels for Stats-Diag #    26 THETA
(PID.TID 0000.0001) SETDIAG: Allocate120 Levels for Stats-Diag #   181 Wm_Metr
(PID.TID 0000.0001)   space allocated for all stats-diags:     601 levels
(PID.TID 0000.0001) DIAGSTATS_SET_POINTERS: done, use     601 levels (diagSt_size=    1200 )
(PID.TID 0000.0001) ------------------------------------------------------------
(PID.TID 0000.0001) %MON fCori_max                    =   1.4300862936153E-04
(PID.TID 0000.0001) %MON fCori_min                    =  -1.4300862936153E-04
(PID.TID 0000.0001) %MON fCori_mean                   =  -5.4210108624275E-21
(PID.TID 0000.0001) %MON fCori_sd                     =   9.6340490564563E-05
(PID.TID 0000.0001) %MON fCoriG_max                   =   1.4277188648533E-04
(PID.TID 0000.0001) %MON fCoriG_min                   =  -1.4323448157692E-04
(PID.TID 0000.0001) %MON fCoriG_mean                  =  -8.9521550985573E-07
(PID.TID 0000.0001) %MON fCoriG_sd                    =   9.6337355282818E-05
(PID.TID 0000.0001) %MON fCoriCos_max                 =   1.4543856626703E-04
(PID.TID 0000.0001) %MON fCoriCos_min                 =   2.6505082782834E-05
(PID.TID 0000.0001) %MON fCoriCos_mean                =   1.0258544298852E-04
(PID.TID 0000.0001) %MON fCoriCos_sd                  =   3.6724981277280E-05
(PID.TID 0000.0001) INI_CG2D: CG2D normalisation factor =  3.3333333333333334E-08
(PID.TID 0000.0001) 
(PID.TID 0000.0001) INI_CG3D: CG3D normalisation factor =  2.0386565637156620E-07
(PID.TID 0000.0001) 
(PID.TID 0000.0001) // =======================================================
(PID.TID 0000.0001) // Model configuration
(PID.TID 0000.0001) // =======================================================
(PID.TID 0000.0001) //
(PID.TID 0000.0001) // "Physical" paramters ( PARM01 in namelist )
(PID.TID 0000.0001) //
(PID.TID 0000.0001) buoyancyRelation = /* Type of relation to get Buoyancy */
(PID.TID 0000.0001)               'OCEANIC'
(PID.TID 0000.0001)     ;
(PID.TID 0000.0001) fluidIsAir   =  /* fluid major constituent is Air */
(PID.TID 0000.0001)                   F
(PID.TID 0000.0001)     ;
(PID.TID 0000.0001) fluidIsWater =  /* fluid major constituent is Water */
(PID.TID 0000.0001)                   T
(PID.TID 0000.0001)     ;
(PID.TID 0000.0001) usingPCoords =  /* use p (or p*) vertical coordinate */
(PID.TID 0000.0001)                   F
(PID.TID 0000.0001)     ;
(PID.TID 0000.0001) usingZCoords =  /* use z (or z*) vertical coordinate */
(PID.TID 0000.0001)                   T
(PID.TID 0000.0001)     ;
(PID.TID 0000.0001) tRef =   /* Reference temperature profile ( oC or K ) */
(PID.TID 0000.0001)   120 @  1.000000000000000E+00              /* K =  1:120 */
(PID.TID 0000.0001)     ;
(PID.TID 0000.0001) sRef =   /* Reference salinity profile ( g/kg ) */
(PID.TID 0000.0001)   120 @  0.000000000000000E+00              /* K =  1:120 */
(PID.TID 0000.0001)     ;
(PID.TID 0000.0001) rhoRef =   /* Density vertical profile from (Ref,sRef)( kg/m^3 ) */
(PID.TID 0000.0001)   120 @  9.998000000000000E+02              /* K =  1:120 */
(PID.TID 0000.0001)     ;
(PID.TID 0000.0001) dBdrRef = /* Vertical grad. of reference buoyancy [(m/s/r)^2] */
(PID.TID 0000.0001)   120 @  0.000000000000000E+00              /* K =  1:120 */
(PID.TID 0000.0001)     ;
(PID.TID 0000.0001) useStrainTensionVisc= /* Use StrainTension Form of Viscous Operator */
(PID.TID 0000.0001)                   F
(PID.TID 0000.0001)     ;
(PID.TID 0000.0001) useVariableVisc = /* Use variable horizontal viscosity */
(PID.TID 0000.0001)                   F
(PID.TID 0000.0001)     ;
(PID.TID 0000.0001) useHarmonicVisc = /* Use harmonic horizontal viscosity */
(PID.TID 0000.0001)                   T
(PID.TID 0000.0001)     ;
(PID.TID 0000.0001) useBiharmonicVisc= /* Use biharmonic horiz.  viscosity */
(PID.TID 0000.0001)                   F
(PID.TID 0000.0001)     ;
(PID.TID 0000.0001) useSmag3D = /* Use isotropic 3-D Smagorinsky viscosity */
(PID.TID 0000.0001)                   F
(PID.TID 0000.0001)     ;
(PID.TID 0000.0001) viscAh  =   /* Lateral harmonic viscosity ( m^2/s ) */
(PID.TID 0000.0001)                 1.000000000000000E+06
(PID.TID 0000.0001)     ;
(PID.TID 0000.0001) viscAhW =   /* Lateral harmonic viscosity in W eq. ( m^2/s ) */
(PID.TID 0000.0001)                 1.000000000000000E+06
(PID.TID 0000.0001)     ;
(PID.TID 0000.0001) viscA4  =   /* Lateral biharmonic viscosity ( m^4/s ) */
(PID.TID 0000.0001)                 0.000000000000000E+00
(PID.TID 0000.0001)     ;
(PID.TID 0000.0001) viscA4W =   /* Lateral biharmonic viscosity in W eq. ( m^2/s ) */
(PID.TID 0000.0001)                 0.000000000000000E+00
(PID.TID 0000.0001)     ;
(PID.TID 0000.0001) no_slip_sides =  /* Viscous BCs: No-slip sides */
(PID.TID 0000.0001)                   F
(PID.TID 0000.0001)     ;
(PID.TID 0000.0001) sideDragFactor = /* side-drag scaling factor (non-dim) */
(PID.TID 0000.0001)                 2.000000000000000E+00
(PID.TID 0000.0001)     ;
(PID.TID 0000.0001) viscArNr = /* vertical profile of vertical viscosity ( m^2/s )*/
(PID.TID 0000.0001)   120 @  1.000000000000000E+06              /* K =  1:120 */
(PID.TID 0000.0001)     ;
(PID.TID 0000.0001) no_slip_bottom =  /* Viscous BCs: No-slip bottom */
(PID.TID 0000.0001)                   F
(PID.TID 0000.0001)     ;
(PID.TID 0000.0001) bottomVisc_pCell = /* Partial-cell in bottom Visc. BC */
(PID.TID 0000.0001)                   F
(PID.TID 0000.0001)     ;
(PID.TID 0000.0001) bottomDragLinear = /* linear bottom-drag coefficient ( m/s ) */
(PID.TID 0000.0001)                 0.000000000000000E+00
(PID.TID 0000.0001)     ;
(PID.TID 0000.0001) bottomDragQuadratic = /* quadratic bottom-drag coefficient (-) */
(PID.TID 0000.0001)                 0.000000000000000E+00
(PID.TID 0000.0001)     ;
(PID.TID 0000.0001) selectBotDragQuadr = /* select quadratic bottom drag options */
(PID.TID 0000.0001)                      -1
(PID.TID 0000.0001)     ;
(PID.TID 0000.0001) diffKhT =   /* Laplacian diffusion of heat laterally ( m^2/s ) */
(PID.TID 0000.0001)                 1.000000000000000E+05
(PID.TID 0000.0001)     ;
(PID.TID 0000.0001) diffK4T =   /* Biharmonic diffusion of heat laterally ( m^4/s ) */
(PID.TID 0000.0001)                 0.000000000000000E+00
(PID.TID 0000.0001)     ;
(PID.TID 0000.0001) diffKhS =   /* Laplacian diffusion of salt laterally ( m^2/s ) */
(PID.TID 0000.0001)                 0.000000000000000E+00
(PID.TID 0000.0001)     ;
(PID.TID 0000.0001) diffK4S =   /* Biharmonic diffusion of salt laterally ( m^4/s ) */
(PID.TID 0000.0001)                 0.000000000000000E+00
(PID.TID 0000.0001)     ;
(PID.TID 0000.0001) diffKrNrT = /* vertical profile of vertical diffusion of Temp ( m^2/s )*/
(PID.TID 0000.0001)   120 @  1.000000000000000E+05              /* K =  1:120 */
(PID.TID 0000.0001)     ;
(PID.TID 0000.0001) diffKrNrS = /* vertical profile of vertical diffusion of Salt ( m^2/s )*/
(PID.TID 0000.0001)   120 @  1.000000000000000E+05              /* K =  1:120 */
(PID.TID 0000.0001)     ;
(PID.TID 0000.0001) diffKrBL79surf = /* Surface diffusion for Bryan and Lewis 79 ( m^2/s ) */
(PID.TID 0000.0001)                 0.000000000000000E+00
(PID.TID 0000.0001)     ;
(PID.TID 0000.0001) diffKrBL79deep = /* Deep diffusion for Bryan and Lewis 1979 ( m^2/s ) */
(PID.TID 0000.0001)                 0.000000000000000E+00
(PID.TID 0000.0001)     ;
(PID.TID 0000.0001) diffKrBL79scl = /* Depth scale for Bryan and Lewis 1979 ( m ) */
(PID.TID 0000.0001)                 2.000000000000000E+02
(PID.TID 0000.0001)     ;
(PID.TID 0000.0001) diffKrBL79Ho = /* Turning depth for Bryan and Lewis 1979 ( m ) */
(PID.TID 0000.0001)                -2.000000000000000E+03
(PID.TID 0000.0001)     ;
(PID.TID 0000.0001) ivdc_kappa = /* Implicit Vertical Diffusivity for Convection ( m^2/s) */
(PID.TID 0000.0001)                 0.000000000000000E+00
(PID.TID 0000.0001)     ;
(PID.TID 0000.0001) hMixCriteria=  /* Criteria for mixed-layer diagnostic */
(PID.TID 0000.0001)                -8.000000000000000E-01
(PID.TID 0000.0001)     ;
(PID.TID 0000.0001) dRhoSmall =  /* Parameter for mixed-layer diagnostic */
(PID.TID 0000.0001)                 1.000000000000000E-06
(PID.TID 0000.0001)     ;
(PID.TID 0000.0001) hMixSmooth=  /* Smoothing parameter for mixed-layer diagnostic */
(PID.TID 0000.0001)                 0.000000000000000E+00
(PID.TID 0000.0001)     ;
(PID.TID 0000.0001) eosType =  /* Type of Equation of State */
(PID.TID 0000.0001)               'LINEAR'
(PID.TID 0000.0001)     ;
(PID.TID 0000.0001) tAlpha = /* Linear EOS thermal expansion coefficient ( 1/oC ) */
(PID.TID 0000.0001)                 2.000000000000000E-04
(PID.TID 0000.0001)     ;
(PID.TID 0000.0001) sBeta  = /* Linear EOS haline contraction coefficient ( 1/(g/kg) ) */
(PID.TID 0000.0001)                 7.400000000000000E-04
(PID.TID 0000.0001)     ;
(PID.TID 0000.0001) rhoNil    = /* Reference density for Linear EOS ( kg/m^3 ) */
(PID.TID 0000.0001)                 9.998000000000000E+02
(PID.TID 0000.0001)     ;
(PID.TID 0000.0001) selectP_inEOS_Zc = /* select pressure to use in EOS (0,1,2,3) */
(PID.TID 0000.0001)                       0
(PID.TID 0000.0001)     0= -g*rhoConst*z ; 1= pRef (from tRef,sRef); 2= Hyd P ; 3= Hyd+NH P
(PID.TID 0000.0001)     ;
(PID.TID 0000.0001) surf_pRef = /* Surface reference pressure ( Pa ) */
(PID.TID 0000.0001)                 1.013250000000000E+05
(PID.TID 0000.0001)     ;
(PID.TID 0000.0001) HeatCapacity_Cp =  /* Specific heat capacity ( J/kg/K ) */
(PID.TID 0000.0001)                 3.994000000000000E+03
(PID.TID 0000.0001)     ;
(PID.TID 0000.0001) celsius2K = /* 0 degree Celsius converted to Kelvin ( K ) */
(PID.TID 0000.0001)                 2.731500000000000E+02
(PID.TID 0000.0001)     ;
(PID.TID 0000.0001) rhoConst  = /* Reference density (Boussinesq)  ( kg/m^3 ) */
(PID.TID 0000.0001)                 1.000000000000000E+03
(PID.TID 0000.0001)     ;
(PID.TID 0000.0001) rhoFacC = /* normalized Reference density @ cell-Center (-) */
(PID.TID 0000.0001)                 1.004000000000000E+00,      /* K =  1 */
(PID.TID 0000.0001)                 1.012000000000000E+00,      /* K =  2 */
(PID.TID 0000.0001)                 1.020000000000000E+00,      /* K =  3 */
(PID.TID 0000.0001)                 1.028000000000000E+00,      /* K =  4 */
(PID.TID 0000.0001)                 1.036000000000000E+00,      /* K =  5 */
(PID.TID 0000.0001)                 1.044000000000000E+00,      /* K =  6 */
(PID.TID 0000.0001)                 1.052000000000000E+00,      /* K =  7 */
(PID.TID 0000.0001)                 1.060000000000000E+00,      /* K =  8 */
(PID.TID 0000.0001)                 1.068000000000000E+00,      /* K =  9 */
(PID.TID 0000.0001)                 1.076000000000000E+00,      /* K = 10 */
(PID.TID 0000.0001)                 1.084000000000000E+00,      /* K = 11 */
(PID.TID 0000.0001)                 1.092000000000000E+00,      /* K = 12 */
(PID.TID 0000.0001)                 1.100000000000000E+00,      /* K = 13 */
(PID.TID 0000.0001)                 1.108000000000000E+00,      /* K = 14 */
(PID.TID 0000.0001)                 1.116000000000000E+00,      /* K = 15 */
(PID.TID 0000.0001)                 1.124000000000000E+00,      /* K = 16 */
(PID.TID 0000.0001)                 1.132000000000000E+00,      /* K = 17 */
(PID.TID 0000.0001)                 1.140000000000000E+00,      /* K = 18 */
(PID.TID 0000.0001)                 1.148000000000000E+00,      /* K = 19 */
(PID.TID 0000.0001)                 1.156000000000000E+00,      /* K = 20 */
(PID.TID 0000.0001)                 1.164000000000000E+00,      /* K = 21 */
(PID.TID 0000.0001)                 1.172000000000000E+00,      /* K = 22 */
(PID.TID 0000.0001)                 1.180000000000000E+00,      /* K = 23 */
(PID.TID 0000.0001)                 1.188000000000000E+00,      /* K = 24 */
(PID.TID 0000.0001)                 1.196000000000000E+00,      /* K = 25 */
(PID.TID 0000.0001)                 1.204000000000000E+00,      /* K = 26 */
(PID.TID 0000.0001)                 1.212000000000000E+00,      /* K = 27 */
(PID.TID 0000.0001)                 1.220000000000000E+00,      /* K = 28 */
(PID.TID 0000.0001)                 1.228000000000000E+00,      /* K = 29 */
(PID.TID 0000.0001)                 1.236000000000000E+00,      /* K = 30 */
(PID.TID 0000.0001)                 1.244000000000000E+00,      /* K = 31 */
(PID.TID 0000.0001)                 1.252000000000000E+00,      /* K = 32 */
(PID.TID 0000.0001)                 1.260000000000000E+00,      /* K = 33 */
(PID.TID 0000.0001)                 1.268000000000000E+00,      /* K = 34 */
(PID.TID 0000.0001)                 1.276000000000000E+00,      /* K = 35 */
(PID.TID 0000.0001)                 1.284000000000000E+00,      /* K = 36 */
(PID.TID 0000.0001)                 1.292000000000000E+00,      /* K = 37 */
(PID.TID 0000.0001)                 1.300000000000000E+00,      /* K = 38 */
(PID.TID 0000.0001)                 1.308000000000000E+00,      /* K = 39 */
(PID.TID 0000.0001)                 1.316000000000000E+00,      /* K = 40 */
(PID.TID 0000.0001)                 1.324000000000000E+00,      /* K = 41 */
(PID.TID 0000.0001)                 1.332000000000000E+00,      /* K = 42 */
(PID.TID 0000.0001)                 1.340000000000000E+00,      /* K = 43 */
(PID.TID 0000.0001)                 1.348000000000000E+00,      /* K = 44 */
(PID.TID 0000.0001)                 1.356000000000000E+00,      /* K = 45 */
(PID.TID 0000.0001)                 1.364000000000000E+00,      /* K = 46 */
(PID.TID 0000.0001)                 1.372000000000000E+00,      /* K = 47 */
(PID.TID 0000.0001)                 1.380000000000000E+00,      /* K = 48 */
(PID.TID 0000.0001)                 1.388000000000000E+00,      /* K = 49 */
(PID.TID 0000.0001)                 1.396000000000000E+00,      /* K = 50 */
(PID.TID 0000.0001)                 1.404000000000000E+00,      /* K = 51 */
(PID.TID 0000.0001)                 1.412000000000000E+00,      /* K = 52 */
(PID.TID 0000.0001)                 1.420000000000000E+00,      /* K = 53 */
(PID.TID 0000.0001)                 1.428000000000000E+00,      /* K = 54 */
(PID.TID 0000.0001)                 1.436000000000000E+00,      /* K = 55 */
(PID.TID 0000.0001)                 1.444000000000000E+00,      /* K = 56 */
(PID.TID 0000.0001)                 1.452000000000000E+00,      /* K = 57 */
(PID.TID 0000.0001)                 1.460000000000000E+00,      /* K = 58 */
(PID.TID 0000.0001)                 1.468000000000000E+00,      /* K = 59 */
(PID.TID 0000.0001)                 1.476000000000000E+00,      /* K = 60 */
(PID.TID 0000.0001)                 1.484000000000000E+00,      /* K = 61 */
(PID.TID 0000.0001)                 1.492000000000000E+00,      /* K = 62 */
(PID.TID 0000.0001)                 1.500000000000000E+00,      /* K = 63 */
(PID.TID 0000.0001)                 1.508000000000000E+00,      /* K = 64 */
(PID.TID 0000.0001)                 1.516000000000000E+00,      /* K = 65 */
(PID.TID 0000.0001)                 1.524000000000000E+00,      /* K = 66 */
(PID.TID 0000.0001)                 1.532000000000000E+00,      /* K = 67 */
(PID.TID 0000.0001)                 1.540000000000000E+00,      /* K = 68 */
(PID.TID 0000.0001)                 1.548000000000000E+00,      /* K = 69 */
(PID.TID 0000.0001)                 1.556000000000000E+00,      /* K = 70 */
(PID.TID 0000.0001)                 1.564000000000000E+00,      /* K = 71 */
(PID.TID 0000.0001)                 1.572000000000000E+00,      /* K = 72 */
(PID.TID 0000.0001)                 1.580000000000000E+00,      /* K = 73 */
(PID.TID 0000.0001)                 1.588000000000000E+00,      /* K = 74 */
(PID.TID 0000.0001)                 1.596000000000000E+00,      /* K = 75 */
(PID.TID 0000.0001)                 1.604000000000000E+00,      /* K = 76 */
(PID.TID 0000.0001)                 1.612000000000000E+00,      /* K = 77 */
(PID.TID 0000.0001)                 1.620000000000000E+00,      /* K = 78 */
(PID.TID 0000.0001)                 1.628000000000000E+00,      /* K = 79 */
(PID.TID 0000.0001)                 1.636000000000000E+00,      /* K = 80 */
(PID.TID 0000.0001)                 1.644000000000000E+00,      /* K = 81 */
(PID.TID 0000.0001)                 1.652000000000000E+00,      /* K = 82 */
(PID.TID 0000.0001)                 1.660000000000000E+00,      /* K = 83 */
(PID.TID 0000.0001)                 1.668000000000000E+00,      /* K = 84 */
(PID.TID 0000.0001)                 1.676000000000000E+00,      /* K = 85 */
(PID.TID 0000.0001)                 1.684000000000000E+00,      /* K = 86 */
(PID.TID 0000.0001)                 1.692000000000000E+00,      /* K = 87 */
(PID.TID 0000.0001)                 1.700000000000000E+00,      /* K = 88 */
(PID.TID 0000.0001)                 1.708000000000000E+00,      /* K = 89 */
(PID.TID 0000.0001)                 1.716000000000000E+00,      /* K = 90 */
(PID.TID 0000.0001)                 1.724000000000000E+00,      /* K = 91 */
(PID.TID 0000.0001)                 1.732000000000000E+00,      /* K = 92 */
(PID.TID 0000.0001)                 1.740000000000000E+00,      /* K = 93 */
(PID.TID 0000.0001)                 1.748000000000000E+00,      /* K = 94 */
(PID.TID 0000.0001)                 1.756000000000000E+00,      /* K = 95 */
(PID.TID 0000.0001)                 1.764000000000000E+00,      /* K = 96 */
(PID.TID 0000.0001)                 1.772000000000000E+00,      /* K = 97 */
(PID.TID 0000.0001)                 1.780000000000000E+00,      /* K = 98 */
(PID.TID 0000.0001)                 1.788000000000000E+00,      /* K = 99 */
(PID.TID 0000.0001)                 1.796000000000000E+00,      /* K =100 */
(PID.TID 0000.0001)                 1.804000000000000E+00,      /* K =101 */
(PID.TID 0000.0001)                 1.812000000000000E+00,      /* K =102 */
(PID.TID 0000.0001)                 1.820000000000000E+00,      /* K =103 */
(PID.TID 0000.0001)                 1.828000000000000E+00,      /* K =104 */
(PID.TID 0000.0001)                 1.836000000000000E+00,      /* K =105 */
(PID.TID 0000.0001)                 1.844000000000000E+00,      /* K =106 */
(PID.TID 0000.0001)                 1.852000000000000E+00,      /* K =107 */
(PID.TID 0000.0001)                 1.860000000000000E+00,      /* K =108 */
(PID.TID 0000.0001)                 1.868000000000000E+00,      /* K =109 */
(PID.TID 0000.0001)                 1.876000000000000E+00,      /* K =110 */
(PID.TID 0000.0001)                 1.884000000000000E+00,      /* K =111 */
(PID.TID 0000.0001)                 1.892000000000000E+00,      /* K =112 */
(PID.TID 0000.0001)                 1.900000000000000E+00,      /* K =113 */
(PID.TID 0000.0001)                 1.908000000000000E+00,      /* K =114 */
(PID.TID 0000.0001)                 1.916000000000000E+00,      /* K =115 */
(PID.TID 0000.0001)                 1.924000000000000E+00,      /* K =116 */
(PID.TID 0000.0001)                 1.932000000000000E+00,      /* K =117 */
(PID.TID 0000.0001)                 1.940000000000000E+00,      /* K =118 */
(PID.TID 0000.0001)                 1.948000000000000E+00,      /* K =119 */
(PID.TID 0000.0001)                 1.956000000000000E+00       /* K =120 */
(PID.TID 0000.0001)     ;
(PID.TID 0000.0001) rhoFacF = /* normalized Reference density @ W-Interface (-) */
(PID.TID 0000.0001)                 1.000000000000000E+00,      /* K =  1 */
(PID.TID 0000.0001)                 1.008000000000000E+00,      /* K =  2 */
(PID.TID 0000.0001)                 1.016000000000000E+00,      /* K =  3 */
(PID.TID 0000.0001)                 1.024000000000000E+00,      /* K =  4 */
(PID.TID 0000.0001)                 1.032000000000000E+00,      /* K =  5 */
(PID.TID 0000.0001)                 1.040000000000000E+00,      /* K =  6 */
(PID.TID 0000.0001)                 1.048000000000000E+00,      /* K =  7 */
(PID.TID 0000.0001)                 1.056000000000000E+00,      /* K =  8 */
(PID.TID 0000.0001)                 1.064000000000000E+00,      /* K =  9 */
(PID.TID 0000.0001)                 1.072000000000000E+00,      /* K = 10 */
(PID.TID 0000.0001)                 1.080000000000000E+00,      /* K = 11 */
(PID.TID 0000.0001)                 1.088000000000000E+00,      /* K = 12 */
(PID.TID 0000.0001)                 1.096000000000000E+00,      /* K = 13 */
(PID.TID 0000.0001)                 1.104000000000000E+00,      /* K = 14 */
(PID.TID 0000.0001)                 1.112000000000000E+00,      /* K = 15 */
(PID.TID 0000.0001)                 1.120000000000000E+00,      /* K = 16 */
(PID.TID 0000.0001)                 1.128000000000000E+00,      /* K = 17 */
(PID.TID 0000.0001)                 1.136000000000000E+00,      /* K = 18 */
(PID.TID 0000.0001)                 1.144000000000000E+00,      /* K = 19 */
(PID.TID 0000.0001)                 1.152000000000000E+00,      /* K = 20 */
(PID.TID 0000.0001)                 1.160000000000000E+00,      /* K = 21 */
(PID.TID 0000.0001)                 1.168000000000000E+00,      /* K = 22 */
(PID.TID 0000.0001)                 1.176000000000000E+00,      /* K = 23 */
(PID.TID 0000.0001)                 1.184000000000000E+00,      /* K = 24 */
(PID.TID 0000.0001)                 1.192000000000000E+00,      /* K = 25 */
(PID.TID 0000.0001)                 1.200000000000000E+00,      /* K = 26 */
(PID.TID 0000.0001)                 1.208000000000000E+00,      /* K = 27 */
(PID.TID 0000.0001)                 1.216000000000000E+00,      /* K = 28 */
(PID.TID 0000.0001)                 1.224000000000000E+00,      /* K = 29 */
(PID.TID 0000.0001)                 1.232000000000000E+00,      /* K = 30 */
(PID.TID 0000.0001)                 1.240000000000000E+00,      /* K = 31 */
(PID.TID 0000.0001)                 1.248000000000000E+00,      /* K = 32 */
(PID.TID 0000.0001)                 1.256000000000000E+00,      /* K = 33 */
(PID.TID 0000.0001)                 1.264000000000000E+00,      /* K = 34 */
(PID.TID 0000.0001)                 1.272000000000000E+00,      /* K = 35 */
(PID.TID 0000.0001)                 1.280000000000000E+00,      /* K = 36 */
(PID.TID 0000.0001)                 1.288000000000000E+00,      /* K = 37 */
(PID.TID 0000.0001)                 1.296000000000000E+00,      /* K = 38 */
(PID.TID 0000.0001)                 1.304000000000000E+00,      /* K = 39 */
(PID.TID 0000.0001)                 1.312000000000000E+00,      /* K = 40 */
(PID.TID 0000.0001)                 1.320000000000000E+00,      /* K = 41 */
(PID.TID 0000.0001)                 1.328000000000000E+00,      /* K = 42 */
(PID.TID 0000.0001)                 1.336000000000000E+00,      /* K = 43 */
(PID.TID 0000.0001)                 1.344000000000000E+00,      /* K = 44 */
(PID.TID 0000.0001)                 1.352000000000000E+00,      /* K = 45 */
(PID.TID 0000.0001)                 1.360000000000000E+00,      /* K = 46 */
(PID.TID 0000.0001)                 1.368000000000000E+00,      /* K = 47 */
(PID.TID 0000.0001)                 1.376000000000000E+00,      /* K = 48 */
(PID.TID 0000.0001)                 1.384000000000000E+00,      /* K = 49 */
(PID.TID 0000.0001)                 1.392000000000000E+00,      /* K = 50 */
(PID.TID 0000.0001)                 1.400000000000000E+00,      /* K = 51 */
(PID.TID 0000.0001)                 1.408000000000000E+00,      /* K = 52 */
(PID.TID 0000.0001)                 1.416000000000000E+00,      /* K = 53 */
(PID.TID 0000.0001)                 1.424000000000000E+00,      /* K = 54 */
(PID.TID 0000.0001)                 1.432000000000000E+00,      /* K = 55 */
(PID.TID 0000.0001)                 1.440000000000000E+00,      /* K = 56 */
(PID.TID 0000.0001)                 1.448000000000000E+00,      /* K = 57 */
(PID.TID 0000.0001)                 1.456000000000000E+00,      /* K = 58 */
(PID.TID 0000.0001)                 1.464000000000000E+00,      /* K = 59 */
(PID.TID 0000.0001)                 1.472000000000000E+00,      /* K = 60 */
(PID.TID 0000.0001)                 1.480000000000000E+00,      /* K = 61 */
(PID.TID 0000.0001)                 1.488000000000000E+00,      /* K = 62 */
(PID.TID 0000.0001)                 1.496000000000000E+00,      /* K = 63 */
(PID.TID 0000.0001)                 1.504000000000000E+00,      /* K = 64 */
(PID.TID 0000.0001)                 1.512000000000000E+00,      /* K = 65 */
(PID.TID 0000.0001)                 1.520000000000000E+00,      /* K = 66 */
(PID.TID 0000.0001)                 1.528000000000000E+00,      /* K = 67 */
(PID.TID 0000.0001)                 1.536000000000000E+00,      /* K = 68 */
(PID.TID 0000.0001)                 1.544000000000000E+00,      /* K = 69 */
(PID.TID 0000.0001)                 1.552000000000000E+00,      /* K = 70 */
(PID.TID 0000.0001)                 1.560000000000000E+00,      /* K = 71 */
(PID.TID 0000.0001)                 1.568000000000000E+00,      /* K = 72 */
(PID.TID 0000.0001)                 1.576000000000000E+00,      /* K = 73 */
(PID.TID 0000.0001)                 1.584000000000000E+00,      /* K = 74 */
(PID.TID 0000.0001)                 1.592000000000000E+00,      /* K = 75 */
(PID.TID 0000.0001)                 1.600000000000000E+00,      /* K = 76 */
(PID.TID 0000.0001)                 1.608000000000000E+00,      /* K = 77 */
(PID.TID 0000.0001)                 1.616000000000000E+00,      /* K = 78 */
(PID.TID 0000.0001)                 1.624000000000000E+00,      /* K = 79 */
(PID.TID 0000.0001)                 1.632000000000000E+00,      /* K = 80 */
(PID.TID 0000.0001)                 1.640000000000000E+00,      /* K = 81 */
(PID.TID 0000.0001)                 1.648000000000000E+00,      /* K = 82 */
(PID.TID 0000.0001)                 1.656000000000000E+00,      /* K = 83 */
(PID.TID 0000.0001)                 1.664000000000000E+00,      /* K = 84 */
(PID.TID 0000.0001)                 1.672000000000000E+00,      /* K = 85 */
(PID.TID 0000.0001)                 1.680000000000000E+00,      /* K = 86 */
(PID.TID 0000.0001)                 1.688000000000000E+00,      /* K = 87 */
(PID.TID 0000.0001)                 1.696000000000000E+00,      /* K = 88 */
(PID.TID 0000.0001)                 1.704000000000000E+00,      /* K = 89 */
(PID.TID 0000.0001)                 1.712000000000000E+00,      /* K = 90 */
(PID.TID 0000.0001)                 1.720000000000000E+00,      /* K = 91 */
(PID.TID 0000.0001)                 1.728000000000000E+00,      /* K = 92 */
(PID.TID 0000.0001)                 1.736000000000000E+00,      /* K = 93 */
(PID.TID 0000.0001)                 1.744000000000000E+00,      /* K = 94 */
(PID.TID 0000.0001)                 1.752000000000000E+00,      /* K = 95 */
(PID.TID 0000.0001)                 1.760000000000000E+00,      /* K = 96 */
(PID.TID 0000.0001)                 1.768000000000000E+00,      /* K = 97 */
(PID.TID 0000.0001)                 1.776000000000000E+00,      /* K = 98 */
(PID.TID 0000.0001)                 1.784000000000000E+00,      /* K = 99 */
(PID.TID 0000.0001)                 1.792000000000000E+00,      /* K =100 */
(PID.TID 0000.0001)                 1.800000000000000E+00,      /* K =101 */
(PID.TID 0000.0001)                 1.808000000000000E+00,      /* K =102 */
(PID.TID 0000.0001)                 1.816000000000000E+00,      /* K =103 */
(PID.TID 0000.0001)                 1.824000000000000E+00,      /* K =104 */
(PID.TID 0000.0001)                 1.832000000000000E+00,      /* K =105 */
(PID.TID 0000.0001)                 1.840000000000000E+00,      /* K =106 */
(PID.TID 0000.0001)                 1.848000000000000E+00,      /* K =107 */
(PID.TID 0000.0001)                 1.856000000000000E+00,      /* K =108 */
(PID.TID 0000.0001)                 1.864000000000000E+00,      /* K =109 */
(PID.TID 0000.0001)                 1.872000000000000E+00,      /* K =110 */
(PID.TID 0000.0001)                 1.880000000000000E+00,      /* K =111 */
(PID.TID 0000.0001)                 1.888000000000000E+00,      /* K =112 */
(PID.TID 0000.0001)                 1.896000000000000E+00,      /* K =113 */
(PID.TID 0000.0001)                 1.904000000000000E+00,      /* K =114 */
(PID.TID 0000.0001)                 1.912000000000000E+00,      /* K =115 */
(PID.TID 0000.0001)                 1.920000000000000E+00,      /* K =116 */
(PID.TID 0000.0001)                 1.928000000000000E+00,      /* K =117 */
(PID.TID 0000.0001)                 1.936000000000000E+00,      /* K =118 */
(PID.TID 0000.0001)                 1.944000000000000E+00,      /* K =119 */
(PID.TID 0000.0001)                 1.952000000000000E+00,      /* K =120 */
(PID.TID 0000.0001)                 1.960000000000000E+00       /* K =121 */
(PID.TID 0000.0001)     ;
(PID.TID 0000.0001) rhoConstFresh = /* Fresh-water reference density ( kg/m^3 ) */
(PID.TID 0000.0001)                 1.000000000000000E+03
(PID.TID 0000.0001)     ;
(PID.TID 0000.0001) gravity =   /* Gravitational acceleration ( m/s^2 ) */
(PID.TID 0000.0001)                 9.810000000000000E+00
(PID.TID 0000.0001)     ;
(PID.TID 0000.0001) gBaro =   /* Barotropic gravity ( m/s^2 ) */
(PID.TID 0000.0001)                 9.810000000000000E+00
(PID.TID 0000.0001)     ;
(PID.TID 0000.0001) gravFacC = /* gravity factor (vs surf.) @ cell-Center (-) */
(PID.TID 0000.0001)   120 @  1.000000000000000E+00              /* K =  1:120 */
(PID.TID 0000.0001)     ;
(PID.TID 0000.0001) gravFacF = /* gravity factor (vs surf.) @ W-Interface (-) */
(PID.TID 0000.0001)   121 @  1.000000000000000E+00              /* K =  1:121 */
(PID.TID 0000.0001)     ;
(PID.TID 0000.0001) rotationPeriod =   /* Rotation Period ( s ) */
(PID.TID 0000.0001)                 8.640000000000000E+04
(PID.TID 0000.0001)     ;
(PID.TID 0000.0001) omega =   /* Angular velocity ( rad/s ) */
(PID.TID 0000.0001)                 7.272205216643040E-05
(PID.TID 0000.0001)     ;
(PID.TID 0000.0001) f0 =   /* Reference coriolis parameter ( 1/s ) */
(PID.TID 0000.0001)                 1.000000000000000E-04
(PID.TID 0000.0001)     ;
(PID.TID 0000.0001) beta =   /* Beta ( 1/(m.s) ) */
(PID.TID 0000.0001)                 9.999999999999999E-12
(PID.TID 0000.0001)     ;
(PID.TID 0000.0001) fPrime =   /* Second coriolis parameter ( 1/s ) */
(PID.TID 0000.0001)                 0.000000000000000E+00
(PID.TID 0000.0001)     ;
(PID.TID 0000.0001) rigidLid =   /* Rigid lid on/off flag */
(PID.TID 0000.0001)                   F
(PID.TID 0000.0001)     ;
(PID.TID 0000.0001) implicitFreeSurface =   /* Implicit free surface on/off flag */
(PID.TID 0000.0001)                   T
(PID.TID 0000.0001)     ;
(PID.TID 0000.0001) freeSurfFac =   /* Implicit free surface factor */
(PID.TID 0000.0001)                 1.000000000000000E+00
(PID.TID 0000.0001)     ;
(PID.TID 0000.0001) implicSurfPress =  /* Surface Pressure implicit factor (0-1) */
(PID.TID 0000.0001)                 1.000000000000000E+00
(PID.TID 0000.0001)     ;
(PID.TID 0000.0001) implicDiv2DFlow =  /* Barot. Flow Div. implicit factor (0-1) */
(PID.TID 0000.0001)                 1.000000000000000E+00
(PID.TID 0000.0001)     ;
(PID.TID 0000.0001) uniformLin_PhiSurf = /* use uniform Bo_surf on/off flag */
(PID.TID 0000.0001)                   T
(PID.TID 0000.0001)     ;
(PID.TID 0000.0001) uniformFreeSurfLev = /* free-surface level-index is uniform */
(PID.TID 0000.0001)                   T
(PID.TID 0000.0001)     ;
(PID.TID 0000.0001) sIceLoadFac =  /* scale factor for sIceLoad (0-1) */
(PID.TID 0000.0001)                 1.000000000000000E+00
(PID.TID 0000.0001)     ;
(PID.TID 0000.0001) hFacMin =   /* minimum partial cell factor (hFac) */
(PID.TID 0000.0001)                 1.000000000000000E+00
(PID.TID 0000.0001)     ;
(PID.TID 0000.0001) hFacMinDr = /* minimum partial cell thickness ( m) */
(PID.TID 0000.0001)                 0.000000000000000E+00
(PID.TID 0000.0001)     ;
(PID.TID 0000.0001) exactConserv =  /* Exact Volume Conservation on/off flag */
(PID.TID 0000.0001)                   F
(PID.TID 0000.0001)     ;
(PID.TID 0000.0001) linFSConserveTr = /* Tracer correction for Lin Free Surface on/off flag */
(PID.TID 0000.0001)                   F
(PID.TID 0000.0001)     ;
(PID.TID 0000.0001) nonlinFreeSurf = /* Non-linear Free Surf. options (-1,0,1,2,3)*/
(PID.TID 0000.0001)                       0
(PID.TID 0000.0001)      -1,0= Off ; 1,2,3= On, 2=+rescale gU,gV, 3=+update cg2d solv.
(PID.TID 0000.0001)     ;
(PID.TID 0000.0001) hFacInf =   /* lower threshold for hFac (nonlinFreeSurf only)*/
(PID.TID 0000.0001)                 2.000000000000000E-01
(PID.TID 0000.0001)     ;
(PID.TID 0000.0001) hFacSup =   /* upper threshold for hFac (nonlinFreeSurf only)*/
(PID.TID 0000.0001)                 2.000000000000000E+00
(PID.TID 0000.0001)     ;
(PID.TID 0000.0001) select_rStar = /* r* Vertical coord. options (=0 r coord.; >0 uses r*)*/
(PID.TID 0000.0001)                       0
(PID.TID 0000.0001)     ;
(PID.TID 0000.0001) useRealFreshWaterFlux = /* Real Fresh Water Flux on/off flag*/
(PID.TID 0000.0001)                   F
(PID.TID 0000.0001)     ;
(PID.TID 0000.0001) temp_EvPrRn = /* Temp. of Evap/Prec/R (UNSET=use local T)(oC)*/
(PID.TID 0000.0001)                 1.234567000000000E+05
(PID.TID 0000.0001)     ;
(PID.TID 0000.0001) salt_EvPrRn = /* Salin. of Evap/Prec/R (UNSET=use local S)(g/kg)*/
(PID.TID 0000.0001)                 0.000000000000000E+00
(PID.TID 0000.0001)     ;
(PID.TID 0000.0001) selectAddFluid = /* option for mass source/sink of fluid (=0: off) */
(PID.TID 0000.0001)                       0
(PID.TID 0000.0001)     ;
(PID.TID 0000.0001) temp_addMass = /* Temp. of addMass array (UNSET=use local T)(oC)*/
(PID.TID 0000.0001)                 1.234567000000000E+05
(PID.TID 0000.0001)     ;
(PID.TID 0000.0001) salt_addMass = /* Salin. of addMass array (UNSET=use local S)(g/kg)*/
(PID.TID 0000.0001)                 0.000000000000000E+00
(PID.TID 0000.0001)     ;
(PID.TID 0000.0001) convertFW2Salt = /* convert F.W. Flux to Salt Flux (-1=use local S)(g/kg)*/
(PID.TID 0000.0001)                 3.500000000000000E+01
(PID.TID 0000.0001)     ;
(PID.TID 0000.0001) use3Dsolver = /* use 3-D pressure solver on/off flag */
(PID.TID 0000.0001)                   T
(PID.TID 0000.0001)     ;
(PID.TID 0000.0001) nonHydrostatic =  /* Non-Hydrostatic on/off flag */
(PID.TID 0000.0001)                   T
(PID.TID 0000.0001)     ;
(PID.TID 0000.0001) nh_Am2 = /* Non-Hydrostatic terms scaling factor */
(PID.TID 0000.0001)                 1.000000000000000E+00
(PID.TID 0000.0001)     ;
(PID.TID 0000.0001) implicitNHPress = /* Non-Hyd Pressure implicit factor (0-1)*/
(PID.TID 0000.0001)                 1.000000000000000E+00
(PID.TID 0000.0001)     ;
(PID.TID 0000.0001) selectNHfreeSurf = /* Non-Hyd (free-)Surface option */
(PID.TID 0000.0001)                       0
(PID.TID 0000.0001)     ;
(PID.TID 0000.0001) quasiHydrostatic = /* Quasi-Hydrostatic on/off flag */
(PID.TID 0000.0001)                   F
(PID.TID 0000.0001)     ;
(PID.TID 0000.0001) calc_wVelocity = /* vertical velocity calculation on/off flag */
(PID.TID 0000.0001)                   T
(PID.TID 0000.0001)     ;
(PID.TID 0000.0001) momStepping =  /* Momentum equation on/off flag */
(PID.TID 0000.0001)                   T
(PID.TID 0000.0001)     ;
(PID.TID 0000.0001) vectorInvariantMomentum= /* Vector-Invariant Momentum on/off */
(PID.TID 0000.0001)                   T
(PID.TID 0000.0001)     ;
(PID.TID 0000.0001) momAdvection =  /* Momentum advection on/off flag */
(PID.TID 0000.0001)                   T
(PID.TID 0000.0001)     ;
(PID.TID 0000.0001) momViscosity =  /* Momentum viscosity on/off flag */
(PID.TID 0000.0001)                   T
(PID.TID 0000.0001)     ;
(PID.TID 0000.0001) momImplVertAdv= /* Momentum implicit vert. advection on/off*/
(PID.TID 0000.0001)                   F
(PID.TID 0000.0001)     ;
(PID.TID 0000.0001) implicitViscosity = /* Implicit viscosity on/off flag */
(PID.TID 0000.0001)                   T
(PID.TID 0000.0001)     ;
(PID.TID 0000.0001) selectImplicitDrag= /* Implicit bot Drag options (0,1,2)*/
(PID.TID 0000.0001)                       0
(PID.TID 0000.0001)     0= Expl. ; 1= Impl. on provis. Vel ; 2= Fully Impl (with surf.P)
(PID.TID 0000.0001)     ;
(PID.TID 0000.0001) useNHMTerms = /* Non-Hydrostatic Metric-Terms on/off */
(PID.TID 0000.0001)                   T
(PID.TID 0000.0001)     ;
(PID.TID 0000.0001) useCoriolis =  /* Coriolis on/off flag */
(PID.TID 0000.0001)                   T
(PID.TID 0000.0001)     ;
(PID.TID 0000.0001) useCDscheme =  /* CD scheme on/off flag */
(PID.TID 0000.0001)                   F
(PID.TID 0000.0001)     ;
(PID.TID 0000.0001) selectCoriMap = /* Coriolis Map options (0,1,2,3)*/
(PID.TID 0000.0001)                       2
(PID.TID 0000.0001)     0= f-Plane ; 1= Beta-Plane ; 2= Spherical ; 3= read from file
(PID.TID 0000.0001)     ;
(PID.TID 0000.0001) select3dCoriScheme= /* Scheme selector for 3-D Coriolis-Term */
(PID.TID 0000.0001)                       1
(PID.TID 0000.0001)    = 0 : Off (ignore 3-D Coriolis Terms in Omega.Cos(Lat) )
(PID.TID 0000.0001)    = 1 : original discretization ; = 2 : using averaged Transport
(PID.TID 0000.0001)    = 3 : same as 2 with hFac in gW_Cor
(PID.TID 0000.0001)     ;
(PID.TID 0000.0001) selectCoriScheme= /* Scheme selector for Coriolis-Term */
(PID.TID 0000.0001)                       0
(PID.TID 0000.0001)    = 0 : original discretization (simple averaging, no hFac)
(PID.TID 0000.0001)    = 1 : Wet-point averaging (Jamar & Ozer 1986)
(PID.TID 0000.0001)    = 2 : hFac weighted average (Angular Mom. conserving)
(PID.TID 0000.0001)    = 3 : energy conserving scheme using hFac weighted average
(PID.TID 0000.0001)     ;
(PID.TID 0000.0001) useAbsVorticity= /* V.I Works with f+zeta in Coriolis */
(PID.TID 0000.0001)                   F
(PID.TID 0000.0001)     ;
(PID.TID 0000.0001) selectVortScheme= /* V.I Scheme selector for Vorticity-Term */
(PID.TID 0000.0001)                       1
(PID.TID 0000.0001)    = 0 : enstrophy (Shallow-Water Eq.) conserving scheme by Sadourny, JAS 75
(PID.TID 0000.0001)    = 1 : same as 0 with modified hFac
(PID.TID 0000.0001)    = 2 : energy conserving scheme (used by Sadourny in JAS 75 paper)
(PID.TID 0000.0001)    = 3 : energy (general) and enstrophy (2D, nonDiv.) conserving scheme
(PID.TID 0000.0001)          from Sadourny (Burridge & Haseler, ECMWF Rep.4, 1977)
(PID.TID 0000.0001)    = 4 : shift 1/hFac from Vorticity to gU,gV tend. (Ang.Mom. conserving)
(PID.TID 0000.0001)     ;
(PID.TID 0000.0001) useJamartMomAdv= /* V.I Non-linear terms Jamart flag */
(PID.TID 0000.0001)                   F
(PID.TID 0000.0001)     ;
(PID.TID 0000.0001) upwindVorticity= /* V.I Upwind bias vorticity flag */
(PID.TID 0000.0001)                   F
(PID.TID 0000.0001)     ;
(PID.TID 0000.0001) highOrderVorticity= /* V.I High order vort. advect. flag */
(PID.TID 0000.0001)                   F
(PID.TID 0000.0001)     ;
(PID.TID 0000.0001) upwindShear= /* V.I Upwind vertical Shear advection flag */
(PID.TID 0000.0001)                   F
(PID.TID 0000.0001)     ;
(PID.TID 0000.0001) selectKEscheme= /* V.I Kinetic Energy scheme selector */
(PID.TID 0000.0001)                       0
(PID.TID 0000.0001)     ;
(PID.TID 0000.0001) momForcing =  /* Momentum forcing on/off flag */
(PID.TID 0000.0001)                   T
(PID.TID 0000.0001)     ;
(PID.TID 0000.0001) momTidalForcing = /* Momentum Tidal forcing on/off flag */
(PID.TID 0000.0001)                   T
(PID.TID 0000.0001)     ;
(PID.TID 0000.0001) momPressureForcing =  /* Momentum pressure term on/off flag */
(PID.TID 0000.0001)                   T
(PID.TID 0000.0001)     ;
(PID.TID 0000.0001) implicitIntGravWave= /* Implicit Internal Gravity Wave flag */
(PID.TID 0000.0001)                   F
(PID.TID 0000.0001)     ;
(PID.TID 0000.0001) staggerTimeStep =    /* Stagger time stepping on/off flag */
(PID.TID 0000.0001)                   T
(PID.TID 0000.0001)     ;
(PID.TID 0000.0001) doResetHFactors = /* reset thickness factors @ each time-step */
(PID.TID 0000.0001)                   F
(PID.TID 0000.0001)     ;
(PID.TID 0000.0001) multiDimAdvection =  /* enable/disable Multi-Dim Advection */
(PID.TID 0000.0001)                   T
(PID.TID 0000.0001)     ;
(PID.TID 0000.0001) useMultiDimAdvec =   /* Multi-Dim Advection is/is-not used */
(PID.TID 0000.0001)                   T
(PID.TID 0000.0001)     ;
(PID.TID 0000.0001) implicitDiffusion = /* Implicit Diffusion on/off flag */
(PID.TID 0000.0001)                   T
(PID.TID 0000.0001)     ;
(PID.TID 0000.0001) tempStepping =  /* Temperature equation on/off flag */
(PID.TID 0000.0001)                   T
(PID.TID 0000.0001)     ;
(PID.TID 0000.0001) tempAdvection = /* Temperature advection on/off flag */
(PID.TID 0000.0001)                   T
(PID.TID 0000.0001)     ;
(PID.TID 0000.0001) tempImplVertAdv = /* Temp. implicit vert. advection on/off */
(PID.TID 0000.0001)                   F
(PID.TID 0000.0001)     ;
(PID.TID 0000.0001) tempForcing  =  /* Temperature forcing on/off flag */
(PID.TID 0000.0001)                   T
(PID.TID 0000.0001)     ;
(PID.TID 0000.0001) doThetaClimRelax = /* apply SST relaxation on/off flag */
(PID.TID 0000.0001)                   F
(PID.TID 0000.0001)     ;
(PID.TID 0000.0001) tempIsActiveTr = /* Temp. is a dynamically Active Tracer */
(PID.TID 0000.0001)                   T
(PID.TID 0000.0001)     ;
(PID.TID 0000.0001) saltStepping =  /* Salinity equation on/off flag */
(PID.TID 0000.0001)                   F
(PID.TID 0000.0001)     ;
(PID.TID 0000.0001) saltAdvection = /* Salinity advection on/off flag */
(PID.TID 0000.0001)                   F
(PID.TID 0000.0001)     ;
(PID.TID 0000.0001) saltImplVertAdv = /* Sali. implicit vert. advection on/off */
(PID.TID 0000.0001)                   F
(PID.TID 0000.0001)     ;
(PID.TID 0000.0001) saltForcing  =  /* Salinity forcing on/off flag */
(PID.TID 0000.0001)                   F
(PID.TID 0000.0001)     ;
(PID.TID 0000.0001) doSaltClimRelax = /* apply SSS relaxation on/off flag */
(PID.TID 0000.0001)                   F
(PID.TID 0000.0001)     ;
(PID.TID 0000.0001) saltIsActiveTr = /* Salt  is a dynamically Active Tracer */
(PID.TID 0000.0001)                   F
(PID.TID 0000.0001)     ;
(PID.TID 0000.0001)  readBinaryPrec = /* Precision used for reading binary files */
(PID.TID 0000.0001)                      64
(PID.TID 0000.0001)     ;
(PID.TID 0000.0001) writeBinaryPrec = /* Precision used for writing binary files */
(PID.TID 0000.0001)                      64
(PID.TID 0000.0001)     ;
(PID.TID 0000.0001)  rwSuffixType =   /* select format of mds file suffix */
(PID.TID 0000.0001)                       0
(PID.TID 0000.0001)    = 0 : myIter (I10.10) ;   = 1 : 100*myTime (100th sec) ;
(PID.TID 0000.0001)    = 2 : myTime (seconds);   = 3 : myTime/360 (10th of hr);
(PID.TID 0000.0001)    = 4 : myTime/3600 (hours)
(PID.TID 0000.0001)     ;
(PID.TID 0000.0001)  globalFiles = /* write "global" (=not per tile) files */
(PID.TID 0000.0001)                   F
(PID.TID 0000.0001)     ;
(PID.TID 0000.0001)  useSingleCpuIO = /* only master MPI process does I/O */
(PID.TID 0000.0001)                   F
(PID.TID 0000.0001)     ;
(PID.TID 0000.0001)  useSingleCpuInput = /* only master process reads input */
(PID.TID 0000.0001)                   F
(PID.TID 0000.0001)     ;
(PID.TID 0000.0001) /* debLev[*]  : level of debug & auxiliary message printing */
(PID.TID 0000.0001) debLevZero =  0 ; /* level of disabled aux. msg printing */
(PID.TID 0000.0001)    debLevA =  1 ; /* level of minimum  aux. msg printing */
(PID.TID 0000.0001)    debLevB =  2 ; /* level of low aux. print (report read-file opening)*/
(PID.TID 0000.0001)    debLevC =  3 ; /* level of moderate debug prt (most pkgs debug msg) */
(PID.TID 0000.0001)    debLevD =  4 ; /* level of enhanced debug prt (add DEBUG_STATS prt) */
(PID.TID 0000.0001)    debLevE =  5 ; /* level of extensive debug printing */
(PID.TID 0000.0001) debugLevel =  /* select debug printing level */
(PID.TID 0000.0001)                       2
(PID.TID 0000.0001)     ;
(PID.TID 0000.0001)  plotLevel =  /* select PLOT_FIELD printing level */
(PID.TID 0000.0001)                       2
(PID.TID 0000.0001)     ;
(PID.TID 0000.0001) //
(PID.TID 0000.0001) // Elliptic solver(s) paramters ( PARM02 in namelist )
(PID.TID 0000.0001) //
(PID.TID 0000.0001) cg2dMaxIters =   /* Upper limit on 2d con. grad iterations  */
(PID.TID 0000.0001)                    1000
(PID.TID 0000.0001)     ;
(PID.TID 0000.0001) cg2dMinItersNSA =   /* Minimum number of iterations of 2d con. grad solver  */
(PID.TID 0000.0001)                       0
(PID.TID 0000.0001)     ;
(PID.TID 0000.0001) cg2dUseMinResSol= /* use cg2d last-iter(=0) / min-resid.(=1) solution */
(PID.TID 0000.0001)                       0
(PID.TID 0000.0001)     ;
(PID.TID 0000.0001) cg2dTargetResidual =   /* 2d con. grad target residual  */
(PID.TID 0000.0001)                 1.000000000000000E-13
(PID.TID 0000.0001)     ;
(PID.TID 0000.0001) cg2dTargetResWunit =   /* CG2d target residual [W units] */
(PID.TID 0000.0001)                -1.000000000000000E+00
(PID.TID 0000.0001)     ;
(PID.TID 0000.0001) cg2dPreCondFreq =   /* Freq. for updating cg2d preconditioner */
(PID.TID 0000.0001)                       1
(PID.TID 0000.0001)     ;
(PID.TID 0000.0001) useSRCGSolver =  /* use single reduction CG solver(s) */
(PID.TID 0000.0001)                   F
(PID.TID 0000.0001)     ;
(PID.TID 0000.0001) useNSACGSolver =  /* use not-self-adjoint CG solver */
(PID.TID 0000.0001)                   F
(PID.TID 0000.0001)     ;
(PID.TID 0000.0001) printResidualFreq = /* Freq. for printing CG residual */
(PID.TID 0000.0001)                       0
(PID.TID 0000.0001)     ;
(PID.TID 0000.0001) //
(PID.TID 0000.0001) // Time stepping paramters ( PARM03 in namelist )
(PID.TID 0000.0001) //
(PID.TID 0000.0001) deltaTMom =   /* Momentum equation timestep ( s ) */
(PID.TID 0000.0001)                 3.000000000000000E+02
(PID.TID 0000.0001)     ;
(PID.TID 0000.0001) deltaTFreeSurf = /* FreeSurface equation timestep ( s ) */
(PID.TID 0000.0001)                 3.000000000000000E+02
(PID.TID 0000.0001)     ;
(PID.TID 0000.0001) dTtracerLev =  /* Tracer equation timestep ( s ) */
(PID.TID 0000.0001)   120 @  3.000000000000000E+02              /* K =  1:120 */
(PID.TID 0000.0001)     ;
(PID.TID 0000.0001) deltaTClock  =   /* Model clock timestep ( s ) */
(PID.TID 0000.0001)                 3.000000000000000E+02
(PID.TID 0000.0001)     ;
(PID.TID 0000.0001) cAdjFreq =   /* Convective adjustment interval ( s ) */
(PID.TID 0000.0001)                 0.000000000000000E+00
(PID.TID 0000.0001)     ;
(PID.TID 0000.0001) momForcingOutAB = /* =1: take Momentum Forcing out of Adams-Bash. stepping */
(PID.TID 0000.0001)                       0
(PID.TID 0000.0001)     ;
(PID.TID 0000.0001) tracForcingOutAB = /* =1: take T,S,pTr Forcing out of Adams-Bash. stepping */
(PID.TID 0000.0001)                       0
(PID.TID 0000.0001)     ;
(PID.TID 0000.0001) momDissip_In_AB = /* put Dissipation Tendency in Adams-Bash. stepping */
(PID.TID 0000.0001)                   T
(PID.TID 0000.0001)     ;
(PID.TID 0000.0001) doAB_onGtGs = /* apply AB on Tendencies (rather than on T,S)*/
(PID.TID 0000.0001)                   T
(PID.TID 0000.0001)     ;
(PID.TID 0000.0001) abEps =   /* Adams-Bashforth-2 stabilizing weight */
(PID.TID 0000.0001)                 1.000000000000000E-01
(PID.TID 0000.0001)     ;
(PID.TID 0000.0001) applyExchUV_early = /* Apply EXCH to U,V earlier in time-step */
(PID.TID 0000.0001)                   F
(PID.TID 0000.0001)     ;
(PID.TID 0000.0001) pickupStrictlyMatch= /* stop if pickup do not strictly match */
(PID.TID 0000.0001)                   T
(PID.TID 0000.0001)     ;
(PID.TID 0000.0001) nIter0   =   /* Run starting timestep number */
(PID.TID 0000.0001)                       0
(PID.TID 0000.0001)     ;
(PID.TID 0000.0001) nTimeSteps = /* Number of timesteps */
(PID.TID 0000.0001)                      18
(PID.TID 0000.0001)     ;
(PID.TID 0000.0001) nEndIter =   /* Run ending timestep number */
(PID.TID 0000.0001)                      18
(PID.TID 0000.0001)     ;
(PID.TID 0000.0001) baseTime =   /* Model base time ( s ) */
(PID.TID 0000.0001)                 0.000000000000000E+00
(PID.TID 0000.0001)     ;
(PID.TID 0000.0001) startTime =  /* Run start time ( s ) */
(PID.TID 0000.0001)                 0.000000000000000E+00
(PID.TID 0000.0001)     ;
(PID.TID 0000.0001) endTime  =   /* Integration ending time ( s ) */
(PID.TID 0000.0001)                 5.400000000000000E+03
(PID.TID 0000.0001)     ;
(PID.TID 0000.0001) pChkPtFreq = /* Permanent restart/pickup file interval ( s ) */
(PID.TID 0000.0001)                 8.640000000000000E+04
(PID.TID 0000.0001)     ;
(PID.TID 0000.0001) chkPtFreq  = /* Rolling restart/pickup file interval ( s ) */
(PID.TID 0000.0001)                 0.000000000000000E+00
(PID.TID 0000.0001)     ;
(PID.TID 0000.0001) pickup_write_mdsio =   /* Model IO flag. */
(PID.TID 0000.0001)                   T
(PID.TID 0000.0001)     ;
(PID.TID 0000.0001) pickup_read_mdsio =   /* Model IO flag. */
(PID.TID 0000.0001)                   T
(PID.TID 0000.0001)     ;
(PID.TID 0000.0001) writePickupAtEnd =   /* Model IO flag. */
(PID.TID 0000.0001)                   T
(PID.TID 0000.0001)     ;
(PID.TID 0000.0001) dumpFreq =   /* Model state write out interval ( s ). */
(PID.TID 0000.0001)                 7.200000000000000E+03
(PID.TID 0000.0001)     ;
(PID.TID 0000.0001) dumpInitAndLast= /* write out Initial & Last iter. model state */
(PID.TID 0000.0001)                   T
(PID.TID 0000.0001)     ;
(PID.TID 0000.0001) snapshot_mdsio =   /* Model IO flag. */
(PID.TID 0000.0001)                   T
(PID.TID 0000.0001)     ;
(PID.TID 0000.0001) monitorFreq =   /* Monitor output interval ( s ). */
(PID.TID 0000.0001)                 1.000000000000000E+00
(PID.TID 0000.0001)     ;
(PID.TID 0000.0001) monitorSelect = /* select group of variables to monitor */
(PID.TID 0000.0001)                       2
(PID.TID 0000.0001)     ;
(PID.TID 0000.0001) monitor_stdio =   /* Model IO flag. */
(PID.TID 0000.0001)                   T
(PID.TID 0000.0001)     ;
(PID.TID 0000.0001) externForcingPeriod =   /* forcing period (s) */
(PID.TID 0000.0001)                 0.000000000000000E+00
(PID.TID 0000.0001)     ;
(PID.TID 0000.0001) externForcingCycle =   /* period of the cyle (s). */
(PID.TID 0000.0001)                 0.000000000000000E+00
(PID.TID 0000.0001)     ;
(PID.TID 0000.0001) tauThetaClimRelax =   /* relaxation time scale (s) */
(PID.TID 0000.0001)                 0.000000000000000E+00
(PID.TID 0000.0001)     ;
(PID.TID 0000.0001) tauSaltClimRelax =   /* relaxation time scale (s) */
(PID.TID 0000.0001)                 0.000000000000000E+00
(PID.TID 0000.0001)     ;
(PID.TID 0000.0001) latBandClimRelax =   /* max. Lat. where relaxation */
(PID.TID 0000.0001)                 1.800000000000000E+02
(PID.TID 0000.0001)     ;
(PID.TID 0000.0001) //
(PID.TID 0000.0001) // Gridding paramters ( PARM04 in namelist )
(PID.TID 0000.0001) //
(PID.TID 0000.0001) usingCartesianGrid = /* Cartesian coordinates flag ( True/False ) */
(PID.TID 0000.0001)                   F
(PID.TID 0000.0001)     ;
(PID.TID 0000.0001) usingCylindricalGrid = /* Cylindrical coordinates flag ( True/False ) */
(PID.TID 0000.0001)                   F
(PID.TID 0000.0001)     ;
(PID.TID 0000.0001) usingSphericalPolarGrid = /* Spherical coordinates flag ( True/False ) */
(PID.TID 0000.0001)                   T
(PID.TID 0000.0001)     ;
(PID.TID 0000.0001) usingCurvilinearGrid = /* Curvilinear coordinates flag ( True/False ) */
(PID.TID 0000.0001)                   F
(PID.TID 0000.0001)     ;
(PID.TID 0000.0001) useMin4hFacEdges = /* set hFacW,S as minimum of adjacent hFacC factor */
(PID.TID 0000.0001)                   F
(PID.TID 0000.0001)     ;
(PID.TID 0000.0001) interViscAr_pCell = /* account for partial-cell in interior vert. viscosity */
(PID.TID 0000.0001)                   F
(PID.TID 0000.0001)     ;
(PID.TID 0000.0001) interDiffKr_pCell = /* account for partial-cell in interior vert. diffusion */
(PID.TID 0000.0001)                   F
(PID.TID 0000.0001)     ;
(PID.TID 0000.0001) pCellMix_select = /* option to enhance mixing near surface & bottom */
(PID.TID 0000.0001)                       0
(PID.TID 0000.0001)     ;
(PID.TID 0000.0001) selectSigmaCoord = /* Hybrid-Sigma Vert. Coordinate option */
(PID.TID 0000.0001)                       0
(PID.TID 0000.0001)     ;
(PID.TID 0000.0001) rSigmaBnd = /* r/sigma transition ( units of r ==  m ) */
(PID.TID 0000.0001)                 1.234567000000000E+05
(PID.TID 0000.0001)     ;
(PID.TID 0000.0001) rkSign =   /* index orientation relative to vertical coordinate */
(PID.TID 0000.0001)                -1.000000000000000E+00
(PID.TID 0000.0001)     ;
(PID.TID 0000.0001) gravitySign = /* gravity orientation relative to vertical coordinate */
(PID.TID 0000.0001)                -1.000000000000000E+00
(PID.TID 0000.0001)     ;
(PID.TID 0000.0001) seaLev_Z =  /* reference height of sea-level [m] */
(PID.TID 0000.0001)                 0.000000000000000E+00
(PID.TID 0000.0001)     ;
(PID.TID 0000.0001) top_Pres =  /* reference pressure at the top [Pa] */
(PID.TID 0000.0001)                 0.000000000000000E+00
(PID.TID 0000.0001)     ;
(PID.TID 0000.0001) mass2rUnit = /* convert mass per unit area [kg/m2] to r-units [m] */
(PID.TID 0000.0001)                 1.000000000000000E-03
(PID.TID 0000.0001)     ;
(PID.TID 0000.0001) rUnit2mass = /* convert r-units [m] to mass per unit area [kg/m2] */
(PID.TID 0000.0001)                 1.000000000000000E+03
(PID.TID 0000.0001)     ;
(PID.TID 0000.0001) drC =   /* C spacing ( units of r ) */
(PID.TID 0000.0001)                 1.250000000000000E+04,      /* K =  1 */
(PID.TID 0000.0001)   119 @  2.500000000000000E+04,             /* K =  2:120 */
(PID.TID 0000.0001)                 1.250000000000000E+04       /* K =121 */
(PID.TID 0000.0001)     ;
(PID.TID 0000.0001) drF =   /* W spacing ( units of r ) */
(PID.TID 0000.0001)   120 @  2.500000000000000E+04              /* K =  1:120 */
(PID.TID 0000.0001)     ;
(PID.TID 0000.0001) delX = /* U spacing ( m - cartesian, degrees - spherical ) */
(PID.TID 0000.0001)                 1.000000000000000E+01       /* I =  1 */
(PID.TID 0000.0001)     ;
(PID.TID 0000.0001) delY = /* V spacing ( m - cartesian, degrees - spherical ) */
(PID.TID 0000.0001)   160 @  1.000000000000000E+00              /* J =  1:160 */
(PID.TID 0000.0001)     ;
(PID.TID 0000.0001) xgOrigin = /* X-axis origin of West  edge (cartesian: m, lat-lon: deg) */
(PID.TID 0000.0001)                 0.000000000000000E+00
(PID.TID 0000.0001)     ;
(PID.TID 0000.0001) ygOrigin = /* Y-axis origin of South edge (cartesian: m, lat-lon: deg) */
(PID.TID 0000.0001)                -8.000000000000000E+01
(PID.TID 0000.0001)     ;
(PID.TID 0000.0001) rSphere =  /* Radius ( ignored - cartesian, m - spherical ) */
(PID.TID 0000.0001)                 6.370000000000000E+06
(PID.TID 0000.0001)     ;
(PID.TID 0000.0001) deepAtmosphere = /* Deep/Shallow Atmosphere flag (True/False) */
(PID.TID 0000.0001)                   T
(PID.TID 0000.0001)     ;
(PID.TID 0000.0001) xC =  /* xC(:,1,:,1) : P-point X coord ( deg. or m if cartesian) */
(PID.TID 0000.0001)                 5.000000000000000E+00       /* I =  1 */
(PID.TID 0000.0001)     ;
(PID.TID 0000.0001) yC =  /* yC(1,:,1,:) : P-point Y coord ( deg. or m if cartesian) */
(PID.TID 0000.0001)                -7.950000000000000E+01,      /* J =  1 */
(PID.TID 0000.0001)                -7.850000000000000E+01,      /* J =  2 */
(PID.TID 0000.0001)                -7.750000000000000E+01,      /* J =  3 */
(PID.TID 0000.0001)      . . .
(PID.TID 0000.0001)                -4.250000000000000E+01,      /* J = 38 */
(PID.TID 0000.0001)                -4.150000000000000E+01,      /* J = 39 */
(PID.TID 0000.0001)                -4.050000000000000E+01,      /* J = 40 */
(PID.TID 0000.0001)                -3.950000000000000E+01,      /* J = 41 */
(PID.TID 0000.0001)                -3.850000000000000E+01,      /* J = 42 */
(PID.TID 0000.0001)                -3.750000000000000E+01,      /* J = 43 */
(PID.TID 0000.0001)      . . .
(PID.TID 0000.0001)                -2.500000000000000E+00,      /* J = 78 */
(PID.TID 0000.0001)                -1.500000000000000E+00,      /* J = 79 */
(PID.TID 0000.0001)                -5.000000000000000E-01,      /* J = 80 */
(PID.TID 0000.0001)                 5.000000000000000E-01,      /* J = 81 */
(PID.TID 0000.0001)                 1.500000000000000E+00,      /* J = 82 */
(PID.TID 0000.0001)                 2.500000000000000E+00,      /* J = 83 */
(PID.TID 0000.0001)      . . .
(PID.TID 0000.0001)                 3.750000000000000E+01,      /* J =118 */
(PID.TID 0000.0001)                 3.850000000000000E+01,      /* J =119 */
(PID.TID 0000.0001)                 3.950000000000000E+01,      /* J =120 */
(PID.TID 0000.0001)                 4.050000000000000E+01,      /* J =121 */
(PID.TID 0000.0001)                 4.150000000000000E+01,      /* J =122 */
(PID.TID 0000.0001)                 4.250000000000000E+01,      /* J =123 */
(PID.TID 0000.0001)      . . .
(PID.TID 0000.0001)                 7.750000000000000E+01,      /* J =158 */
(PID.TID 0000.0001)                 7.850000000000000E+01,      /* J =159 */
(PID.TID 0000.0001)                 7.950000000000000E+01       /* J =160 */
(PID.TID 0000.0001)     ;
(PID.TID 0000.0001) rcoord = /* P-point R coordinate (  units of r ) */
(PID.TID 0000.0001)                -1.250000000000000E+04,      /* K =  1 */
(PID.TID 0000.0001)                -3.750000000000000E+04,      /* K =  2 */
(PID.TID 0000.0001)                -6.250000000000000E+04,      /* K =  3 */
(PID.TID 0000.0001)                -8.750000000000000E+04,      /* K =  4 */
(PID.TID 0000.0001)                -1.125000000000000E+05,      /* K =  5 */
(PID.TID 0000.0001)                -1.375000000000000E+05,      /* K =  6 */
(PID.TID 0000.0001)                -1.625000000000000E+05,      /* K =  7 */
(PID.TID 0000.0001)                -1.875000000000000E+05,      /* K =  8 */
(PID.TID 0000.0001)                -2.125000000000000E+05,      /* K =  9 */
(PID.TID 0000.0001)                -2.375000000000000E+05,      /* K = 10 */
(PID.TID 0000.0001)                -2.625000000000000E+05,      /* K = 11 */
(PID.TID 0000.0001)                -2.875000000000000E+05,      /* K = 12 */
(PID.TID 0000.0001)                -3.125000000000000E+05,      /* K = 13 */
(PID.TID 0000.0001)                -3.375000000000000E+05,      /* K = 14 */
(PID.TID 0000.0001)                -3.625000000000000E+05,      /* K = 15 */
(PID.TID 0000.0001)                -3.875000000000000E+05,      /* K = 16 */
(PID.TID 0000.0001)                -4.125000000000000E+05,      /* K = 17 */
(PID.TID 0000.0001)                -4.375000000000000E+05,      /* K = 18 */
(PID.TID 0000.0001)                -4.625000000000000E+05,      /* K = 19 */
(PID.TID 0000.0001)                -4.875000000000000E+05,      /* K = 20 */
(PID.TID 0000.0001)                -5.125000000000000E+05,      /* K = 21 */
(PID.TID 0000.0001)                -5.375000000000000E+05,      /* K = 22 */
(PID.TID 0000.0001)                -5.625000000000000E+05,      /* K = 23 */
(PID.TID 0000.0001)                -5.875000000000000E+05,      /* K = 24 */
(PID.TID 0000.0001)                -6.125000000000000E+05,      /* K = 25 */
(PID.TID 0000.0001)                -6.375000000000000E+05,      /* K = 26 */
(PID.TID 0000.0001)                -6.625000000000000E+05,      /* K = 27 */
(PID.TID 0000.0001)                -6.875000000000000E+05,      /* K = 28 */
(PID.TID 0000.0001)                -7.125000000000000E+05,      /* K = 29 */
(PID.TID 0000.0001)                -7.375000000000000E+05,      /* K = 30 */
(PID.TID 0000.0001)                -7.625000000000000E+05,      /* K = 31 */
(PID.TID 0000.0001)                -7.875000000000000E+05,      /* K = 32 */
(PID.TID 0000.0001)                -8.125000000000000E+05,      /* K = 33 */
(PID.TID 0000.0001)                -8.375000000000000E+05,      /* K = 34 */
(PID.TID 0000.0001)                -8.625000000000000E+05,      /* K = 35 */
(PID.TID 0000.0001)                -8.875000000000000E+05,      /* K = 36 */
(PID.TID 0000.0001)                -9.125000000000000E+05,      /* K = 37 */
(PID.TID 0000.0001)                -9.375000000000000E+05,      /* K = 38 */
(PID.TID 0000.0001)                -9.625000000000000E+05,      /* K = 39 */
(PID.TID 0000.0001)                -9.875000000000000E+05,      /* K = 40 */
(PID.TID 0000.0001)                -1.012500000000000E+06,      /* K = 41 */
(PID.TID 0000.0001)                -1.037500000000000E+06,      /* K = 42 */
(PID.TID 0000.0001)                -1.062500000000000E+06,      /* K = 43 */
(PID.TID 0000.0001)                -1.087500000000000E+06,      /* K = 44 */
(PID.TID 0000.0001)                -1.112500000000000E+06,      /* K = 45 */
(PID.TID 0000.0001)                -1.137500000000000E+06,      /* K = 46 */
(PID.TID 0000.0001)                -1.162500000000000E+06,      /* K = 47 */
(PID.TID 0000.0001)                -1.187500000000000E+06,      /* K = 48 */
(PID.TID 0000.0001)                -1.212500000000000E+06,      /* K = 49 */
(PID.TID 0000.0001)                -1.237500000000000E+06,      /* K = 50 */
(PID.TID 0000.0001)                -1.262500000000000E+06,      /* K = 51 */
(PID.TID 0000.0001)                -1.287500000000000E+06,      /* K = 52 */
(PID.TID 0000.0001)                -1.312500000000000E+06,      /* K = 53 */
(PID.TID 0000.0001)                -1.337500000000000E+06,      /* K = 54 */
(PID.TID 0000.0001)                -1.362500000000000E+06,      /* K = 55 */
(PID.TID 0000.0001)                -1.387500000000000E+06,      /* K = 56 */
(PID.TID 0000.0001)                -1.412500000000000E+06,      /* K = 57 */
(PID.TID 0000.0001)                -1.437500000000000E+06,      /* K = 58 */
(PID.TID 0000.0001)                -1.462500000000000E+06,      /* K = 59 */
(PID.TID 0000.0001)                -1.487500000000000E+06,      /* K = 60 */
(PID.TID 0000.0001)                -1.512500000000000E+06,      /* K = 61 */
(PID.TID 0000.0001)                -1.537500000000000E+06,      /* K = 62 */
(PID.TID 0000.0001)                -1.562500000000000E+06,      /* K = 63 */
(PID.TID 0000.0001)                -1.587500000000000E+06,      /* K = 64 */
(PID.TID 0000.0001)                -1.612500000000000E+06,      /* K = 65 */
(PID.TID 0000.0001)                -1.637500000000000E+06,      /* K = 66 */
(PID.TID 0000.0001)                -1.662500000000000E+06,      /* K = 67 */
(PID.TID 0000.0001)                -1.687500000000000E+06,      /* K = 68 */
(PID.TID 0000.0001)                -1.712500000000000E+06,      /* K = 69 */
(PID.TID 0000.0001)                -1.737500000000000E+06,      /* K = 70 */
(PID.TID 0000.0001)                -1.762500000000000E+06,      /* K = 71 */
(PID.TID 0000.0001)                -1.787500000000000E+06,      /* K = 72 */
(PID.TID 0000.0001)                -1.812500000000000E+06,      /* K = 73 */
(PID.TID 0000.0001)                -1.837500000000000E+06,      /* K = 74 */
(PID.TID 0000.0001)                -1.862500000000000E+06,      /* K = 75 */
(PID.TID 0000.0001)                -1.887500000000000E+06,      /* K = 76 */
(PID.TID 0000.0001)                -1.912500000000000E+06,      /* K = 77 */
(PID.TID 0000.0001)                -1.937500000000000E+06,      /* K = 78 */
(PID.TID 0000.0001)                -1.962500000000000E+06,      /* K = 79 */
(PID.TID 0000.0001)                -1.987500000000000E+06,      /* K = 80 */
(PID.TID 0000.0001)                -2.012500000000000E+06,      /* K = 81 */
(PID.TID 0000.0001)                -2.037500000000000E+06,      /* K = 82 */
(PID.TID 0000.0001)                -2.062500000000000E+06,      /* K = 83 */
(PID.TID 0000.0001)                -2.087500000000000E+06,      /* K = 84 */
(PID.TID 0000.0001)                -2.112500000000000E+06,      /* K = 85 */
(PID.TID 0000.0001)                -2.137500000000000E+06,      /* K = 86 */
(PID.TID 0000.0001)                -2.162500000000000E+06,      /* K = 87 */
(PID.TID 0000.0001)                -2.187500000000000E+06,      /* K = 88 */
(PID.TID 0000.0001)                -2.212500000000000E+06,      /* K = 89 */
(PID.TID 0000.0001)                -2.237500000000000E+06,      /* K = 90 */
(PID.TID 0000.0001)                -2.262500000000000E+06,      /* K = 91 */
(PID.TID 0000.0001)                -2.287500000000000E+06,      /* K = 92 */
(PID.TID 0000.0001)                -2.312500000000000E+06,      /* K = 93 */
(PID.TID 0000.0001)                -2.337500000000000E+06,      /* K = 94 */
(PID.TID 0000.0001)                -2.362500000000000E+06,      /* K = 95 */
(PID.TID 0000.0001)                -2.387500000000000E+06,      /* K = 96 */
(PID.TID 0000.0001)                -2.412500000000000E+06,      /* K = 97 */
(PID.TID 0000.0001)                -2.437500000000000E+06,      /* K = 98 */
(PID.TID 0000.0001)                -2.462500000000000E+06,      /* K = 99 */
(PID.TID 0000.0001)                -2.487500000000000E+06,      /* K =100 */
(PID.TID 0000.0001)                -2.512500000000000E+06,      /* K =101 */
(PID.TID 0000.0001)                -2.537500000000000E+06,      /* K =102 */
(PID.TID 0000.0001)                -2.562500000000000E+06,      /* K =103 */
(PID.TID 0000.0001)                -2.587500000000000E+06,      /* K =104 */
(PID.TID 0000.0001)                -2.612500000000000E+06,      /* K =105 */
(PID.TID 0000.0001)                -2.637500000000000E+06,      /* K =106 */
(PID.TID 0000.0001)                -2.662500000000000E+06,      /* K =107 */
(PID.TID 0000.0001)                -2.687500000000000E+06,      /* K =108 */
(PID.TID 0000.0001)                -2.712500000000000E+06,      /* K =109 */
(PID.TID 0000.0001)                -2.737500000000000E+06,      /* K =110 */
(PID.TID 0000.0001)                -2.762500000000000E+06,      /* K =111 */
(PID.TID 0000.0001)                -2.787500000000000E+06,      /* K =112 */
(PID.TID 0000.0001)                -2.812500000000000E+06,      /* K =113 */
(PID.TID 0000.0001)                -2.837500000000000E+06,      /* K =114 */
(PID.TID 0000.0001)                -2.862500000000000E+06,      /* K =115 */
(PID.TID 0000.0001)                -2.887500000000000E+06,      /* K =116 */
(PID.TID 0000.0001)                -2.912500000000000E+06,      /* K =117 */
(PID.TID 0000.0001)                -2.937500000000000E+06,      /* K =118 */
(PID.TID 0000.0001)                -2.962500000000000E+06,      /* K =119 */
(PID.TID 0000.0001)                -2.987500000000000E+06       /* K =120 */
(PID.TID 0000.0001)     ;
(PID.TID 0000.0001) rF =   /* W-Interf. R coordinate (  units of r ) */
(PID.TID 0000.0001)                 0.000000000000000E+00,      /* K =  1 */
(PID.TID 0000.0001)                -2.500000000000000E+04,      /* K =  2 */
(PID.TID 0000.0001)                -5.000000000000000E+04,      /* K =  3 */
(PID.TID 0000.0001)                -7.500000000000000E+04,      /* K =  4 */
(PID.TID 0000.0001)                -1.000000000000000E+05,      /* K =  5 */
(PID.TID 0000.0001)                -1.250000000000000E+05,      /* K =  6 */
(PID.TID 0000.0001)                -1.500000000000000E+05,      /* K =  7 */
(PID.TID 0000.0001)                -1.750000000000000E+05,      /* K =  8 */
(PID.TID 0000.0001)                -2.000000000000000E+05,      /* K =  9 */
(PID.TID 0000.0001)                -2.250000000000000E+05,      /* K = 10 */
(PID.TID 0000.0001)                -2.500000000000000E+05,      /* K = 11 */
(PID.TID 0000.0001)                -2.750000000000000E+05,      /* K = 12 */
(PID.TID 0000.0001)                -3.000000000000000E+05,      /* K = 13 */
(PID.TID 0000.0001)                -3.250000000000000E+05,      /* K = 14 */
(PID.TID 0000.0001)                -3.500000000000000E+05,      /* K = 15 */
(PID.TID 0000.0001)                -3.750000000000000E+05,      /* K = 16 */
(PID.TID 0000.0001)                -4.000000000000000E+05,      /* K = 17 */
(PID.TID 0000.0001)                -4.250000000000000E+05,      /* K = 18 */
(PID.TID 0000.0001)                -4.500000000000000E+05,      /* K = 19 */
(PID.TID 0000.0001)                -4.750000000000000E+05,      /* K = 20 */
(PID.TID 0000.0001)                -5.000000000000000E+05,      /* K = 21 */
(PID.TID 0000.0001)                -5.250000000000000E+05,      /* K = 22 */
(PID.TID 0000.0001)                -5.500000000000000E+05,      /* K = 23 */
(PID.TID 0000.0001)                -5.750000000000000E+05,      /* K = 24 */
(PID.TID 0000.0001)                -6.000000000000000E+05,      /* K = 25 */
(PID.TID 0000.0001)                -6.250000000000000E+05,      /* K = 26 */
(PID.TID 0000.0001)                -6.500000000000000E+05,      /* K = 27 */
(PID.TID 0000.0001)                -6.750000000000000E+05,      /* K = 28 */
(PID.TID 0000.0001)                -7.000000000000000E+05,      /* K = 29 */
(PID.TID 0000.0001)                -7.250000000000000E+05,      /* K = 30 */
(PID.TID 0000.0001)                -7.500000000000000E+05,      /* K = 31 */
(PID.TID 0000.0001)                -7.750000000000000E+05,      /* K = 32 */
(PID.TID 0000.0001)                -8.000000000000000E+05,      /* K = 33 */
(PID.TID 0000.0001)                -8.250000000000000E+05,      /* K = 34 */
(PID.TID 0000.0001)                -8.500000000000000E+05,      /* K = 35 */
(PID.TID 0000.0001)                -8.750000000000000E+05,      /* K = 36 */
(PID.TID 0000.0001)                -9.000000000000000E+05,      /* K = 37 */
(PID.TID 0000.0001)                -9.250000000000000E+05,      /* K = 38 */
(PID.TID 0000.0001)                -9.500000000000000E+05,      /* K = 39 */
(PID.TID 0000.0001)                -9.750000000000000E+05,      /* K = 40 */
(PID.TID 0000.0001)                -1.000000000000000E+06,      /* K = 41 */
(PID.TID 0000.0001)                -1.025000000000000E+06,      /* K = 42 */
(PID.TID 0000.0001)                -1.050000000000000E+06,      /* K = 43 */
(PID.TID 0000.0001)                -1.075000000000000E+06,      /* K = 44 */
(PID.TID 0000.0001)                -1.100000000000000E+06,      /* K = 45 */
(PID.TID 0000.0001)                -1.125000000000000E+06,      /* K = 46 */
(PID.TID 0000.0001)                -1.150000000000000E+06,      /* K = 47 */
(PID.TID 0000.0001)                -1.175000000000000E+06,      /* K = 48 */
(PID.TID 0000.0001)                -1.200000000000000E+06,      /* K = 49 */
(PID.TID 0000.0001)                -1.225000000000000E+06,      /* K = 50 */
(PID.TID 0000.0001)                -1.250000000000000E+06,      /* K = 51 */
(PID.TID 0000.0001)                -1.275000000000000E+06,      /* K = 52 */
(PID.TID 0000.0001)                -1.300000000000000E+06,      /* K = 53 */
(PID.TID 0000.0001)                -1.325000000000000E+06,      /* K = 54 */
(PID.TID 0000.0001)                -1.350000000000000E+06,      /* K = 55 */
(PID.TID 0000.0001)                -1.375000000000000E+06,      /* K = 56 */
(PID.TID 0000.0001)                -1.400000000000000E+06,      /* K = 57 */
(PID.TID 0000.0001)                -1.425000000000000E+06,      /* K = 58 */
(PID.TID 0000.0001)                -1.450000000000000E+06,      /* K = 59 */
(PID.TID 0000.0001)                -1.475000000000000E+06,      /* K = 60 */
(PID.TID 0000.0001)                -1.500000000000000E+06,      /* K = 61 */
(PID.TID 0000.0001)                -1.525000000000000E+06,      /* K = 62 */
(PID.TID 0000.0001)                -1.550000000000000E+06,      /* K = 63 */
(PID.TID 0000.0001)                -1.575000000000000E+06,      /* K = 64 */
(PID.TID 0000.0001)                -1.600000000000000E+06,      /* K = 65 */
(PID.TID 0000.0001)                -1.625000000000000E+06,      /* K = 66 */
(PID.TID 0000.0001)                -1.650000000000000E+06,      /* K = 67 */
(PID.TID 0000.0001)                -1.675000000000000E+06,      /* K = 68 */
(PID.TID 0000.0001)                -1.700000000000000E+06,      /* K = 69 */
(PID.TID 0000.0001)                -1.725000000000000E+06,      /* K = 70 */
(PID.TID 0000.0001)                -1.750000000000000E+06,      /* K = 71 */
(PID.TID 0000.0001)                -1.775000000000000E+06,      /* K = 72 */
(PID.TID 0000.0001)                -1.800000000000000E+06,      /* K = 73 */
(PID.TID 0000.0001)                -1.825000000000000E+06,      /* K = 74 */
(PID.TID 0000.0001)                -1.850000000000000E+06,      /* K = 75 */
(PID.TID 0000.0001)                -1.875000000000000E+06,      /* K = 76 */
(PID.TID 0000.0001)                -1.900000000000000E+06,      /* K = 77 */
(PID.TID 0000.0001)                -1.925000000000000E+06,      /* K = 78 */
(PID.TID 0000.0001)                -1.950000000000000E+06,      /* K = 79 */
(PID.TID 0000.0001)                -1.975000000000000E+06,      /* K = 80 */
(PID.TID 0000.0001)                -2.000000000000000E+06,      /* K = 81 */
(PID.TID 0000.0001)                -2.025000000000000E+06,      /* K = 82 */
(PID.TID 0000.0001)                -2.050000000000000E+06,      /* K = 83 */
(PID.TID 0000.0001)                -2.075000000000000E+06,      /* K = 84 */
(PID.TID 0000.0001)                -2.100000000000000E+06,      /* K = 85 */
(PID.TID 0000.0001)                -2.125000000000000E+06,      /* K = 86 */
(PID.TID 0000.0001)                -2.150000000000000E+06,      /* K = 87 */
(PID.TID 0000.0001)                -2.175000000000000E+06,      /* K = 88 */
(PID.TID 0000.0001)                -2.200000000000000E+06,      /* K = 89 */
(PID.TID 0000.0001)                -2.225000000000000E+06,      /* K = 90 */
(PID.TID 0000.0001)                -2.250000000000000E+06,      /* K = 91 */
(PID.TID 0000.0001)                -2.275000000000000E+06,      /* K = 92 */
(PID.TID 0000.0001)                -2.300000000000000E+06,      /* K = 93 */
(PID.TID 0000.0001)                -2.325000000000000E+06,      /* K = 94 */
(PID.TID 0000.0001)                -2.350000000000000E+06,      /* K = 95 */
(PID.TID 0000.0001)                -2.375000000000000E+06,      /* K = 96 */
(PID.TID 0000.0001)                -2.400000000000000E+06,      /* K = 97 */
(PID.TID 0000.0001)                -2.425000000000000E+06,      /* K = 98 */
(PID.TID 0000.0001)                -2.450000000000000E+06,      /* K = 99 */
(PID.TID 0000.0001)                -2.475000000000000E+06,      /* K =100 */
(PID.TID 0000.0001)                -2.500000000000000E+06,      /* K =101 */
(PID.TID 0000.0001)                -2.525000000000000E+06,      /* K =102 */
(PID.TID 0000.0001)                -2.550000000000000E+06,      /* K =103 */
(PID.TID 0000.0001)                -2.575000000000000E+06,      /* K =104 */
(PID.TID 0000.0001)                -2.600000000000000E+06,      /* K =105 */
(PID.TID 0000.0001)                -2.625000000000000E+06,      /* K =106 */
(PID.TID 0000.0001)                -2.650000000000000E+06,      /* K =107 */
(PID.TID 0000.0001)                -2.675000000000000E+06,      /* K =108 */
(PID.TID 0000.0001)                -2.700000000000000E+06,      /* K =109 */
(PID.TID 0000.0001)                -2.725000000000000E+06,      /* K =110 */
(PID.TID 0000.0001)                -2.750000000000000E+06,      /* K =111 */
(PID.TID 0000.0001)                -2.775000000000000E+06,      /* K =112 */
(PID.TID 0000.0001)                -2.800000000000000E+06,      /* K =113 */
(PID.TID 0000.0001)                -2.825000000000000E+06,      /* K =114 */
(PID.TID 0000.0001)                -2.850000000000000E+06,      /* K =115 */
(PID.TID 0000.0001)                -2.875000000000000E+06,      /* K =116 */
(PID.TID 0000.0001)                -2.900000000000000E+06,      /* K =117 */
(PID.TID 0000.0001)                -2.925000000000000E+06,      /* K =118 */
(PID.TID 0000.0001)                -2.950000000000000E+06,      /* K =119 */
(PID.TID 0000.0001)                -2.975000000000000E+06,      /* K =120 */
(PID.TID 0000.0001)                -3.000000000000000E+06       /* K =121 */
(PID.TID 0000.0001)     ;
(PID.TID 0000.0001) deepFacC = /* deep-model grid factor @ cell-Center (-) */
(PID.TID 0000.0001)                 9.980376766091051E-01,      /* K =  1 */
(PID.TID 0000.0001)                 9.941130298273155E-01,      /* K =  2 */
(PID.TID 0000.0001)                 9.901883830455259E-01,      /* K =  3 */
(PID.TID 0000.0001)                 9.862637362637363E-01,      /* K =  4 */
(PID.TID 0000.0001)                 9.823390894819466E-01,      /* K =  5 */
(PID.TID 0000.0001)                 9.784144427001570E-01,      /* K =  6 */
(PID.TID 0000.0001)                 9.744897959183674E-01,      /* K =  7 */
(PID.TID 0000.0001)                 9.705651491365778E-01,      /* K =  8 */
(PID.TID 0000.0001)                 9.666405023547880E-01,      /* K =  9 */
(PID.TID 0000.0001)                 9.627158555729984E-01,      /* K = 10 */
(PID.TID 0000.0001)                 9.587912087912088E-01,      /* K = 11 */
(PID.TID 0000.0001)                 9.548665620094192E-01,      /* K = 12 */
(PID.TID 0000.0001)                 9.509419152276295E-01,      /* K = 13 */
(PID.TID 0000.0001)                 9.470172684458399E-01,      /* K = 14 */
(PID.TID 0000.0001)                 9.430926216640503E-01,      /* K = 15 */
(PID.TID 0000.0001)                 9.391679748822606E-01,      /* K = 16 */
(PID.TID 0000.0001)                 9.352433281004709E-01,      /* K = 17 */
(PID.TID 0000.0001)                 9.313186813186813E-01,      /* K = 18 */
(PID.TID 0000.0001)                 9.273940345368917E-01,      /* K = 19 */
(PID.TID 0000.0001)                 9.234693877551020E-01,      /* K = 20 */
(PID.TID 0000.0001)                 9.195447409733124E-01,      /* K = 21 */
(PID.TID 0000.0001)                 9.156200941915228E-01,      /* K = 22 */
(PID.TID 0000.0001)                 9.116954474097332E-01,      /* K = 23 */
(PID.TID 0000.0001)                 9.077708006279435E-01,      /* K = 24 */
(PID.TID 0000.0001)                 9.038461538461539E-01,      /* K = 25 */
(PID.TID 0000.0001)                 8.999215070643642E-01,      /* K = 26 */
(PID.TID 0000.0001)                 8.959968602825745E-01,      /* K = 27 */
(PID.TID 0000.0001)                 8.920722135007849E-01,      /* K = 28 */
(PID.TID 0000.0001)                 8.881475667189953E-01,      /* K = 29 */
(PID.TID 0000.0001)                 8.842229199372057E-01,      /* K = 30 */
(PID.TID 0000.0001)                 8.802982731554160E-01,      /* K = 31 */
(PID.TID 0000.0001)                 8.763736263736264E-01,      /* K = 32 */
(PID.TID 0000.0001)                 8.724489795918368E-01,      /* K = 33 */
(PID.TID 0000.0001)                 8.685243328100472E-01,      /* K = 34 */
(PID.TID 0000.0001)                 8.645996860282574E-01,      /* K = 35 */
(PID.TID 0000.0001)                 8.606750392464678E-01,      /* K = 36 */
(PID.TID 0000.0001)                 8.567503924646782E-01,      /* K = 37 */
(PID.TID 0000.0001)                 8.528257456828886E-01,      /* K = 38 */
(PID.TID 0000.0001)                 8.489010989010989E-01,      /* K = 39 */
(PID.TID 0000.0001)                 8.449764521193093E-01,      /* K = 40 */
(PID.TID 0000.0001)                 8.410518053375197E-01,      /* K = 41 */
(PID.TID 0000.0001)                 8.371271585557299E-01,      /* K = 42 */
(PID.TID 0000.0001)                 8.332025117739403E-01,      /* K = 43 */
(PID.TID 0000.0001)                 8.292778649921507E-01,      /* K = 44 */
(PID.TID 0000.0001)                 8.253532182103611E-01,      /* K = 45 */
(PID.TID 0000.0001)                 8.214285714285714E-01,      /* K = 46 */
(PID.TID 0000.0001)                 8.175039246467818E-01,      /* K = 47 */
(PID.TID 0000.0001)                 8.135792778649922E-01,      /* K = 48 */
(PID.TID 0000.0001)                 8.096546310832026E-01,      /* K = 49 */
(PID.TID 0000.0001)                 8.057299843014128E-01,      /* K = 50 */
(PID.TID 0000.0001)                 8.018053375196232E-01,      /* K = 51 */
(PID.TID 0000.0001)                 7.978806907378336E-01,      /* K = 52 */
(PID.TID 0000.0001)                 7.939560439560439E-01,      /* K = 53 */
(PID.TID 0000.0001)                 7.900313971742543E-01,      /* K = 54 */
(PID.TID 0000.0001)                 7.861067503924647E-01,      /* K = 55 */
(PID.TID 0000.0001)                 7.821821036106751E-01,      /* K = 56 */
(PID.TID 0000.0001)                 7.782574568288854E-01,      /* K = 57 */
(PID.TID 0000.0001)                 7.743328100470958E-01,      /* K = 58 */
(PID.TID 0000.0001)                 7.704081632653061E-01,      /* K = 59 */
(PID.TID 0000.0001)                 7.664835164835165E-01,      /* K = 60 */
(PID.TID 0000.0001)                 7.625588697017268E-01,      /* K = 61 */
(PID.TID 0000.0001)                 7.586342229199372E-01,      /* K = 62 */
(PID.TID 0000.0001)                 7.547095761381476E-01,      /* K = 63 */
(PID.TID 0000.0001)                 7.507849293563580E-01,      /* K = 64 */
(PID.TID 0000.0001)                 7.468602825745683E-01,      /* K = 65 */
(PID.TID 0000.0001)                 7.429356357927787E-01,      /* K = 66 */
(PID.TID 0000.0001)                 7.390109890109891E-01,      /* K = 67 */
(PID.TID 0000.0001)                 7.350863422291993E-01,      /* K = 68 */
(PID.TID 0000.0001)                 7.311616954474097E-01,      /* K = 69 */
(PID.TID 0000.0001)                 7.272370486656201E-01,      /* K = 70 */
(PID.TID 0000.0001)                 7.233124018838305E-01,      /* K = 71 */
(PID.TID 0000.0001)                 7.193877551020408E-01,      /* K = 72 */
(PID.TID 0000.0001)                 7.154631083202512E-01,      /* K = 73 */
(PID.TID 0000.0001)                 7.115384615384616E-01,      /* K = 74 */
(PID.TID 0000.0001)                 7.076138147566720E-01,      /* K = 75 */
(PID.TID 0000.0001)                 7.036891679748822E-01,      /* K = 76 */
(PID.TID 0000.0001)                 6.997645211930926E-01,      /* K = 77 */
(PID.TID 0000.0001)                 6.958398744113030E-01,      /* K = 78 */
(PID.TID 0000.0001)                 6.919152276295133E-01,      /* K = 79 */
(PID.TID 0000.0001)                 6.879905808477237E-01,      /* K = 80 */
(PID.TID 0000.0001)                 6.840659340659341E-01,      /* K = 81 */
(PID.TID 0000.0001)                 6.801412872841445E-01,      /* K = 82 */
(PID.TID 0000.0001)                 6.762166405023547E-01,      /* K = 83 */
(PID.TID 0000.0001)                 6.722919937205651E-01,      /* K = 84 */
(PID.TID 0000.0001)                 6.683673469387755E-01,      /* K = 85 */
(PID.TID 0000.0001)                 6.644427001569859E-01,      /* K = 86 */
(PID.TID 0000.0001)                 6.605180533751962E-01,      /* K = 87 */
(PID.TID 0000.0001)                 6.565934065934066E-01,      /* K = 88 */
(PID.TID 0000.0001)                 6.526687598116170E-01,      /* K = 89 */
(PID.TID 0000.0001)                 6.487441130298274E-01,      /* K = 90 */
(PID.TID 0000.0001)                 6.448194662480377E-01,      /* K = 91 */
(PID.TID 0000.0001)                 6.408948194662480E-01,      /* K = 92 */
(PID.TID 0000.0001)                 6.369701726844584E-01,      /* K = 93 */
(PID.TID 0000.0001)                 6.330455259026687E-01,      /* K = 94 */
(PID.TID 0000.0001)                 6.291208791208791E-01,      /* K = 95 */
(PID.TID 0000.0001)                 6.251962323390895E-01,      /* K = 96 */
(PID.TID 0000.0001)                 6.212715855572999E-01,      /* K = 97 */
(PID.TID 0000.0001)                 6.173469387755102E-01,      /* K = 98 */
(PID.TID 0000.0001)                 6.134222919937206E-01,      /* K = 99 */
(PID.TID 0000.0001)                 6.094976452119309E-01,      /* K =100 */
(PID.TID 0000.0001)                 6.055729984301413E-01,      /* K =101 */
(PID.TID 0000.0001)                 6.016483516483516E-01,      /* K =102 */
(PID.TID 0000.0001)                 5.977237048665620E-01,      /* K =103 */
(PID.TID 0000.0001)                 5.937990580847724E-01,      /* K =104 */
(PID.TID 0000.0001)                 5.898744113029828E-01,      /* K =105 */
(PID.TID 0000.0001)                 5.859497645211931E-01,      /* K =106 */
(PID.TID 0000.0001)                 5.820251177394035E-01,      /* K =107 */
(PID.TID 0000.0001)                 5.781004709576139E-01,      /* K =108 */
(PID.TID 0000.0001)                 5.741758241758241E-01,      /* K =109 */
(PID.TID 0000.0001)                 5.702511773940345E-01,      /* K =110 */
(PID.TID 0000.0001)                 5.663265306122449E-01,      /* K =111 */
(PID.TID 0000.0001)                 5.624018838304553E-01,      /* K =112 */
(PID.TID 0000.0001)                 5.584772370486656E-01,      /* K =113 */
(PID.TID 0000.0001)                 5.545525902668760E-01,      /* K =114 */
(PID.TID 0000.0001)                 5.506279434850864E-01,      /* K =115 */
(PID.TID 0000.0001)                 5.467032967032968E-01,      /* K =116 */
(PID.TID 0000.0001)                 5.427786499215070E-01,      /* K =117 */
(PID.TID 0000.0001)                 5.388540031397174E-01,      /* K =118 */
(PID.TID 0000.0001)                 5.349293563579278E-01,      /* K =119 */
(PID.TID 0000.0001)                 5.310047095761381E-01       /* K =120 */
(PID.TID 0000.0001)     ;
(PID.TID 0000.0001) deepFacF = /* deep-model grid factor @ W-Interface (-) */
(PID.TID 0000.0001)                 1.000000000000000E+00,      /* K =  1 */
(PID.TID 0000.0001)                 9.960753532182104E-01,      /* K =  2 */
(PID.TID 0000.0001)                 9.921507064364208E-01,      /* K =  3 */
(PID.TID 0000.0001)                 9.882260596546311E-01,      /* K =  4 */
(PID.TID 0000.0001)                 9.843014128728415E-01,      /* K =  5 */
(PID.TID 0000.0001)                 9.803767660910518E-01,      /* K =  6 */
(PID.TID 0000.0001)                 9.764521193092621E-01,      /* K =  7 */
(PID.TID 0000.0001)                 9.725274725274725E-01,      /* K =  8 */
(PID.TID 0000.0001)                 9.686028257456829E-01,      /* K =  9 */
(PID.TID 0000.0001)                 9.646781789638933E-01,      /* K = 10 */
(PID.TID 0000.0001)                 9.607535321821036E-01,      /* K = 11 */
(PID.TID 0000.0001)                 9.568288854003140E-01,      /* K = 12 */
(PID.TID 0000.0001)                 9.529042386185244E-01,      /* K = 13 */
(PID.TID 0000.0001)                 9.489795918367347E-01,      /* K = 14 */
(PID.TID 0000.0001)                 9.450549450549450E-01,      /* K = 15 */
(PID.TID 0000.0001)                 9.411302982731554E-01,      /* K = 16 */
(PID.TID 0000.0001)                 9.372056514913658E-01,      /* K = 17 */
(PID.TID 0000.0001)                 9.332810047095762E-01,      /* K = 18 */
(PID.TID 0000.0001)                 9.293563579277865E-01,      /* K = 19 */
(PID.TID 0000.0001)                 9.254317111459969E-01,      /* K = 20 */
(PID.TID 0000.0001)                 9.215070643642073E-01,      /* K = 21 */
(PID.TID 0000.0001)                 9.175824175824175E-01,      /* K = 22 */
(PID.TID 0000.0001)                 9.136577708006279E-01,      /* K = 23 */
(PID.TID 0000.0001)                 9.097331240188383E-01,      /* K = 24 */
(PID.TID 0000.0001)                 9.058084772370487E-01,      /* K = 25 */
(PID.TID 0000.0001)                 9.018838304552590E-01,      /* K = 26 */
(PID.TID 0000.0001)                 8.979591836734694E-01,      /* K = 27 */
(PID.TID 0000.0001)                 8.940345368916798E-01,      /* K = 28 */
(PID.TID 0000.0001)                 8.901098901098902E-01,      /* K = 29 */
(PID.TID 0000.0001)                 8.861852433281004E-01,      /* K = 30 */
(PID.TID 0000.0001)                 8.822605965463108E-01,      /* K = 31 */
(PID.TID 0000.0001)                 8.783359497645212E-01,      /* K = 32 */
(PID.TID 0000.0001)                 8.744113029827316E-01,      /* K = 33 */
(PID.TID 0000.0001)                 8.704866562009419E-01,      /* K = 34 */
(PID.TID 0000.0001)                 8.665620094191523E-01,      /* K = 35 */
(PID.TID 0000.0001)                 8.626373626373627E-01,      /* K = 36 */
(PID.TID 0000.0001)                 8.587127158555730E-01,      /* K = 37 */
(PID.TID 0000.0001)                 8.547880690737834E-01,      /* K = 38 */
(PID.TID 0000.0001)                 8.508634222919937E-01,      /* K = 39 */
(PID.TID 0000.0001)                 8.469387755102041E-01,      /* K = 40 */
(PID.TID 0000.0001)                 8.430141287284144E-01,      /* K = 41 */
(PID.TID 0000.0001)                 8.390894819466248E-01,      /* K = 42 */
(PID.TID 0000.0001)                 8.351648351648352E-01,      /* K = 43 */
(PID.TID 0000.0001)                 8.312401883830456E-01,      /* K = 44 */
(PID.TID 0000.0001)                 8.273155416012559E-01,      /* K = 45 */
(PID.TID 0000.0001)                 8.233908948194663E-01,      /* K = 46 */
(PID.TID 0000.0001)                 8.194662480376766E-01,      /* K = 47 */
(PID.TID 0000.0001)                 8.155416012558869E-01,      /* K = 48 */
(PID.TID 0000.0001)                 8.116169544740973E-01,      /* K = 49 */
(PID.TID 0000.0001)                 8.076923076923077E-01,      /* K = 50 */
(PID.TID 0000.0001)                 8.037676609105181E-01,      /* K = 51 */
(PID.TID 0000.0001)                 7.998430141287284E-01,      /* K = 52 */
(PID.TID 0000.0001)                 7.959183673469388E-01,      /* K = 53 */
(PID.TID 0000.0001)                 7.919937205651492E-01,      /* K = 54 */
(PID.TID 0000.0001)                 7.880690737833596E-01,      /* K = 55 */
(PID.TID 0000.0001)                 7.841444270015698E-01,      /* K = 56 */
(PID.TID 0000.0001)                 7.802197802197802E-01,      /* K = 57 */
(PID.TID 0000.0001)                 7.762951334379906E-01,      /* K = 58 */
(PID.TID 0000.0001)                 7.723704866562010E-01,      /* K = 59 */
(PID.TID 0000.0001)                 7.684458398744113E-01,      /* K = 60 */
(PID.TID 0000.0001)                 7.645211930926217E-01,      /* K = 61 */
(PID.TID 0000.0001)                 7.605965463108321E-01,      /* K = 62 */
(PID.TID 0000.0001)                 7.566718995290423E-01,      /* K = 63 */
(PID.TID 0000.0001)                 7.527472527472527E-01,      /* K = 64 */
(PID.TID 0000.0001)                 7.488226059654631E-01,      /* K = 65 */
(PID.TID 0000.0001)                 7.448979591836735E-01,      /* K = 66 */
(PID.TID 0000.0001)                 7.409733124018838E-01,      /* K = 67 */
(PID.TID 0000.0001)                 7.370486656200942E-01,      /* K = 68 */
(PID.TID 0000.0001)                 7.331240188383046E-01,      /* K = 69 */
(PID.TID 0000.0001)                 7.291993720565150E-01,      /* K = 70 */
(PID.TID 0000.0001)                 7.252747252747253E-01,      /* K = 71 */
(PID.TID 0000.0001)                 7.213500784929356E-01,      /* K = 72 */
(PID.TID 0000.0001)                 7.174254317111460E-01,      /* K = 73 */
(PID.TID 0000.0001)                 7.135007849293563E-01,      /* K = 74 */
(PID.TID 0000.0001)                 7.095761381475667E-01,      /* K = 75 */
(PID.TID 0000.0001)                 7.056514913657771E-01,      /* K = 76 */
(PID.TID 0000.0001)                 7.017268445839875E-01,      /* K = 77 */
(PID.TID 0000.0001)                 6.978021978021978E-01,      /* K = 78 */
(PID.TID 0000.0001)                 6.938775510204082E-01,      /* K = 79 */
(PID.TID 0000.0001)                 6.899529042386185E-01,      /* K = 80 */
(PID.TID 0000.0001)                 6.860282574568289E-01,      /* K = 81 */
(PID.TID 0000.0001)                 6.821036106750392E-01,      /* K = 82 */
(PID.TID 0000.0001)                 6.781789638932496E-01,      /* K = 83 */
(PID.TID 0000.0001)                 6.742543171114600E-01,      /* K = 84 */
(PID.TID 0000.0001)                 6.703296703296704E-01,      /* K = 85 */
(PID.TID 0000.0001)                 6.664050235478807E-01,      /* K = 86 */
(PID.TID 0000.0001)                 6.624803767660911E-01,      /* K = 87 */
(PID.TID 0000.0001)                 6.585557299843015E-01,      /* K = 88 */
(PID.TID 0000.0001)                 6.546310832025117E-01,      /* K = 89 */
(PID.TID 0000.0001)                 6.507064364207221E-01,      /* K = 90 */
(PID.TID 0000.0001)                 6.467817896389325E-01,      /* K = 91 */
(PID.TID 0000.0001)                 6.428571428571429E-01,      /* K = 92 */
(PID.TID 0000.0001)                 6.389324960753532E-01,      /* K = 93 */
(PID.TID 0000.0001)                 6.350078492935636E-01,      /* K = 94 */
(PID.TID 0000.0001)                 6.310832025117740E-01,      /* K = 95 */
(PID.TID 0000.0001)                 6.271585557299844E-01,      /* K = 96 */
(PID.TID 0000.0001)                 6.232339089481946E-01,      /* K = 97 */
(PID.TID 0000.0001)                 6.193092621664050E-01,      /* K = 98 */
(PID.TID 0000.0001)                 6.153846153846154E-01,      /* K = 99 */
(PID.TID 0000.0001)                 6.114599686028257E-01,      /* K =100 */
(PID.TID 0000.0001)                 6.075353218210361E-01,      /* K =101 */
(PID.TID 0000.0001)                 6.036106750392465E-01,      /* K =102 */
(PID.TID 0000.0001)                 5.996860282574569E-01,      /* K =103 */
(PID.TID 0000.0001)                 5.957613814756672E-01,      /* K =104 */
(PID.TID 0000.0001)                 5.918367346938775E-01,      /* K =105 */
(PID.TID 0000.0001)                 5.879120879120879E-01,      /* K =106 */
(PID.TID 0000.0001)                 5.839874411302983E-01,      /* K =107 */
(PID.TID 0000.0001)                 5.800627943485086E-01,      /* K =108 */
(PID.TID 0000.0001)                 5.761381475667190E-01,      /* K =109 */
(PID.TID 0000.0001)                 5.722135007849294E-01,      /* K =110 */
(PID.TID 0000.0001)                 5.682888540031398E-01,      /* K =111 */
(PID.TID 0000.0001)                 5.643642072213501E-01,      /* K =112 */
(PID.TID 0000.0001)                 5.604395604395604E-01,      /* K =113 */
(PID.TID 0000.0001)                 5.565149136577708E-01,      /* K =114 */
(PID.TID 0000.0001)                 5.525902668759811E-01,      /* K =115 */
(PID.TID 0000.0001)                 5.486656200941915E-01,      /* K =116 */
(PID.TID 0000.0001)                 5.447409733124019E-01,      /* K =117 */
(PID.TID 0000.0001)                 5.408163265306123E-01,      /* K =118 */
(PID.TID 0000.0001)                 5.368916797488226E-01,      /* K =119 */
(PID.TID 0000.0001)                 5.329670329670330E-01,      /* K =120 */
(PID.TID 0000.0001)                 5.290423861852434E-01       /* K =121 */
(PID.TID 0000.0001)     ;
(PID.TID 0000.0001) rotateGrid = /* use rotated grid ( True/False ) */
(PID.TID 0000.0001)                   F
(PID.TID 0000.0001)     ;
(PID.TID 0000.0001) phiEuler = /* Euler angle, rotation about original z-coordinate [rad] */
(PID.TID 0000.0001)                 0.000000000000000E+00
(PID.TID 0000.0001)     ;
(PID.TID 0000.0001) thetaEuler = /* Euler angle, rotation about new x-coordinate [rad] */
(PID.TID 0000.0001)                 0.000000000000000E+00
(PID.TID 0000.0001)     ;
(PID.TID 0000.0001) psiEuler = /* Euler angle, rotation about new z-coordinate [rad] */
(PID.TID 0000.0001)                 0.000000000000000E+00
(PID.TID 0000.0001)     ;
(PID.TID 0000.0001) dxF =  /* dxF(:,1,:,1) ( units: m ) */
(PID.TID 0000.0001)                 2.026048527919801E+05       /* I =  1 */
(PID.TID 0000.0001)     ;
(PID.TID 0000.0001) dxF =  /* dxF(1,:,1,:) ( units: m ) */
(PID.TID 0000.0001)                 2.026048527919801E+05,      /* J =  1 */
(PID.TID 0000.0001)                 2.216522321591896E+05,      /* J =  2 */
(PID.TID 0000.0001)                 2.406320941092900E+05,      /* J =  3 */
(PID.TID 0000.0001)      . . .
(PID.TID 0000.0001)                 8.196863146626968E+05,      /* J = 38 */
(PID.TID 0000.0001)                 8.326700468987628E+05,      /* J = 39 */
(PID.TID 0000.0001)                 8.454001397722876E+05,      /* J = 40 */
(PID.TID 0000.0001)                 8.578727155736628E+05,      /* J = 41 */
(PID.TID 0000.0001)                 8.700839750354744E+05,      /* J = 42 */
(PID.TID 0000.0001)                 8.820301984897978E+05,      /* J = 43 */
(PID.TID 0000.0001)      . . .
(PID.TID 0000.0001)                 1.110716570323187E+06,      /* J = 78 */
(PID.TID 0000.0001)                 1.111393756086404E+06,      /* J = 79 */
(PID.TID 0000.0001)                 1.111732400545204E+06,      /* J = 80 */
(PID.TID 0000.0001)                 1.111732400545204E+06,      /* J = 81 */
(PID.TID 0000.0001)                 1.111393756086404E+06,      /* J = 82 */
(PID.TID 0000.0001)                 1.110716570323187E+06,      /* J = 83 */
(PID.TID 0000.0001)      . . .
(PID.TID 0000.0001)                 8.820301984897978E+05,      /* J =118 */
(PID.TID 0000.0001)                 8.700839750354744E+05,      /* J =119 */
(PID.TID 0000.0001)                 8.578727155736628E+05,      /* J =120 */
(PID.TID 0000.0001)                 8.454001397722876E+05,      /* J =121 */
(PID.TID 0000.0001)                 8.326700468987628E+05,      /* J =122 */
(PID.TID 0000.0001)                 8.196863146626968E+05,      /* J =123 */
(PID.TID 0000.0001)      . . .
(PID.TID 0000.0001)                 2.406320941092900E+05,      /* J =158 */
(PID.TID 0000.0001)                 2.216522321591896E+05,      /* J =159 */
(PID.TID 0000.0001)                 2.026048527919801E+05       /* J =160 */
(PID.TID 0000.0001)     ;
(PID.TID 0000.0001) dyF =  /* dyF(:,1,:,1) ( units: m ) */
(PID.TID 0000.0001)                 1.111774733520388E+05       /* I =  1 */
(PID.TID 0000.0001)     ;
(PID.TID 0000.0001) dyF =  /* dyF(1,:,1,:) ( units: m ) */
(PID.TID 0000.0001)   160 @  1.111774733520388E+05              /* J =  1:160 */
(PID.TID 0000.0001)     ;
(PID.TID 0000.0001) dxG =  /* dxG(:,1,:,1) ( units: m ) */
(PID.TID 0000.0001)                 1.930576564519526E+05       /* I =  1 */
(PID.TID 0000.0001)     ;
(PID.TID 0000.0001) dxG =  /* dxG(1,:,1,:) ( units: m ) */
(PID.TID 0000.0001)                 1.930576564519526E+05,      /* J =  1 */
(PID.TID 0000.0001)                 2.121366199880512E+05,      /* J =  2 */
(PID.TID 0000.0001)                 2.311509646546878E+05,      /* J =  3 */
(PID.TID 0000.0001)      . . .
(PID.TID 0000.0001)                 8.131005667268025E+05,      /* J = 38 */
(PID.TID 0000.0001)                 8.262096403121852E+05,      /* J = 39 */
(PID.TID 0000.0001)                 8.390670424374563E+05,      /* J = 40 */
(PID.TID 0000.0001)                 8.516688566133757E+05,      /* J = 41 */
(PID.TID 0000.0001)                 8.640112442052695E+05,      /* J = 42 */
(PID.TID 0000.0001)                 8.760904456023134E+05,      /* J = 43 */
(PID.TID 0000.0001)      . . .
(PID.TID 0000.0001)                 1.110251084887355E+06,      /* J = 78 */
(PID.TID 0000.0001)                 1.111097470391875E+06,      /* J = 79 */
(PID.TID 0000.0001)                 1.111605404843471E+06,      /* J = 80 */
(PID.TID 0000.0001)                 1.111774733520388E+06,      /* J = 81 */
(PID.TID 0000.0001)                 1.111605404843471E+06,      /* J = 82 */
(PID.TID 0000.0001)                 1.111097470391875E+06,      /* J = 83 */
(PID.TID 0000.0001)      . . .
(PID.TID 0000.0001)                 8.879027813627481E+05,      /* J =118 */
(PID.TID 0000.0001)                 8.760904456023134E+05,      /* J =119 */
(PID.TID 0000.0001)                 8.640112442052695E+05,      /* J =120 */
(PID.TID 0000.0001)                 8.516688566133757E+05,      /* J =121 */
(PID.TID 0000.0001)                 8.390670424374563E+05,      /* J =122 */
(PID.TID 0000.0001)                 8.262096403121852E+05,      /* J =123 */
(PID.TID 0000.0001)      . . .
(PID.TID 0000.0001)                 2.500948984982807E+05,      /* J =158 */
(PID.TID 0000.0001)                 2.311509646546878E+05,      /* J =159 */
(PID.TID 0000.0001)                 2.121366199880512E+05       /* J =160 */
(PID.TID 0000.0001)     ;
(PID.TID 0000.0001) dyG =  /* dyG(:,1,:,1) ( units: m ) */
(PID.TID 0000.0001)                 1.111774733520388E+05       /* I =  1 */
(PID.TID 0000.0001)     ;
(PID.TID 0000.0001) dyG =  /* dyG(1,:,1,:) ( units: m ) */
(PID.TID 0000.0001)   160 @  1.111774733520388E+05              /* J =  1:160 */
(PID.TID 0000.0001)     ;
(PID.TID 0000.0001) dxC =  /* dxC(:,1,:,1) ( units: m ) */
(PID.TID 0000.0001)                 2.026048527919801E+05       /* I =  1 */
(PID.TID 0000.0001)     ;
(PID.TID 0000.0001) dxC =  /* dxC(1,:,1,:) ( units: m ) */
(PID.TID 0000.0001)                 2.026048527919801E+05,      /* J =  1 */
(PID.TID 0000.0001)                 2.216522321591896E+05,      /* J =  2 */
(PID.TID 0000.0001)                 2.406320941092900E+05,      /* J =  3 */
(PID.TID 0000.0001)      . . .
(PID.TID 0000.0001)                 8.196863146626968E+05,      /* J = 38 */
(PID.TID 0000.0001)                 8.326700468987628E+05,      /* J = 39 */
(PID.TID 0000.0001)                 8.454001397722876E+05,      /* J = 40 */
(PID.TID 0000.0001)                 8.578727155736628E+05,      /* J = 41 */
(PID.TID 0000.0001)                 8.700839750354744E+05,      /* J = 42 */
(PID.TID 0000.0001)                 8.820301984897978E+05,      /* J = 43 */
(PID.TID 0000.0001)      . . .
(PID.TID 0000.0001)                 1.110716570323187E+06,      /* J = 78 */
(PID.TID 0000.0001)                 1.111393756086404E+06,      /* J = 79 */
(PID.TID 0000.0001)                 1.111732400545204E+06,      /* J = 80 */
(PID.TID 0000.0001)                 1.111732400545204E+06,      /* J = 81 */
(PID.TID 0000.0001)                 1.111393756086404E+06,      /* J = 82 */
(PID.TID 0000.0001)                 1.110716570323187E+06,      /* J = 83 */
(PID.TID 0000.0001)      . . .
(PID.TID 0000.0001)                 8.820301984897978E+05,      /* J =118 */
(PID.TID 0000.0001)                 8.700839750354744E+05,      /* J =119 */
(PID.TID 0000.0001)                 8.578727155736628E+05,      /* J =120 */
(PID.TID 0000.0001)                 8.454001397722876E+05,      /* J =121 */
(PID.TID 0000.0001)                 8.326700468987628E+05,      /* J =122 */
(PID.TID 0000.0001)                 8.196863146626968E+05,      /* J =123 */
(PID.TID 0000.0001)      . . .
(PID.TID 0000.0001)                 2.406320941092900E+05,      /* J =158 */
(PID.TID 0000.0001)                 2.216522321591896E+05,      /* J =159 */
(PID.TID 0000.0001)                 2.026048527919801E+05       /* J =160 */
(PID.TID 0000.0001)     ;
(PID.TID 0000.0001) dyC =  /* dyC(:,1,:,1) ( units: m ) */
(PID.TID 0000.0001)                 1.111774733520388E+05       /* I =  1 */
(PID.TID 0000.0001)     ;
(PID.TID 0000.0001) dyC =  /* dyC(1,:,1,:) ( units: m ) */
(PID.TID 0000.0001)   160 @  1.111774733520388E+05              /* J =  1:160 */
(PID.TID 0000.0001)     ;
(PID.TID 0000.0001) dxV =  /* dxV(:,1,:,1) ( units: m ) */
(PID.TID 0000.0001)                 1.930576564519526E+05       /* I =  1 */
(PID.TID 0000.0001)     ;
(PID.TID 0000.0001) dxV =  /* dxV(1,:,1,:) ( units: m ) */
(PID.TID 0000.0001)                 1.930576564519526E+05,      /* J =  1 */
(PID.TID 0000.0001)                 2.121366199880512E+05,      /* J =  2 */
(PID.TID 0000.0001)                 2.311509646546878E+05,      /* J =  3 */
(PID.TID 0000.0001)      . . .
(PID.TID 0000.0001)                 8.131005667268025E+05,      /* J = 38 */
(PID.TID 0000.0001)                 8.262096403121852E+05,      /* J = 39 */
(PID.TID 0000.0001)                 8.390670424374563E+05,      /* J = 40 */
(PID.TID 0000.0001)                 8.516688566133757E+05,      /* J = 41 */
(PID.TID 0000.0001)                 8.640112442052695E+05,      /* J = 42 */
(PID.TID 0000.0001)                 8.760904456023134E+05,      /* J = 43 */
(PID.TID 0000.0001)      . . .
(PID.TID 0000.0001)                 1.110251084887355E+06,      /* J = 78 */
(PID.TID 0000.0001)                 1.111097470391875E+06,      /* J = 79 */
(PID.TID 0000.0001)                 1.111605404843471E+06,      /* J = 80 */
(PID.TID 0000.0001)                 1.111774733520388E+06,      /* J = 81 */
(PID.TID 0000.0001)                 1.111605404843471E+06,      /* J = 82 */
(PID.TID 0000.0001)                 1.111097470391875E+06,      /* J = 83 */
(PID.TID 0000.0001)      . . .
(PID.TID 0000.0001)                 8.879027813627481E+05,      /* J =118 */
(PID.TID 0000.0001)                 8.760904456023134E+05,      /* J =119 */
(PID.TID 0000.0001)                 8.640112442052695E+05,      /* J =120 */
(PID.TID 0000.0001)                 8.516688566133757E+05,      /* J =121 */
(PID.TID 0000.0001)                 8.390670424374563E+05,      /* J =122 */
(PID.TID 0000.0001)                 8.262096403121852E+05,      /* J =123 */
(PID.TID 0000.0001)      . . .
(PID.TID 0000.0001)                 2.500948984982807E+05,      /* J =158 */
(PID.TID 0000.0001)                 2.311509646546878E+05,      /* J =159 */
(PID.TID 0000.0001)                 2.121366199880512E+05       /* J =160 */
(PID.TID 0000.0001)     ;
(PID.TID 0000.0001) dyU =  /* dyU(:,1,:,1) ( units: m ) */
(PID.TID 0000.0001)                 1.111774733520388E+05       /* I =  1 */
(PID.TID 0000.0001)     ;
(PID.TID 0000.0001) dyU =  /* dyU(1,:,1,:) ( units: m ) */
(PID.TID 0000.0001)   160 @  1.111774733520388E+05              /* J =  1:160 */
(PID.TID 0000.0001)     ;
(PID.TID 0000.0001) rA  =  /* rA (:,1,:,1) ( units: m^2 ) */
(PID.TID 0000.0001)                 2.252480972600775E+10       /* I =  1 */
(PID.TID 0000.0001)     ;
(PID.TID 0000.0001) rA  =  /* rA (1,:,1,:) ( units: m^2 ) */
(PID.TID 0000.0001)                 2.252480972600775E+10,      /* J =  1 */
(PID.TID 0000.0001)                 2.464242236022338E+10,      /* J =  2 */
(PID.TID 0000.0001)                 2.675252867386942E+10,      /* J =  3 */
(PID.TID 0000.0001)      . . .
(PID.TID 0000.0001)                 9.112949674382579E+10,      /* J = 38 */
(PID.TID 0000.0001)                 9.257297696713127E+10,      /* J = 39 */
(PID.TID 0000.0001)                 9.398825856487766E+10,      /* J = 40 */
(PID.TID 0000.0001)                 9.537491042857968E+10,      /* J = 41 */
(PID.TID 0000.0001)                 9.673251017064780E+10,      /* J = 42 */
(PID.TID 0000.0001)                 9.806064425305017E+10,      /* J = 43 */
(PID.TID 0000.0001)      . . .
(PID.TID 0000.0001)                 1.234850945635619E+11,      /* J = 78 */
(PID.TID 0000.0001)                 1.235603814101275E+11,      /* J = 79 */
(PID.TID 0000.0001)                 1.235980305675594E+11,      /* J = 80 */
(PID.TID 0000.0001)                 1.235980305675594E+11,      /* J = 81 */
(PID.TID 0000.0001)                 1.235603814101275E+11,      /* J = 82 */
(PID.TID 0000.0001)                 1.234850945635619E+11,      /* J = 83 */
(PID.TID 0000.0001)      . . .
(PID.TID 0000.0001)                 9.806064425305017E+10,      /* J =118 */
(PID.TID 0000.0001)                 9.673251017064780E+10,      /* J =119 */
(PID.TID 0000.0001)                 9.537491042857968E+10,      /* J =120 */
(PID.TID 0000.0001)                 9.398825856487766E+10,      /* J =121 */
(PID.TID 0000.0001)                 9.257297696713127E+10,      /* J =122 */
(PID.TID 0000.0001)                 9.112949674382579E+10,      /* J =123 */
(PID.TID 0000.0001)      . . .
(PID.TID 0000.0001)                 2.675252867386942E+10,      /* J =158 */
(PID.TID 0000.0001)                 2.464242236022338E+10,      /* J =159 */
(PID.TID 0000.0001)                 2.252480972600775E+10       /* J =160 */
(PID.TID 0000.0001)     ;
(PID.TID 0000.0001) rAw =  /* rAw(:,1,:,1) ( units: m^2 ) */
(PID.TID 0000.0001)                 2.252480972600775E+10       /* I =  1 */
(PID.TID 0000.0001)     ;
(PID.TID 0000.0001) rAw =  /* rAw(1,:,1,:) ( units: m^2 ) */
(PID.TID 0000.0001)                 2.252480972600775E+10,      /* J =  1 */
(PID.TID 0000.0001)                 2.464242236022338E+10,      /* J =  2 */
(PID.TID 0000.0001)                 2.675252867386942E+10,      /* J =  3 */
(PID.TID 0000.0001)      . . .
(PID.TID 0000.0001)                 9.112949674382579E+10,      /* J = 38 */
(PID.TID 0000.0001)                 9.257297696713127E+10,      /* J = 39 */
(PID.TID 0000.0001)                 9.398825856487766E+10,      /* J = 40 */
(PID.TID 0000.0001)                 9.537491042857968E+10,      /* J = 41 */
(PID.TID 0000.0001)                 9.673251017064780E+10,      /* J = 42 */
(PID.TID 0000.0001)                 9.806064425305017E+10,      /* J = 43 */
(PID.TID 0000.0001)      . . .
(PID.TID 0000.0001)                 1.234850945635619E+11,      /* J = 78 */
(PID.TID 0000.0001)                 1.235603814101275E+11,      /* J = 79 */
(PID.TID 0000.0001)                 1.235980305675594E+11,      /* J = 80 */
(PID.TID 0000.0001)                 1.235980305675594E+11,      /* J = 81 */
(PID.TID 0000.0001)                 1.235603814101275E+11,      /* J = 82 */
(PID.TID 0000.0001)                 1.234850945635619E+11,      /* J = 83 */
(PID.TID 0000.0001)      . . .
(PID.TID 0000.0001)                 9.806064425305017E+10,      /* J =118 */
(PID.TID 0000.0001)                 9.673251017064780E+10,      /* J =119 */
(PID.TID 0000.0001)                 9.537491042857968E+10,      /* J =120 */
(PID.TID 0000.0001)                 9.398825856487766E+10,      /* J =121 */
(PID.TID 0000.0001)                 9.257297696713127E+10,      /* J =122 */
(PID.TID 0000.0001)                 9.112949674382579E+10,      /* J =123 */
(PID.TID 0000.0001)      . . .
(PID.TID 0000.0001)                 2.675252867386942E+10,      /* J =158 */
(PID.TID 0000.0001)                 2.464242236022338E+10,      /* J =159 */
(PID.TID 0000.0001)                 2.252480972600775E+10       /* J =160 */
(PID.TID 0000.0001)     ;
(PID.TID 0000.0001) rAs =  /* rAs(:,1,:,1) ( units: m^2 ) */
(PID.TID 0000.0001)                 2.146339003140313E+10       /* I =  1 */
(PID.TID 0000.0001)     ;
(PID.TID 0000.0001) rAs =  /* rAs(1,:,1,:) ( units: m^2 ) */
(PID.TID 0000.0001)                 2.146339003140313E+10,      /* J =  1 */
(PID.TID 0000.0001)                 2.358451406914463E+10,      /* J =  2 */
(PID.TID 0000.0001)                 2.569845403543146E+10,      /* J =  3 */
(PID.TID 0000.0001)      . . .
(PID.TID 0000.0001)                 9.039731922134654E+10,      /* J = 38 */
(PID.TID 0000.0001)                 9.185473440230582E+10,      /* J = 39 */
(PID.TID 0000.0001)                 9.328416974134933E+10,      /* J = 40 */
(PID.TID 0000.0001)                 9.468518981862512E+10,      /* J = 41 */
(PID.TID 0000.0001)                 9.605736786984653E+10,      /* J = 42 */
(PID.TID 0000.0001)                 9.740028591628539E+10,      /* J = 43 */
(PID.TID 0000.0001)      . . .
(PID.TID 0000.0001)                 1.234333437257716E+11,      /* J = 78 */
(PID.TID 0000.0001)                 1.235274415333090E+11,      /* J = 79 */
(PID.TID 0000.0001)                 1.235839116855182E+11,      /* J = 80 */
(PID.TID 0000.0001)                 1.236027369810437E+11,      /* J = 81 */
(PID.TID 0000.0001)                 1.235839116855182E+11,      /* J = 82 */
(PID.TID 0000.0001)                 1.235274415333090E+11,      /* J = 83 */
(PID.TID 0000.0001)      . . .
(PID.TID 0000.0001)                 9.871353489209756E+10,      /* J =118 */
(PID.TID 0000.0001)                 9.740028591628539E+10,      /* J =119 */
(PID.TID 0000.0001)                 9.605736786984653E+10,      /* J =120 */
(PID.TID 0000.0001)                 9.468518981862512E+10,      /* J =121 */
(PID.TID 0000.0001)                 9.328416974134933E+10,      /* J =122 */
(PID.TID 0000.0001)                 9.185473440230582E+10,      /* J =123 */
(PID.TID 0000.0001)      . . .
(PID.TID 0000.0001)                 2.780456600367350E+10,      /* J =158 */
(PID.TID 0000.0001)                 2.569845403543146E+10,      /* J =159 */
(PID.TID 0000.0001)                 2.358451406914463E+10       /* J =160 */
(PID.TID 0000.0001)     ;
(PID.TID 0000.0001) globalArea = /* Integrated horizontal Area (m^2) */
(PID.TID 0000.0001)                 1.390377734574423E+13
(PID.TID 0000.0001)     ;
(PID.TID 0000.0001) // =======================================================
(PID.TID 0000.0001) // End of Model config. summary
(PID.TID 0000.0001) // =======================================================
(PID.TID 0000.0001) 
(PID.TID 0000.0001) == Packages configuration : Check & print summary ==
(PID.TID 0000.0001) 
(PID.TID 0000.0001) GAD_CHECK: #define ALLOW_GENERIC_ADVDIFF
(PID.TID 0000.0001) // =======================================================
(PID.TID 0000.0001) // Check Model config. (CONFIG_CHECK):
(PID.TID 0000.0001) // CONFIG_CHECK : Normal End
(PID.TID 0000.0001) // =======================================================
(PID.TID 0000.0001) 
(PID.TID 0000.0001)  MDS_READ_FIELD: opening global file: init_temp.bin
(PID.TID 0000.0001) Start initial hydrostatic pressure computation
(PID.TID 0000.0001) Pressure is predetermined for buoyancyRelation OCEANIC
(PID.TID 0000.0001) 
(PID.TID 0000.0001) DIAGSTATS_INI_IO: open file: dynStDiag.0000000000.txt , unit=     9
(PID.TID 0000.0001)  write diagnostics summary to file ioUnit:      6
Iter.Nb:         0 ; Time(s):  0.0000000000000E+00
------------------------------------------------------------------------
2D/3D diagnostics: Number of lists:     3
------------------------------------------------------------------------
listId=    1 ; file name: Rho
 nFlds, nActive,       freq     &     phase        , nLev               
    1  |    1  |     86400.000000         0.000000 | 120
 levels:   1   2   3   4   5   6   7   8   9  10  11  12  13  14  15  16  17  18  19  20  21  22  23  24  25
 levels:  26  27  28  29  30  31  32  33  34  35  36  37  38  39  40  41  42  43  44  45  46  47  48  49  50
 levels:  51  52  53  54  55  56  57  58  59  60  61  62  63  64  65  66  67  68  69  70  71  72  73  74  75
 levels:  76  77  78  79  80  81  82  83  84  85  86  87  88  89  90  91  92  93  94  95  96  97  98  99 100
 levels: 101 102 103 104 105 106 107 108 109 110 111 112 113 114 115 116 117 118 119 120
 diag# | name   |   ipt  |  iMate | kLev|   count |   mate.C|           
    64 |RHOAnoma|      1 |      0 | 120 |       0 |
------------------------------------------------------------------------
listId=    2 ; file name: P0
 nFlds, nActive,       freq     &     phase        , nLev               
    1  |    1  |     86400.000000         0.000000 | 120
 levels:   1   2   3   4   5   6   7   8   9  10  11  12  13  14  15  16  17  18  19  20  21  22  23  24  25
 levels:  26  27  28  29  30  31  32  33  34  35  36  37  38  39  40  41  42  43  44  45  46  47  48  49  50
 levels:  51  52  53  54  55  56  57  58  59  60  61  62  63  64  65  66  67  68  69  70  71  72  73  74  75
 levels:  76  77  78  79  80  81  82  83  84  85  86  87  88  89  90  91  92  93  94  95  96  97  98  99 100
 levels: 101 102 103 104 105 106 107 108 109 110 111 112 113 114 115 116 117 118 119 120
 diag# | name   |   ipt  |  iMate | kLev|   count |   mate.C|           
    71 |PHIHYD  |    121 |      0 | 120 |       0 |
------------------------------------------------------------------------
listId=    3 ; file name: N2
 nFlds, nActive,       freq     &     phase        , nLev               
    1  |    1  |     86400.000000         0.000000 | 120
 levels:   1   2   3   4   5   6   7   8   9  10  11  12  13  14  15  16  17  18  19  20  21  22  23  24  25
 levels:  26  27  28  29  30  31  32  33  34  35  36  37  38  39  40  41  42  43  44  45  46  47  48  49  50
 levels:  51  52  53  54  55  56  57  58  59  60  61  62  63  64  65  66  67  68  69  70  71  72  73  74  75
 levels:  76  77  78  79  80  81  82  83  84  85  86  87  88  89  90  91  92  93  94  95  96  97  98  99 100
 levels: 101 102 103 104 105 106 107 108 109 110 111 112 113 114 115 116 117 118 119 120
 diag# | name   |   ipt  |  iMate | kLev|   count |   mate.C|           
    78 |DRHODR  |    241 |      0 | 120 |       0 |
------------------------------------------------------------------------
Global & Regional Statistics diagnostics: Number of lists:     1
------------------------------------------------------------------------
listId=   1 ; file name: dynStDiag
 nFlds, nActive,       freq     &     phase        |                    
    6  |    6  |      1800.000000         0.000000 |
 Regions:   0
 diag# | name   |   ipt  |  iMate |    Volume   |   mate-Vol. |         
    23 |ETAN    |      1 |      0 | 0.00000E+00 |
    30 |UVEL    |      2 |      0 | 0.00000E+00 |
    31 |VVEL    |    122 |      0 | 0.00000E+00 |
    32 |WVEL    |    242 |      0 | 0.00000E+00 |
    26 |THETA   |    362 |      0 | 0.00000E+00 |
   181 |Wm_Metr |    482 |      0 | 0.00000E+00 |
------------------------------------------------------------------------
(PID.TID 0000.0001) // =======================================================
(PID.TID 0000.0001) // Model current state
(PID.TID 0000.0001) // =======================================================
(PID.TID 0000.0001) 
(PID.TID 0000.0001) // =======================================================
(PID.TID 0000.0001) // Begin MONITOR dynamic field statistics
(PID.TID 0000.0001) // =======================================================
(PID.TID 0000.0001) %MON time_tsnumber                =                     0
(PID.TID 0000.0001) %MON time_secondsf                =   0.0000000000000E+00
(PID.TID 0000.0001) %MON dynstat_eta_max              =   0.0000000000000E+00
(PID.TID 0000.0001) %MON dynstat_eta_min              =   0.0000000000000E+00
(PID.TID 0000.0001) %MON dynstat_eta_mean             =   0.0000000000000E+00
(PID.TID 0000.0001) %MON dynstat_eta_sd               =   0.0000000000000E+00
(PID.TID 0000.0001) %MON dynstat_eta_del2             =   0.0000000000000E+00
(PID.TID 0000.0001) %MON dynstat_uvel_max             =   0.0000000000000E+00
(PID.TID 0000.0001) %MON dynstat_uvel_min             =   0.0000000000000E+00
(PID.TID 0000.0001) %MON dynstat_uvel_mean            =   0.0000000000000E+00
(PID.TID 0000.0001) %MON dynstat_uvel_sd              =   0.0000000000000E+00
(PID.TID 0000.0001) %MON dynstat_uvel_del2            =   0.0000000000000E+00
(PID.TID 0000.0001) %MON dynstat_vvel_max             =   0.0000000000000E+00
(PID.TID 0000.0001) %MON dynstat_vvel_min             =   0.0000000000000E+00
(PID.TID 0000.0001) %MON dynstat_vvel_mean            =   0.0000000000000E+00
(PID.TID 0000.0001) %MON dynstat_vvel_sd              =   0.0000000000000E+00
(PID.TID 0000.0001) %MON dynstat_vvel_del2            =   0.0000000000000E+00
(PID.TID 0000.0001) %MON dynstat_wvel_max             =  -0.0000000000000E+00
(PID.TID 0000.0001) %MON dynstat_wvel_min             =  -0.0000000000000E+00
(PID.TID 0000.0001) %MON dynstat_wvel_mean            =   0.0000000000000E+00
(PID.TID 0000.0001) %MON dynstat_wvel_sd              =   0.0000000000000E+00
(PID.TID 0000.0001) %MON dynstat_wvel_del2            =   0.0000000000000E+00
(PID.TID 0000.0001) %MON dynstat_theta_max            =   1.1578986791979E+04
(PID.TID 0000.0001) %MON dynstat_theta_min            =   1.1578985792063E+04
(PID.TID 0000.0001) %MON dynstat_theta_mean           =   1.1578986295440E+04
(PID.TID 0000.0001) %MON dynstat_theta_sd             =   2.8874134881063E-04
(PID.TID 0000.0001) %MON dynstat_theta_del2           =   5.0892179599303E-06
(PID.TID 0000.0001) %MON dynstat_salt_max             =   0.0000000000000E+00
(PID.TID 0000.0001) %MON dynstat_salt_min             =   0.0000000000000E+00
(PID.TID 0000.0001) %MON dynstat_salt_mean            =   0.0000000000000E+00
(PID.TID 0000.0001) %MON dynstat_salt_sd              =   0.0000000000000E+00
(PID.TID 0000.0001) %MON dynstat_salt_del2            =   0.0000000000000E+00
(PID.TID 0000.0001) %MON trAdv_CFL_u_max              =   0.0000000000000E+00
(PID.TID 0000.0001) %MON trAdv_CFL_v_max              =   0.0000000000000E+00
(PID.TID 0000.0001) %MON trAdv_CFL_w_max              =   0.0000000000000E+00
(PID.TID 0000.0001) %MON advcfl_uvel_max              =   0.0000000000000E+00
(PID.TID 0000.0001) %MON advcfl_vvel_max              =   0.0000000000000E+00
(PID.TID 0000.0001) %MON advcfl_wvel_max              =   0.0000000000000E+00
(PID.TID 0000.0001) %MON advcfl_W_hf_max              =   0.0000000000000E+00
(PID.TID 0000.0001) %MON pe_b_mean                    =   0.0000000000000E+00
(PID.TID 0000.0001) %MON ke_max                       =   0.0000000000000E+00
(PID.TID 0000.0001) %MON ke_mean                      =   0.0000000000000E+00
(PID.TID 0000.0001) %MON ke_vol                       =   3.4820518350516E+19
(PID.TID 0000.0001) %MON vort_r_min                   =   0.0000000000000E+00
(PID.TID 0000.0001) %MON vort_r_max                   =   0.0000000000000E+00
(PID.TID 0000.0001) %MON vort_a_mean                  =   2.3934612167700E-20
(PID.TID 0000.0001) %MON vort_a_sd                    =   8.2567010691386E-05
(PID.TID 0000.0001) %MON vort_p_mean                  =   2.3995565412335E-20
(PID.TID 0000.0001) %MON vort_p_sd                    =   8.3918501551279E-05
(PID.TID 0000.0001) %MON surfExpan_theta_mean         =   0.0000000000000E+00
(PID.TID 0000.0001) %MON surfExpan_salt_mean          =   0.0000000000000E+00
(PID.TID 0000.0001) // =======================================================
(PID.TID 0000.0001) // End MONITOR dynamic field statistics
(PID.TID 0000.0001) // =======================================================
(PID.TID 0000.0001) SOLVE_FOR_PRESSURE: putPmEinXvector =    F
(PID.TID 0000.0001) SOLVE_FOR_PRESSURE: zeroPsNH=    F , zeroMeanPnh=    F
(PID.TID 0000.0001) SOLVE_FOR_PRESSURE: oldFreeSurfTerm =    T
 cg2d: Sum(rhs),rhsMax =   1.69309011255336E-15  6.23431179295025E-01
(PID.TID 0000.0001)      cg2d_init_res =   3.46474024101614E+00
(PID.TID 0000.0001)      cg2d_iters(min,last) =      -1     109
(PID.TID 0000.0001)      cg2d_last_res =   5.02778995790464E-14
 cg3d: Sum(rhs),rhsMax =  -2.02025028650521E-13  3.77126369864456E-02
(PID.TID 0000.0001)      cg3d_init_res =   2.04417951952824E+01
(PID.TID 0000.0001)      cg3d_iters (last) =                 40
(PID.TID 0000.0001)      cg3d_last_res =   5.98248527627606E-03
(PID.TID 0000.0001) // =======================================================
(PID.TID 0000.0001) // Begin MONITOR dynamic field statistics
(PID.TID 0000.0001) // =======================================================
(PID.TID 0000.0001) %MON time_tsnumber                =                     1
(PID.TID 0000.0001) %MON time_secondsf                =   3.0000000000000E+02
(PID.TID 0000.0001) %MON dynstat_eta_max              =   2.4282644539665E-02
(PID.TID 0000.0001) %MON dynstat_eta_min              =  -1.8640707590678E-02
(PID.TID 0000.0001) %MON dynstat_eta_mean             =  -2.0245172804508E-16
(PID.TID 0000.0001) %MON dynstat_eta_sd               =   8.8787568536613E-03
(PID.TID 0000.0001) %MON dynstat_eta_del2             =   1.6986282899866E-03
(PID.TID 0000.0001) %MON dynstat_uvel_max             =   0.0000000000000E+00
(PID.TID 0000.0001) %MON dynstat_uvel_min             =   0.0000000000000E+00
(PID.TID 0000.0001) %MON dynstat_uvel_mean            =   0.0000000000000E+00
(PID.TID 0000.0001) %MON dynstat_uvel_sd              =   0.0000000000000E+00
(PID.TID 0000.0001) %MON dynstat_uvel_del2            =   0.0000000000000E+00
(PID.TID 0000.0001) %MON dynstat_vvel_max             =   1.1170656648111E-04
(PID.TID 0000.0001) %MON dynstat_vvel_min             =  -9.0413375750595E-05
(PID.TID 0000.0001) %MON dynstat_vvel_mean            =   2.2502117511227E-08
(PID.TID 0000.0001) %MON dynstat_vvel_sd              =   2.4124003041034E-05
(PID.TID 0000.0001) %MON dynstat_vvel_del2            =   4.6083256976171E-07
(PID.TID 0000.0001) %MON dynstat_wvel_max             =   1.2444993877763E-04
(PID.TID 0000.0001) %MON dynstat_wvel_min             =  -1.3712195763397E-04
(PID.TID 0000.0001) %MON dynstat_wvel_mean            =   1.5467550717384E-22
(PID.TID 0000.0001) %MON dynstat_wvel_sd              =   3.5080597217185E-05
(PID.TID 0000.0001) %MON dynstat_wvel_del2            =   7.1260564513742E-07
(PID.TID 0000.0001) %MON dynstat_theta_max            =   1.1578986784969E+04
(PID.TID 0000.0001) %MON dynstat_theta_min            =   1.1578985802768E+04
(PID.TID 0000.0001) %MON dynstat_theta_mean           =   1.1578986295440E+04
(PID.TID 0000.0001) %MON dynstat_theta_sd             =   2.6284458797129E-04
(PID.TID 0000.0001) %MON dynstat_theta_del2           =   4.6074237337358E-06
(PID.TID 0000.0001) %MON dynstat_salt_max             =   0.0000000000000E+00
(PID.TID 0000.0001) %MON dynstat_salt_min             =   0.0000000000000E+00
(PID.TID 0000.0001) %MON dynstat_salt_mean            =   0.0000000000000E+00
(PID.TID 0000.0001) %MON dynstat_salt_sd              =   0.0000000000000E+00
(PID.TID 0000.0001) %MON dynstat_salt_del2            =   0.0000000000000E+00
(PID.TID 0000.0001) %MON trAdv_CFL_u_max              =   0.0000000000000E+00
(PID.TID 0000.0001) %MON trAdv_CFL_v_max              =   4.6664755351131E-07
(PID.TID 0000.0001) %MON trAdv_CFL_w_max              =   1.6440099260000E-06
(PID.TID 0000.0001) %MON advcfl_uvel_max              =   0.0000000000000E+00
(PID.TID 0000.0001) %MON advcfl_vvel_max              =   3.0142769874089E-07
(PID.TID 0000.0001) %MON advcfl_wvel_max              =   1.6454634916076E-06
(PID.TID 0000.0001) %MON advcfl_W_hf_max              =   1.6454634916076E-06
(PID.TID 0000.0001) %MON pe_b_mean                    =   1.5439772969259E-10
(PID.TID 0000.0001) %MON ke_max                       =   9.4151664063862E-09
(PID.TID 0000.0001) %MON ke_mean                      =   9.0401733369157E-10
(PID.TID 0000.0001) %MON ke_vol                       =   3.4820518350516E+19
(PID.TID 0000.0001) %MON vort_r_min                   =   0.0000000000000E+00
(PID.TID 0000.0001) %MON vort_r_max                   =   0.0000000000000E+00
(PID.TID 0000.0001) %MON vort_a_mean                  =   2.3934612167700E-20
(PID.TID 0000.0001) %MON vort_a_sd                    =   8.2567010691386E-05
(PID.TID 0000.0001) %MON vort_p_mean                  =   2.3995565412335E-20
(PID.TID 0000.0001) %MON vort_p_sd                    =   8.3918501551279E-05
(PID.TID 0000.0001) %MON surfExpan_theta_mean         =   8.3042726944580E-10
(PID.TID 0000.0001) %MON surfExpan_salt_mean          =   0.0000000000000E+00
(PID.TID 0000.0001) // =======================================================
(PID.TID 0000.0001) // End MONITOR dynamic field statistics
(PID.TID 0000.0001) // =======================================================
 cg2d: Sum(rhs),rhsMax =   1.13792397488655E-05  6.16046624638154E-01
(PID.TID 0000.0001)      cg2d_init_res =   4.08326529769116E-02
(PID.TID 0000.0001)      cg2d_iters(min,last) =      -1     103
(PID.TID 0000.0001)      cg2d_last_res =   5.64524233767393E-14
 cg3d: Sum(rhs),rhsMax =  -1.60528708381680E-13  3.56377025601261E-02
(PID.TID 0000.0001)      cg3d_init_res =   8.78618094898411E-01
(PID.TID 0000.0001)      cg3d_iters (last) =                 40
(PID.TID 0000.0001)      cg3d_last_res =   1.56665220282959E-03
(PID.TID 0000.0001) // =======================================================
(PID.TID 0000.0001) // Begin MONITOR dynamic field statistics
(PID.TID 0000.0001) // =======================================================
(PID.TID 0000.0001) %MON time_tsnumber                =                     2
(PID.TID 0000.0001) %MON time_secondsf                =   6.0000000000000E+02
(PID.TID 0000.0001) %MON dynstat_eta_max              =   2.4611948864167E-02
(PID.TID 0000.0001) %MON dynstat_eta_min              =  -1.9058572825860E-02
(PID.TID 0000.0001) %MON dynstat_eta_mean             =  -1.3613123665928E-06
(PID.TID 0000.0001) %MON dynstat_eta_sd               =   8.8948685537611E-03
(PID.TID 0000.0001) %MON dynstat_eta_del2             =   1.6803857438547E-03
(PID.TID 0000.0001) %MON dynstat_uvel_max             =   8.3220700173602E-06
(PID.TID 0000.0001) %MON dynstat_uvel_min             =  -8.5569594474171E-06
(PID.TID 0000.0001) %MON dynstat_uvel_mean            =  -1.0718159965324E-08
(PID.TID 0000.0001) %MON dynstat_uvel_sd              =   2.0211558907159E-06
(PID.TID 0000.0001) %MON dynstat_uvel_del2            =   3.6626551669801E-08
(PID.TID 0000.0001) %MON dynstat_vvel_max             =   2.1872484935278E-04
(PID.TID 0000.0001) %MON dynstat_vvel_min             =  -1.6462185524484E-04
(PID.TID 0000.0001) %MON dynstat_vvel_mean            =  -3.9371414825110E-08
(PID.TID 0000.0001) %MON dynstat_vvel_sd              =   4.0915081705164E-05
(PID.TID 0000.0001) %MON dynstat_vvel_del2            =   7.2518574873009E-07
(PID.TID 0000.0001) %MON dynstat_wvel_max             =   2.2563532210822E-04
(PID.TID 0000.0001) %MON dynstat_wvel_min             =  -2.5585315225152E-04
(PID.TID 0000.0001) %MON dynstat_wvel_mean            =  -3.1778786019352E-21
(PID.TID 0000.0001) %MON dynstat_wvel_sd              =   6.2192036648518E-05
(PID.TID 0000.0001) %MON dynstat_wvel_del2            =   1.2058119344524E-06
(PID.TID 0000.0001) %MON dynstat_theta_max            =   1.1578986782030E+04
(PID.TID 0000.0001) %MON dynstat_theta_min            =   1.1578985810102E+04
(PID.TID 0000.0001) %MON dynstat_theta_mean           =   1.1578986295439E+04
(PID.TID 0000.0001) %MON dynstat_theta_sd             =   2.4113783153344E-04
(PID.TID 0000.0001) %MON dynstat_theta_del2           =   4.2035937337768E-06
(PID.TID 0000.0001) %MON dynstat_salt_max             =   0.0000000000000E+00
(PID.TID 0000.0001) %MON dynstat_salt_min             =   0.0000000000000E+00
(PID.TID 0000.0001) %MON dynstat_salt_mean            =   0.0000000000000E+00
(PID.TID 0000.0001) %MON dynstat_salt_sd              =   0.0000000000000E+00
(PID.TID 0000.0001) %MON dynstat_salt_del2            =   0.0000000000000E+00
(PID.TID 0000.0001) %MON trAdv_CFL_u_max              =   5.3175574226679E-09
(PID.TID 0000.0001) %MON trAdv_CFL_v_max              =   7.5497645894477E-07
(PID.TID 0000.0001) %MON trAdv_CFL_w_max              =   3.0675256476625E-06
(PID.TID 0000.0001) %MON advcfl_uvel_max              =   3.6841615661065E-09
(PID.TID 0000.0001) %MON advcfl_vvel_max              =   5.9020458756119E-07
(PID.TID 0000.0001) %MON advcfl_wvel_max              =   3.0702378270183E-06
(PID.TID 0000.0001) %MON advcfl_W_hf_max              =   3.0702378270183E-06
(PID.TID 0000.0001) %MON pe_b_mean                    =   1.5495859268782E-10
(PID.TID 0000.0001) %MON ke_max                       =   3.2894451007642E-08
(PID.TID 0000.0001) %MON ke_mean                      =   2.7662184174177E-09
(PID.TID 0000.0001) %MON ke_vol                       =   3.4820518350516E+19
(PID.TID 0000.0001) %MON vort_r_min                   =  -1.2795779554036E-10
(PID.TID 0000.0001) %MON vort_r_max                   =   1.0105109483269E-10
(PID.TID 0000.0001) %MON vort_a_mean                  =   2.3934612167700E-20
(PID.TID 0000.0001) %MON vort_a_sd                    =   8.2567010687061E-05
(PID.TID 0000.0001) %MON vort_p_mean                  =   2.3995565412335E-20
(PID.TID 0000.0001) %MON vort_p_sd                    =   8.3918501564508E-05
(PID.TID 0000.0001) %MON surfExpan_theta_mean         =   1.4064286602086E-10
(PID.TID 0000.0001) %MON surfExpan_salt_mean          =   0.0000000000000E+00
(PID.TID 0000.0001) // =======================================================
(PID.TID 0000.0001) // End MONITOR dynamic field statistics
(PID.TID 0000.0001) // =======================================================
 cg2d: Sum(rhs),rhsMax =   1.57127238260835E-05  6.08501212348654E-01
(PID.TID 0000.0001)      cg2d_init_res =   4.12042376220215E-02
(PID.TID 0000.0001)      cg2d_iters(min,last) =      -1     101
(PID.TID 0000.0001)      cg2d_last_res =   7.39023651597509E-14
 cg3d: Sum(rhs),rhsMax =   1.84518199330963E-13  3.56547405250427E-02
(PID.TID 0000.0001)      cg3d_init_res =   5.67641025248218E-01
(PID.TID 0000.0001)      cg3d_iters (last) =                 40
(PID.TID 0000.0001)      cg3d_last_res =   1.43080555008322E-03
(PID.TID 0000.0001) // =======================================================
(PID.TID 0000.0001) // Begin MONITOR dynamic field statistics
(PID.TID 0000.0001) // =======================================================
(PID.TID 0000.0001) %MON time_tsnumber                =                     3
(PID.TID 0000.0001) %MON time_secondsf                =   9.0000000000000E+02
(PID.TID 0000.0001) %MON dynstat_eta_max              =   2.4893891761313E-02
(PID.TID 0000.0001) %MON dynstat_eta_min              =  -1.9390159947056E-02
(PID.TID 0000.0001) %MON dynstat_eta_mean             =  -1.8567091806092E-06
(PID.TID 0000.0001) %MON dynstat_eta_sd               =   8.8942045828391E-03
(PID.TID 0000.0001) %MON dynstat_eta_del2             =   1.6619659865565E-03
(PID.TID 0000.0001) %MON dynstat_uvel_max             =   1.9926102645906E-05
(PID.TID 0000.0001) %MON dynstat_uvel_min             =  -2.0326351780843E-05
(PID.TID 0000.0001) %MON dynstat_uvel_mean            =  -2.5889418120395E-08
(PID.TID 0000.0001) %MON dynstat_uvel_sd              =   4.5361644712123E-06
(PID.TID 0000.0001) %MON dynstat_uvel_del2            =   7.6595327644003E-08
(PID.TID 0000.0001) %MON dynstat_vvel_max             =   3.0549728033725E-04
(PID.TID 0000.0001) %MON dynstat_vvel_min             =  -2.3473300530843E-04
(PID.TID 0000.0001) %MON dynstat_vvel_mean            =  -1.3787643275759E-07
(PID.TID 0000.0001) %MON dynstat_vvel_sd              =   5.5452235839762E-05
(PID.TID 0000.0001) %MON dynstat_vvel_del2            =   9.4337771509843E-07
(PID.TID 0000.0001) %MON dynstat_wvel_max             =   3.1626483166990E-04
(PID.TID 0000.0001) %MON dynstat_wvel_min             =  -3.6560131850848E-04
(PID.TID 0000.0001) %MON dynstat_wvel_mean            =   8.4368458458457E-22
(PID.TID 0000.0001) %MON dynstat_wvel_sd              =   8.6600706967552E-05
(PID.TID 0000.0001) %MON dynstat_wvel_del2            =   1.6335891302713E-06
(PID.TID 0000.0001) %MON dynstat_theta_max            =   1.1578986778296E+04
(PID.TID 0000.0001) %MON dynstat_theta_min            =   1.1578985813898E+04
(PID.TID 0000.0001) %MON dynstat_theta_mean           =   1.1578986295439E+04
(PID.TID 0000.0001) %MON dynstat_theta_sd             =   2.2290142956362E-04
(PID.TID 0000.0001) %MON dynstat_theta_del2           =   3.8639273461931E-06
(PID.TID 0000.0001) %MON dynstat_salt_max             =   0.0000000000000E+00
(PID.TID 0000.0001) %MON dynstat_salt_min             =   0.0000000000000E+00
(PID.TID 0000.0001) %MON dynstat_salt_mean            =   0.0000000000000E+00
(PID.TID 0000.0001) %MON dynstat_salt_sd              =   0.0000000000000E+00
(PID.TID 0000.0001) %MON dynstat_salt_del2            =   0.0000000000000E+00
(PID.TID 0000.0001) %MON trAdv_CFL_u_max              =   1.0531229872664E-08
(PID.TID 0000.0001) %MON trAdv_CFL_v_max              =   9.8810475838634E-07
(PID.TID 0000.0001) %MON trAdv_CFL_w_max              =   4.3833402538714E-06
(PID.TID 0000.0001) %MON advcfl_uvel_max              =   8.7233593057614E-09
(PID.TID 0000.0001) %MON advcfl_vvel_max              =   8.2435030530844E-07
(PID.TID 0000.0001) %MON advcfl_wvel_max              =   4.3872158221018E-06
(PID.TID 0000.0001) %MON advcfl_W_hf_max              =   4.3872158221018E-06
(PID.TID 0000.0001) %MON pe_b_mean                    =   1.5493546243690E-10
(PID.TID 0000.0001) %MON ke_max                       =   6.7346571339077E-08
(PID.TID 0000.0001) %MON ke_mean                      =   5.2846650227177E-09
(PID.TID 0000.0001) %MON ke_vol                       =   3.4820518350516E+19
(PID.TID 0000.0001) %MON vort_r_min                   =  -2.9222470845013E-10
(PID.TID 0000.0001) %MON vort_r_max                   =   2.2244201149978E-10
(PID.TID 0000.0001) %MON vort_a_mean                  =   0.0000000000000E+00
(PID.TID 0000.0001) %MON vort_a_sd                    =   8.2567010682149E-05
(PID.TID 0000.0001) %MON vort_p_mean                  =   0.0000000000000E+00
(PID.TID 0000.0001) %MON vort_p_sd                    =   8.3918501589312E-05
(PID.TID 0000.0001) %MON surfExpan_theta_mean         =  -3.1829043493987E-11
(PID.TID 0000.0001) %MON surfExpan_salt_mean          =   0.0000000000000E+00
(PID.TID 0000.0001) // =======================================================
(PID.TID 0000.0001) // End MONITOR dynamic field statistics
(PID.TID 0000.0001) // =======================================================
 cg2d: Sum(rhs),rhsMax =   1.86215365492737E-05  6.01087268890614E-01
(PID.TID 0000.0001)      cg2d_init_res =   4.09994960934419E-02
(PID.TID 0000.0001)      cg2d_iters(min,last) =      -1     101
(PID.TID 0000.0001)      cg2d_last_res =   8.28439947816241E-14
 cg3d: Sum(rhs),rhsMax =   7.61148956363034E-14  3.53822711908734E-02
(PID.TID 0000.0001)      cg3d_init_res =   3.53131682753192E-01
(PID.TID 0000.0001)      cg3d_iters (last) =                 40
(PID.TID 0000.0001)      cg3d_last_res =   8.41056766452731E-04
(PID.TID 0000.0001) // =======================================================
(PID.TID 0000.0001) // Begin MONITOR dynamic field statistics
(PID.TID 0000.0001) // =======================================================
(PID.TID 0000.0001) %MON time_tsnumber                =                     4
(PID.TID 0000.0001) %MON time_secondsf                =   1.2000000000000E+03
(PID.TID 0000.0001) %MON dynstat_eta_max              =   2.4964010256921E-02
(PID.TID 0000.0001) %MON dynstat_eta_min              =  -1.9525870974805E-02
(PID.TID 0000.0001) %MON dynstat_eta_mean             =  -2.1736219104275E-06
(PID.TID 0000.0001) %MON dynstat_eta_sd               =   8.8668992714427E-03
(PID.TID 0000.0001) %MON dynstat_eta_del2             =   1.6438789633529E-03
(PID.TID 0000.0001) %MON dynstat_uvel_max             =   3.4730613316719E-05
(PID.TID 0000.0001) %MON dynstat_uvel_min             =  -3.5082510395077E-05
(PID.TID 0000.0001) %MON dynstat_uvel_mean            =  -4.1006968427335E-08
(PID.TID 0000.0001) %MON dynstat_uvel_sd              =   7.6516499137013E-06
(PID.TID 0000.0001) %MON dynstat_uvel_del2            =   1.2377254536104E-07
(PID.TID 0000.0001) %MON dynstat_vvel_max             =   3.7785158851517E-04
(PID.TID 0000.0001) %MON dynstat_vvel_min             =  -2.9465674295149E-04
(PID.TID 0000.0001) %MON dynstat_vvel_mean            =  -2.2537428856960E-07
(PID.TID 0000.0001) %MON dynstat_vvel_sd              =   6.7839790420335E-05
(PID.TID 0000.0001) %MON dynstat_vvel_del2            =   1.1101306005419E-06
(PID.TID 0000.0001) %MON dynstat_wvel_max             =   3.9611764837050E-04
(PID.TID 0000.0001) %MON dynstat_wvel_min             =  -4.6619680893822E-04
(PID.TID 0000.0001) %MON dynstat_wvel_mean            =   8.7180740407072E-22
(PID.TID 0000.0001) %MON dynstat_wvel_sd              =   1.0829529109158E-04
(PID.TID 0000.0001) %MON dynstat_wvel_del2            =   1.9902398769306E-06
(PID.TID 0000.0001) %MON dynstat_theta_max            =   1.1578986773892E+04
(PID.TID 0000.0001) %MON dynstat_theta_min            =   1.1578985818062E+04
(PID.TID 0000.0001) %MON dynstat_theta_mean           =   1.1578986295440E+04
(PID.TID 0000.0001) %MON dynstat_theta_sd             =   2.0753016468156E-04
(PID.TID 0000.0001) %MON dynstat_theta_del2           =   3.5769312688227E-06
(PID.TID 0000.0001) %MON dynstat_salt_max             =   0.0000000000000E+00
(PID.TID 0000.0001) %MON dynstat_salt_min             =   0.0000000000000E+00
(PID.TID 0000.0001) %MON dynstat_salt_mean            =   0.0000000000000E+00
(PID.TID 0000.0001) %MON dynstat_salt_sd              =   0.0000000000000E+00
(PID.TID 0000.0001) %MON dynstat_salt_del2            =   0.0000000000000E+00
(PID.TID 0000.0001) %MON trAdv_CFL_u_max              =   1.6420379361501E-08
(PID.TID 0000.0001) %MON trAdv_CFL_v_max              =   1.1948469144309E-06
(PID.TID 0000.0001) %MON trAdv_CFL_w_max              =   5.5894197733806E-06
(PID.TID 0000.0001) %MON advcfl_uvel_max              =   1.5140201658408E-08
(PID.TID 0000.0001) %MON advcfl_vvel_max              =   1.0195903282998E-06
(PID.TID 0000.0001) %MON advcfl_wvel_max              =   5.5943617072587E-06
(PID.TID 0000.0001) %MON advcfl_W_hf_max              =   5.5943617072587E-06
(PID.TID 0000.0001) %MON pe_b_mean                    =   1.5398561790293E-10
(PID.TID 0000.0001) %MON ke_max                       =   1.0983284679426E-07
(PID.TID 0000.0001) %MON ke_mean                      =   8.1742898134693E-09
(PID.TID 0000.0001) %MON ke_vol                       =   3.4820518350516E+19
(PID.TID 0000.0001) %MON vort_r_min                   =  -4.9168544795880E-10
(PID.TID 0000.0001) %MON vort_r_max                   =   3.6557162313682E-10
(PID.TID 0000.0001) %MON vort_a_mean                  =   7.1803836503101E-20
(PID.TID 0000.0001) %MON vort_a_sd                    =   8.2567010677941E-05
(PID.TID 0000.0001) %MON vort_p_mean                  =   7.1986696237004E-20
(PID.TID 0000.0001) %MON vort_p_sd                    =   8.3918501625827E-05
(PID.TID 0000.0001) %MON surfExpan_theta_mean         =  -2.3736160676641E-11
(PID.TID 0000.0001) %MON surfExpan_salt_mean          =   0.0000000000000E+00
(PID.TID 0000.0001) // =======================================================
(PID.TID 0000.0001) // End MONITOR dynamic field statistics
(PID.TID 0000.0001) // =======================================================
 cg2d: Sum(rhs),rhsMax =   2.36877217887899E-05  5.93802187761116E-01
(PID.TID 0000.0001)      cg2d_init_res =   4.08484269954966E-02
(PID.TID 0000.0001)      cg2d_iters(min,last) =      -1     101
(PID.TID 0000.0001)      cg2d_last_res =   6.37974314775139E-14
 cg3d: Sum(rhs),rhsMax =   8.53293130598232E-14  3.49819932082912E-02
(PID.TID 0000.0001)      cg3d_init_res =   3.72140213933634E-01
(PID.TID 0000.0001)      cg3d_iters (last) =                 40
(PID.TID 0000.0001)      cg3d_last_res =   7.68247216496395E-04
(PID.TID 0000.0001) // =======================================================
(PID.TID 0000.0001) // Begin MONITOR dynamic field statistics
(PID.TID 0000.0001) // =======================================================
(PID.TID 0000.0001) %MON time_tsnumber                =                     5
(PID.TID 0000.0001) %MON time_secondsf                =   1.5000000000000E+03
(PID.TID 0000.0001) %MON dynstat_eta_max              =   2.4812964517505E-02
(PID.TID 0000.0001) %MON dynstat_eta_min              =  -1.9479669070863E-02
(PID.TID 0000.0001) %MON dynstat_eta_mean             =  -2.7314675582452E-06
(PID.TID 0000.0001) %MON dynstat_eta_sd               =   8.8127986972613E-03
(PID.TID 0000.0001) %MON dynstat_eta_del2             =   1.6260969312272E-03
(PID.TID 0000.0001) %MON dynstat_uvel_max             =   5.2249417346770E-05
(PID.TID 0000.0001) %MON dynstat_uvel_min             =  -5.2324564468412E-05
(PID.TID 0000.0001) %MON dynstat_uvel_mean            =  -5.2800287886783E-08
(PID.TID 0000.0001) %MON dynstat_uvel_sd              =   1.1233743700805E-05
(PID.TID 0000.0001) %MON dynstat_uvel_del2            =   1.7469168187845E-07
(PID.TID 0000.0001) %MON dynstat_vvel_max             =   4.4114035060495E-04
(PID.TID 0000.0001) %MON dynstat_vvel_min             =  -3.4806908269894E-04
(PID.TID 0000.0001) %MON dynstat_vvel_mean            =  -2.8084468930924E-07
(PID.TID 0000.0001) %MON dynstat_vvel_sd              =   7.8702872434082E-05
(PID.TID 0000.0001) %MON dynstat_vvel_del2            =   1.2430658052667E-06
(PID.TID 0000.0001) %MON dynstat_wvel_max             =   4.7197186181274E-04
(PID.TID 0000.0001) %MON dynstat_wvel_min             =  -5.5848744776628E-04
(PID.TID 0000.0001) %MON dynstat_wvel_mean            =   3.4309839773106E-21
(PID.TID 0000.0001) %MON dynstat_wvel_sd              =   1.2776031656023E-04
(PID.TID 0000.0001) %MON dynstat_wvel_del2            =   2.2915032175881E-06
(PID.TID 0000.0001) %MON dynstat_theta_max            =   1.1578986768930E+04
(PID.TID 0000.0001) %MON dynstat_theta_min            =   1.1578985822551E+04
(PID.TID 0000.0001) %MON dynstat_theta_mean           =   1.1578986295440E+04
(PID.TID 0000.0001) %MON dynstat_theta_sd             =   1.9451780282734E-04
(PID.TID 0000.0001) %MON dynstat_theta_del2           =   3.3330844813864E-06
(PID.TID 0000.0001) %MON dynstat_salt_max             =   0.0000000000000E+00
(PID.TID 0000.0001) %MON dynstat_salt_min             =   0.0000000000000E+00
(PID.TID 0000.0001) %MON dynstat_salt_mean            =   0.0000000000000E+00
(PID.TID 0000.0001) %MON dynstat_salt_sd              =   0.0000000000000E+00
(PID.TID 0000.0001) %MON dynstat_salt_del2            =   0.0000000000000E+00
(PID.TID 0000.0001) %MON trAdv_CFL_u_max              =   2.3367297552859E-08
(PID.TID 0000.0001) %MON trAdv_CFL_v_max              =   1.3898941021329E-06
(PID.TID 0000.0001) %MON trAdv_CFL_w_max              =   6.6959291095091E-06
(PID.TID 0000.0001) %MON advcfl_uvel_max              =   2.3321147354504E-08
(PID.TID 0000.0001) %MON advcfl_vvel_max              =   1.1903679872489E-06
(PID.TID 0000.0001) %MON advcfl_wvel_max              =   6.7018493731954E-06
(PID.TID 0000.0001) %MON advcfl_W_hf_max              =   6.7018493731954E-06
(PID.TID 0000.0001) %MON pe_b_mean                    =   1.5211229752385E-10
(PID.TID 0000.0001) %MON ke_max                       =   1.5816530217361E-07
(PID.TID 0000.0001) %MON ke_mean                      =   1.1293819461253E-08
(PID.TID 0000.0001) %MON ke_vol                       =   3.4820518350516E+19
(PID.TID 0000.0001) %MON vort_r_min                   =  -7.1636909369016E-10
(PID.TID 0000.0001) %MON vort_r_max                   =   5.2944412926461E-10
(PID.TID 0000.0001) %MON vort_a_mean                  =   1.4659949952716E-19
(PID.TID 0000.0001) %MON vort_a_sd                    =   8.2567010675093E-05
(PID.TID 0000.0001) %MON vort_p_mean                  =   1.4697283815055E-19
(PID.TID 0000.0001) %MON vort_p_sd                    =   8.3918501673800E-05
(PID.TID 0000.0001) %MON surfExpan_theta_mean         =  -7.9305764275505E-12
(PID.TID 0000.0001) %MON surfExpan_salt_mean          =   0.0000000000000E+00
(PID.TID 0000.0001) // =======================================================
(PID.TID 0000.0001) // End MONITOR dynamic field statistics
(PID.TID 0000.0001) // =======================================================
 cg2d: Sum(rhs),rhsMax =   3.06231046907635E-05  5.86613914868263E-01
(PID.TID 0000.0001)      cg2d_init_res =   4.07753894855150E-02
(PID.TID 0000.0001)      cg2d_iters(min,last) =      -1     101
(PID.TID 0000.0001)      cg2d_last_res =   6.05747897353320E-14
 cg3d: Sum(rhs),rhsMax =   1.08914613439204E-13  3.46211948522937E-02
(PID.TID 0000.0001)      cg3d_init_res =   3.48813653787433E-01
(PID.TID 0000.0001)      cg3d_iters (last) =                 40
(PID.TID 0000.0001)      cg3d_last_res =   5.05949148548919E-04
(PID.TID 0000.0001) // =======================================================
(PID.TID 0000.0001) // Begin MONITOR dynamic field statistics
(PID.TID 0000.0001) // =======================================================
(PID.TID 0000.0001) %MON time_tsnumber                =                     6
(PID.TID 0000.0001) %MON time_secondsf                =   1.8000000000000E+03
(PID.TID 0000.0001) %MON dynstat_eta_max              =   2.4499518793294E-02
(PID.TID 0000.0001) %MON dynstat_eta_min              =  -1.9305372503293E-02
(PID.TID 0000.0001) %MON dynstat_eta_mean             =  -3.4884502951760E-06
(PID.TID 0000.0001) %MON dynstat_eta_sd               =   8.7407187619474E-03
(PID.TID 0000.0001) %MON dynstat_eta_del2             =   1.6085659433114E-03
(PID.TID 0000.0001) %MON dynstat_uvel_max             =   7.2103948607883E-05
(PID.TID 0000.0001) %MON dynstat_uvel_min             =  -7.1650279908287E-05
(PID.TID 0000.0001) %MON dynstat_uvel_mean            =  -5.9073975780898E-08
(PID.TID 0000.0001) %MON dynstat_uvel_sd              =   1.5211576921603E-05
(PID.TID 0000.0001) %MON dynstat_uvel_del2            =   2.2800726790057E-07
(PID.TID 0000.0001) %MON dynstat_vvel_max             =   4.9774761473268E-04
(PID.TID 0000.0001) %MON dynstat_vvel_min             =  -3.9626863074428E-04
(PID.TID 0000.0001) %MON dynstat_vvel_mean            =  -2.9357659108783E-07
(PID.TID 0000.0001) %MON dynstat_vvel_sd              =   8.8342875479762E-05
(PID.TID 0000.0001) %MON dynstat_vvel_del2            =   1.3487937981942E-06
(PID.TID 0000.0001) %MON dynstat_wvel_max             =   5.4227628769206E-04
(PID.TID 0000.0001) %MON dynstat_wvel_min             =  -6.4311037816163E-04
(PID.TID 0000.0001) %MON dynstat_wvel_mean            =  -1.3948918465132E-20
(PID.TID 0000.0001) %MON dynstat_wvel_sd              =   1.4530467508014E-04
(PID.TID 0000.0001) %MON dynstat_wvel_del2            =   2.5458762192916E-06
(PID.TID 0000.0001) %MON dynstat_theta_max            =   1.1578986763506E+04
(PID.TID 0000.0001) %MON dynstat_theta_min            =   1.1578985827322E+04
(PID.TID 0000.0001) %MON dynstat_theta_mean           =   1.1578986295439E+04
(PID.TID 0000.0001) %MON dynstat_theta_sd             =   1.8344352232685E-04
(PID.TID 0000.0001) %MON dynstat_theta_del2           =   3.1245458830189E-06
(PID.TID 0000.0001) %MON dynstat_salt_max             =   0.0000000000000E+00
(PID.TID 0000.0001) %MON dynstat_salt_min             =   0.0000000000000E+00
(PID.TID 0000.0001) %MON dynstat_salt_mean            =   0.0000000000000E+00
(PID.TID 0000.0001) %MON dynstat_salt_sd              =   0.0000000000000E+00
(PID.TID 0000.0001) %MON dynstat_salt_del2            =   0.0000000000000E+00
(PID.TID 0000.0001) %MON trAdv_CFL_u_max              =   3.2731255909551E-08
(PID.TID 0000.0001) %MON trAdv_CFL_v_max              =   1.5580661275278E-06
(PID.TID 0000.0001) %MON trAdv_CFL_w_max              =   7.7105072262286E-06
(PID.TID 0000.0001) %MON advcfl_uvel_max              =   3.2666611979322E-08
(PID.TID 0000.0001) %MON advcfl_vvel_max              =   1.3431163698691E-06
(PID.TID 0000.0001) %MON advcfl_wvel_max              =   7.7173245379396E-06
(PID.TID 0000.0001) %MON advcfl_W_hf_max              =   7.7173245379396E-06
(PID.TID 0000.0001) %MON pe_b_mean                    =   1.4963422785591E-10
(PID.TID 0000.0001) %MON ke_max                       =   2.1056767150055E-07
(PID.TID 0000.0001) %MON ke_mean                      =   1.4538994295402E-08
(PID.TID 0000.0001) %MON ke_vol                       =   3.4820518350516E+19
(PID.TID 0000.0001) %MON vort_r_min                   =  -9.5901328482291E-10
(PID.TID 0000.0001) %MON vort_r_max                   =   7.1228465105507E-10
(PID.TID 0000.0001) %MON vort_a_mean                  =   3.8893744772513E-20
(PID.TID 0000.0001) %MON vort_a_sd                    =   8.2567010673887E-05
(PID.TID 0000.0001) %MON vort_p_mean                  =   3.8992793795044E-20
(PID.TID 0000.0001) %MON vort_p_sd                    =   8.3918501732378E-05
(PID.TID 0000.0001) %MON surfExpan_theta_mean         =  -7.2442482004758E-12
(PID.TID 0000.0001) %MON surfExpan_salt_mean          =   0.0000000000000E+00
(PID.TID 0000.0001) // =======================================================
(PID.TID 0000.0001) // End MONITOR dynamic field statistics
(PID.TID 0000.0001) // =======================================================
 Compute Stats, Diag. #    23 "ETAN    " (list#  1) Parms "SM      M1      ", vol(  0 )= 8.342E+13
 Compute Stats, Diag. #    30 "UVEL    " (list#  1) Parms "UUR     MR      ", vol(  0 )= 2.503E+20
 Compute Stats, Diag. #    31 "VVEL    " (list#  1) Parms "VVR     MR      ", vol(  0 )= 2.498E+20
 Compute Stats, Diag. #    32 "WVEL    " (list#  1) Parms "WM      LR      ", vol(  0 )= 2.492E+20
 Compute Stats, Diag. #    26 "THETA   " (list#  1) Parms "SMR     MR      ", vol(  0 )= 2.503E+20
 Compute Stats, Diag. #   181 "Wm_Metr " (list#  1) Parms "WMr     LR      ", vol(  0 )= 2.482E+20
 cg2d: Sum(rhs),rhsMax =   3.76193651837331E-05  5.79525098887663E-01
(PID.TID 0000.0001)      cg2d_init_res =   4.07078833441134E-02
(PID.TID 0000.0001)      cg2d_iters(min,last) =      -1     101
(PID.TID 0000.0001)      cg2d_last_res =   6.17453579281246E-14
 cg3d: Sum(rhs),rhsMax =   4.89708100459563E-14  3.42900598043651E-02
(PID.TID 0000.0001)      cg3d_init_res =   3.46880805426838E-01
(PID.TID 0000.0001)      cg3d_iters (last) =                 40
(PID.TID 0000.0001)      cg3d_last_res =   5.04871672211309E-04
(PID.TID 0000.0001) // =======================================================
(PID.TID 0000.0001) // Begin MONITOR dynamic field statistics
(PID.TID 0000.0001) // =======================================================
(PID.TID 0000.0001) %MON time_tsnumber                =                     7
(PID.TID 0000.0001) %MON time_secondsf                =   2.1000000000000E+03
(PID.TID 0000.0001) %MON dynstat_eta_max              =   2.4112479810765E-02
(PID.TID 0000.0001) %MON dynstat_eta_min              =  -1.9082119966069E-02
(PID.TID 0000.0001) %MON dynstat_eta_mean             =  -4.2336472760425E-06
(PID.TID 0000.0001) %MON dynstat_eta_sd               =   8.6641658798398E-03
(PID.TID 0000.0001) %MON dynstat_eta_del2             =   1.5912759411293E-03
(PID.TID 0000.0001) %MON dynstat_uvel_max             =   9.3951065490609E-05
(PID.TID 0000.0001) %MON dynstat_uvel_min             =  -9.2721552523362E-05
(PID.TID 0000.0001) %MON dynstat_uvel_mean            =  -5.8666650649998E-08
(PID.TID 0000.0001) %MON dynstat_uvel_sd              =   1.9523146697393E-05
(PID.TID 0000.0001) %MON dynstat_uvel_del2            =   2.8244859146264E-07
(PID.TID 0000.0001) %MON dynstat_vvel_max             =   5.4860630023634E-04
(PID.TID 0000.0001) %MON dynstat_vvel_min             =  -4.3984757054457E-04
(PID.TID 0000.0001) %MON dynstat_vvel_mean            =  -2.6770112990588E-07
(PID.TID 0000.0001) %MON dynstat_vvel_sd              =   9.6996678902022E-05
(PID.TID 0000.0001) %MON dynstat_vvel_del2            =   1.4335211363865E-06
(PID.TID 0000.0001) %MON dynstat_wvel_max             =   6.0664105543183E-04
(PID.TID 0000.0001) %MON dynstat_wvel_min             =  -7.2079177555651E-04
(PID.TID 0000.0001) %MON dynstat_wvel_mean            =  -1.2345917754421E-20
(PID.TID 0000.0001) %MON dynstat_wvel_sd              =   1.6119450375501E-04
(PID.TID 0000.0001) %MON dynstat_wvel_del2            =   2.7610154199348E-06
(PID.TID 0000.0001) %MON dynstat_theta_max            =   1.1578986757707E+04
(PID.TID 0000.0001) %MON dynstat_theta_min            =   1.1578985832338E+04
(PID.TID 0000.0001) %MON dynstat_theta_mean           =   1.1578986295439E+04
(PID.TID 0000.0001) %MON dynstat_theta_sd             =   1.7395975354190E-04
(PID.TID 0000.0001) %MON dynstat_theta_del2           =   2.9448958341168E-06
(PID.TID 0000.0001) %MON dynstat_salt_max             =   0.0000000000000E+00
(PID.TID 0000.0001) %MON dynstat_salt_min             =   0.0000000000000E+00
(PID.TID 0000.0001) %MON dynstat_salt_mean            =   0.0000000000000E+00
(PID.TID 0000.0001) %MON dynstat_salt_sd              =   0.0000000000000E+00
(PID.TID 0000.0001) %MON dynstat_salt_del2            =   0.0000000000000E+00
(PID.TID 0000.0001) %MON trAdv_CFL_u_max              =   4.3154177402739E-08
(PID.TID 0000.0001) %MON trAdv_CFL_v_max              =   1.7031004871442E-06
(PID.TID 0000.0001) %MON trAdv_CFL_w_max              =   8.6418605308805E-06
(PID.TID 0000.0001) %MON advcfl_uvel_max              =   4.3068948298154E-08
(PID.TID 0000.0001) %MON advcfl_vvel_max              =   1.4803528548428E-06
(PID.TID 0000.0001) %MON advcfl_wvel_max              =   8.6495013066781E-06
(PID.TID 0000.0001) %MON advcfl_W_hf_max              =   8.6495013066781E-06
(PID.TID 0000.0001) %MON pe_b_mean                    =   1.4702466715384E-10
(PID.TID 0000.0001) %MON ke_max                       =   2.6572312670111E-07
(PID.TID 0000.0001) %MON ke_mean                      =   1.7842857692629E-08
(PID.TID 0000.0001) %MON ke_vol                       =   3.4820518350516E+19
(PID.TID 0000.0001) %MON vort_r_min                   =  -1.2135987419489E-09
(PID.TID 0000.0001) %MON vort_r_max                   =   9.0734472087192E-10
(PID.TID 0000.0001) %MON vort_a_mean                  =   5.6844703898288E-20
(PID.TID 0000.0001) %MON vort_a_sd                    =   8.2567010674197E-05
(PID.TID 0000.0001) %MON vort_p_mean                  =   5.6989467854295E-20
(PID.TID 0000.0001) %MON vort_p_sd                    =   8.3918501800190E-05
(PID.TID 0000.0001) %MON surfExpan_theta_mean         =  -1.2326478211305E-11
(PID.TID 0000.0001) %MON surfExpan_salt_mean          =   0.0000000000000E+00
(PID.TID 0000.0001) // =======================================================
(PID.TID 0000.0001) // End MONITOR dynamic field statistics
(PID.TID 0000.0001) // =======================================================
 cg2d: Sum(rhs),rhsMax =   4.36756697105023E-05  5.72542497130409E-01
(PID.TID 0000.0001)      cg2d_init_res =   4.06415109724782E-02
(PID.TID 0000.0001)      cg2d_iters(min,last) =      -1     101
(PID.TID 0000.0001)      cg2d_last_res =   6.27026560899965E-14
 cg3d: Sum(rhs),rhsMax =  -8.27250594415130E-14  3.39519675013605E-02
(PID.TID 0000.0001)      cg3d_init_res =   3.39291622517591E-01
(PID.TID 0000.0001)      cg3d_iters (last) =                 40
(PID.TID 0000.0001)      cg3d_last_res =   4.83061109570756E-04
(PID.TID 0000.0001) // =======================================================
(PID.TID 0000.0001) // Begin MONITOR dynamic field statistics
(PID.TID 0000.0001) // =======================================================
(PID.TID 0000.0001) %MON time_tsnumber                =                     8
(PID.TID 0000.0001) %MON time_secondsf                =   2.4000000000000E+03
(PID.TID 0000.0001) %MON dynstat_eta_max              =   2.3723605935929E-02
(PID.TID 0000.0001) %MON dynstat_eta_min              =  -1.8874927411560E-02
(PID.TID 0000.0001) %MON dynstat_eta_mean             =  -4.8559953327648E-06
(PID.TID 0000.0001) %MON dynstat_eta_sd               =   8.5921955800874E-03
(PID.TID 0000.0001) %MON dynstat_eta_del2             =   1.5742235509068E-03
(PID.TID 0000.0001) %MON dynstat_uvel_max             =   1.1749449215116E-04
(PID.TID 0000.0001) %MON dynstat_uvel_min             =  -1.1524674108916E-04
(PID.TID 0000.0001) %MON dynstat_uvel_mean            =  -5.2972237921617E-08
(PID.TID 0000.0001) %MON dynstat_uvel_sd              =   2.4119921799515E-05
(PID.TID 0000.0001) %MON dynstat_uvel_del2            =   3.3711190275892E-07
(PID.TID 0000.0001) %MON dynstat_vvel_max             =   5.9435613884442E-04
(PID.TID 0000.0001) %MON dynstat_vvel_min             =  -4.7937742937858E-04
(PID.TID 0000.0001) %MON dynstat_vvel_mean            =  -2.1670284632445E-07
(PID.TID 0000.0001) %MON dynstat_vvel_sd              =   1.0483211525321E-04
(PID.TID 0000.0001) %MON dynstat_vvel_del2            =   1.5013388850800E-06
(PID.TID 0000.0001) %MON dynstat_wvel_max             =   6.6551548746974E-04
(PID.TID 0000.0001) %MON dynstat_wvel_min             =  -7.9220050460738E-04
(PID.TID 0000.0001) %MON dynstat_wvel_mean            =  -1.0517934487821E-20
(PID.TID 0000.0001) %MON dynstat_wvel_sd              =   1.7564358937626E-04
(PID.TID 0000.0001) %MON dynstat_wvel_del2            =   2.9428797474166E-06
(PID.TID 0000.0001) %MON dynstat_theta_max            =   1.1578986751607E+04
(PID.TID 0000.0001) %MON dynstat_theta_min            =   1.1578985837561E+04
(PID.TID 0000.0001) %MON dynstat_theta_mean           =   1.1578986295439E+04
(PID.TID 0000.0001) %MON dynstat_theta_sd             =   1.6578119920136E-04
(PID.TID 0000.0001) %MON dynstat_theta_del2           =   2.7889070497758E-06
(PID.TID 0000.0001) %MON dynstat_salt_max             =   0.0000000000000E+00
(PID.TID 0000.0001) %MON dynstat_salt_min             =   0.0000000000000E+00
(PID.TID 0000.0001) %MON dynstat_salt_mean            =   0.0000000000000E+00
(PID.TID 0000.0001) %MON dynstat_salt_sd              =   0.0000000000000E+00
(PID.TID 0000.0001) %MON dynstat_salt_del2            =   0.0000000000000E+00
(PID.TID 0000.0001) %MON trAdv_CFL_u_max              =   5.4550011412992E-08
(PID.TID 0000.0001) %MON trAdv_CFL_v_max              =   1.8283199504405E-06
(PID.TID 0000.0001) %MON trAdv_CFL_w_max              =   9.4980083090215E-06
(PID.TID 0000.0001) %MON advcfl_uvel_max              =   5.4442275640754E-08
(PID.TID 0000.0001) %MON advcfl_vvel_max              =   1.6038036868199E-06
(PID.TID 0000.0001) %MON advcfl_wvel_max              =   9.5064060552885E-06
(PID.TID 0000.0001) %MON advcfl_W_hf_max              =   9.5064060552885E-06
(PID.TID 0000.0001) %MON pe_b_mean                    =   1.4459225510118E-10
(PID.TID 0000.0001) %MON ke_max                       =   3.2263667540614E-07
(PID.TID 0000.0001) %MON ke_mean                      =   2.1159322029683E-08
(PID.TID 0000.0001) %MON ke_vol                       =   3.4820518350516E+19
(PID.TID 0000.0001) %MON vort_r_min                   =  -1.4751490918714E-09
(PID.TID 0000.0001) %MON vort_r_max                   =   1.1111494945686E-09
(PID.TID 0000.0001) %MON vort_a_mean                  =  -3.8893744772513E-20
(PID.TID 0000.0001) %MON vort_a_sd                    =   8.2567010675495E-05
(PID.TID 0000.0001) %MON vort_p_mean                  =  -3.8992793795044E-20
(PID.TID 0000.0001) %MON vort_p_sd                    =   8.3918501875941E-05
(PID.TID 0000.0001) %MON surfExpan_theta_mean         =  -1.6442597656707E-11
(PID.TID 0000.0001) %MON surfExpan_salt_mean          =   0.0000000000000E+00
(PID.TID 0000.0001) // =======================================================
(PID.TID 0000.0001) // End MONITOR dynamic field statistics
(PID.TID 0000.0001) // =======================================================
 cg2d: Sum(rhs),rhsMax =   4.71382877422488E-05  5.65667637704605E-01
(PID.TID 0000.0001)      cg2d_init_res =   4.05748114891764E-02
(PID.TID 0000.0001)      cg2d_iters(min,last) =      -1     101
(PID.TID 0000.0001)      cg2d_last_res =   6.33825933511167E-14
 cg3d: Sum(rhs),rhsMax =  -7.19112269731426E-14  3.35950080920475E-02
(PID.TID 0000.0001)      cg3d_init_res =   3.35301136098325E-01
(PID.TID 0000.0001)      cg3d_iters (last) =                 40
(PID.TID 0000.0001)      cg3d_last_res =   4.53735325603058E-04
(PID.TID 0000.0001) // =======================================================
(PID.TID 0000.0001) // Begin MONITOR dynamic field statistics
(PID.TID 0000.0001) // =======================================================
(PID.TID 0000.0001) %MON time_tsnumber                =                     9
(PID.TID 0000.0001) %MON time_secondsf                =   2.7000000000000E+03
(PID.TID 0000.0001) %MON dynstat_eta_max              =   2.3375290374689E-02
(PID.TID 0000.0001) %MON dynstat_eta_min              =  -1.8717042982044E-02
(PID.TID 0000.0001) %MON dynstat_eta_mean             =  -5.1780482861757E-06
(PID.TID 0000.0001) %MON dynstat_eta_sd               =   8.5284716651149E-03
(PID.TID 0000.0001) %MON dynstat_eta_del2             =   1.5574054540722E-03
(PID.TID 0000.0001) %MON dynstat_uvel_max             =   1.4247626352766E-04
(PID.TID 0000.0001) %MON dynstat_uvel_min             =  -1.3897271088120E-04
(PID.TID 0000.0001) %MON dynstat_uvel_mean            =  -4.4487834286854E-08
(PID.TID 0000.0001) %MON dynstat_uvel_sd              =   2.8962384471802E-05
(PID.TID 0000.0001) %MON dynstat_uvel_del2            =   3.9130651935746E-07
(PID.TID 0000.0001) %MON dynstat_vvel_max             =   6.3558546646743E-04
(PID.TID 0000.0001) %MON dynstat_vvel_min             =  -5.1545184429112E-04
(PID.TID 0000.0001) %MON dynstat_vvel_mean            =  -1.5607478166360E-07
(PID.TID 0000.0001) %MON dynstat_vvel_sd              =   1.1198091518389E-04
(PID.TID 0000.0001) %MON dynstat_vvel_del2            =   1.5555091416246E-06
(PID.TID 0000.0001) %MON dynstat_wvel_max             =   7.1929101328840E-04
(PID.TID 0000.0001) %MON dynstat_wvel_min             =  -8.5813073292218E-04
(PID.TID 0000.0001) %MON dynstat_wvel_mean            =  -4.4715282982982E-21
(PID.TID 0000.0001) %MON dynstat_wvel_sd              =   1.8882850116825E-04
(PID.TID 0000.0001) %MON dynstat_wvel_del2            =   3.0964113310018E-06
(PID.TID 0000.0001) %MON dynstat_theta_max            =   1.1578986745271E+04
(PID.TID 0000.0001) %MON dynstat_theta_min            =   1.1578985842958E+04
(PID.TID 0000.0001) %MON dynstat_theta_mean           =   1.1578986295439E+04
(PID.TID 0000.0001) %MON dynstat_theta_sd             =   1.5867495911383E-04
(PID.TID 0000.0001) %MON dynstat_theta_del2           =   2.6523427630602E-06
(PID.TID 0000.0001) %MON dynstat_salt_max             =   0.0000000000000E+00
(PID.TID 0000.0001) %MON dynstat_salt_min             =   0.0000000000000E+00
(PID.TID 0000.0001) %MON dynstat_salt_mean            =   0.0000000000000E+00
(PID.TID 0000.0001) %MON dynstat_salt_sd              =   0.0000000000000E+00
(PID.TID 0000.0001) %MON dynstat_salt_del2            =   0.0000000000000E+00
(PID.TID 0000.0001) %MON trAdv_CFL_u_max              =   6.6829423002563E-08
(PID.TID 0000.0001) %MON trAdv_CFL_v_max              =   1.9365445961864E-06
(PID.TID 0000.0001) %MON trAdv_CFL_w_max              =   1.0288044658325E-05
(PID.TID 0000.0001) %MON advcfl_uvel_max              =   6.6697435505055E-08
(PID.TID 0000.0001) %MON advcfl_vvel_max              =   1.7150564245732E-06
(PID.TID 0000.0001) %MON advcfl_wvel_max              =   1.0297568795066E-05
(PID.TID 0000.0001) %MON advcfl_W_hf_max              =   1.0297568795066E-05
(PID.TID 0000.0001) %MON pe_b_mean                    =   1.4245548187273E-10
(PID.TID 0000.0001) %MON ke_max                       =   3.8055433287781E-07
(PID.TID 0000.0001) %MON ke_mean                      =   2.4457648116336E-08
(PID.TID 0000.0001) %MON ke_vol                       =   3.4820518350516E+19
(PID.TID 0000.0001) %MON vort_r_min                   =  -1.7395841807946E-09
(PID.TID 0000.0001) %MON vort_r_max                   =   1.3210081949069E-09
(PID.TID 0000.0001) %MON vort_a_mean                  =   5.6844703898288E-20
(PID.TID 0000.0001) %MON vort_a_sd                    =   8.2567010677160E-05
(PID.TID 0000.0001) %MON vort_p_mean                  =   5.6989467854295E-20
(PID.TID 0000.0001) %MON vort_p_sd                    =   8.3918501958522E-05
(PID.TID 0000.0001) %MON surfExpan_theta_mean         =  -1.7374203610731E-11
(PID.TID 0000.0001) %MON surfExpan_salt_mean          =   0.0000000000000E+00
(PID.TID 0000.0001) // =======================================================
(PID.TID 0000.0001) // End MONITOR dynamic field statistics
(PID.TID 0000.0001) // =======================================================
 cg2d: Sum(rhs),rhsMax =   4.72017417634252E-05  5.58898158331658E-01
(PID.TID 0000.0001)      cg2d_init_res =   4.05102019790833E-02
(PID.TID 0000.0001)      cg2d_iters(min,last) =      -1     101
(PID.TID 0000.0001)      cg2d_last_res =   6.40167555848209E-14
 cg3d: Sum(rhs),rhsMax =   8.87341415622966E-14  3.32258394400968E-02
(PID.TID 0000.0001)      cg3d_init_res =   3.30782443398443E-01
(PID.TID 0000.0001)      cg3d_iters (last) =                 40
(PID.TID 0000.0001)      cg3d_last_res =   4.05268532675157E-04
(PID.TID 0000.0001) // =======================================================
(PID.TID 0000.0001) // Begin MONITOR dynamic field statistics
(PID.TID 0000.0001) // =======================================================
(PID.TID 0000.0001) %MON time_tsnumber                =                    10
(PID.TID 0000.0001) %MON time_secondsf                =   3.0000000000000E+03
(PID.TID 0000.0001) %MON dynstat_eta_max              =   2.3120504730266E-02
(PID.TID 0000.0001) %MON dynstat_eta_min              =  -1.8612736415273E-02
(PID.TID 0000.0001) %MON dynstat_eta_mean             =  -5.1229682330997E-06
(PID.TID 0000.0001) %MON dynstat_eta_sd               =   8.4728569765095E-03
(PID.TID 0000.0001) %MON dynstat_eta_del2             =   1.5408167819311E-03
(PID.TID 0000.0001) %MON dynstat_uvel_max             =   1.6867136796871E-04
(PID.TID 0000.0001) %MON dynstat_uvel_min             =  -1.6367732918327E-04
(PID.TID 0000.0001) %MON dynstat_uvel_mean            =  -3.5642032599126E-08
(PID.TID 0000.0001) %MON dynstat_uvel_sd              =   3.4018181838315E-05
(PID.TID 0000.0001) %MON dynstat_uvel_del2            =   4.4452211053886E-07
(PID.TID 0000.0001) %MON dynstat_vvel_max             =   6.7283186784220E-04
(PID.TID 0000.0001) %MON dynstat_vvel_min             =  -5.4859253329708E-04
(PID.TID 0000.0001) %MON dynstat_vvel_mean            =  -9.8051984763533E-08
(PID.TID 0000.0001) %MON dynstat_vvel_sd              =   1.1854477357542E-04
(PID.TID 0000.0001) %MON dynstat_vvel_del2            =   1.5984902311749E-06
(PID.TID 0000.0001) %MON dynstat_wvel_max             =   7.6834327568256E-04
(PID.TID 0000.0001) %MON dynstat_wvel_min             =  -9.1938701308069E-04
(PID.TID 0000.0001) %MON dynstat_wvel_mean            =  -1.3498953353353E-21
(PID.TID 0000.0001) %MON dynstat_wvel_sd              =   2.0089504652636E-04
(PID.TID 0000.0001) %MON dynstat_wvel_del2            =   3.2256714273780E-06
(PID.TID 0000.0001) %MON dynstat_theta_max            =   1.1578986738755E+04
(PID.TID 0000.0001) %MON dynstat_theta_min            =   1.1578985848498E+04
(PID.TID 0000.0001) %MON dynstat_theta_mean           =   1.1578986295439E+04
(PID.TID 0000.0001) %MON dynstat_theta_sd             =   1.5245175433952E-04
(PID.TID 0000.0001) %MON dynstat_theta_del2           =   2.5317810676356E-06
(PID.TID 0000.0001) %MON dynstat_salt_max             =   0.0000000000000E+00
(PID.TID 0000.0001) %MON dynstat_salt_min             =   0.0000000000000E+00
(PID.TID 0000.0001) %MON dynstat_salt_mean            =   0.0000000000000E+00
(PID.TID 0000.0001) %MON dynstat_salt_sd              =   0.0000000000000E+00
(PID.TID 0000.0001) %MON dynstat_salt_del2            =   0.0000000000000E+00
(PID.TID 0000.0001) %MON trAdv_CFL_u_max              =   7.9900116453241E-08
(PID.TID 0000.0001) %MON trAdv_CFL_v_max              =   2.0301187044499E-06
(PID.TID 0000.0001) %MON trAdv_CFL_w_max              =   1.1022440155066E-05
(PID.TID 0000.0001) %MON advcfl_uvel_max              =   7.9742314456045E-08
(PID.TID 0000.0001) %MON advcfl_vvel_max              =   1.8155616804990E-06
(PID.TID 0000.0001) %MON advcfl_wvel_max              =   1.1032644156968E-05
(PID.TID 0000.0001) %MON advcfl_W_hf_max              =   1.1032644156968E-05
(PID.TID 0000.0001) %MON pe_b_mean                    =   1.4060361732658E-10
(PID.TID 0000.0001) %MON ke_max                       =   4.3888116641887E-07
(PID.TID 0000.0001) %MON ke_mean                      =   2.7716970134807E-08
(PID.TID 0000.0001) %MON ke_vol                       =   3.4820518350516E+19
(PID.TID 0000.0001) %MON vort_r_min                   =  -2.0035958793512E-09
(PID.TID 0000.0001) %MON vort_r_max                   =   1.5346432231313E-09
(PID.TID 0000.0001) %MON vort_a_mean                  =  -4.4877397814438E-20
(PID.TID 0000.0001) %MON vort_a_sd                    =   8.2567010678692E-05
(PID.TID 0000.0001) %MON vort_p_mean                  =  -4.4991685148127E-20
(PID.TID 0000.0001) %MON vort_p_sd                    =   8.3918502047064E-05
(PID.TID 0000.0001) %MON surfExpan_theta_mean         =  -1.5344050411666E-11
(PID.TID 0000.0001) %MON surfExpan_salt_mean          =   0.0000000000000E+00
(PID.TID 0000.0001) // =======================================================
(PID.TID 0000.0001) // End MONITOR dynamic field statistics
(PID.TID 0000.0001) // =======================================================
 cg2d: Sum(rhs),rhsMax =   4.52236939872674E-05  5.52230158966436E-01
(PID.TID 0000.0001)      cg2d_init_res =   4.04468510212574E-02
(PID.TID 0000.0001)      cg2d_iters(min,last) =      -1     101
(PID.TID 0000.0001)      cg2d_last_res =   6.46889132067566E-14
 cg3d: Sum(rhs),rhsMax =  -6.89903863204666E-14  3.28543295777949E-02
(PID.TID 0000.0001)      cg3d_init_res =   3.27143750678537E-01
(PID.TID 0000.0001)      cg3d_iters (last) =                 40
(PID.TID 0000.0001)      cg3d_last_res =   3.08161190351518E-04
(PID.TID 0000.0001) // =======================================================
(PID.TID 0000.0001) // Begin MONITOR dynamic field statistics
(PID.TID 0000.0001) // =======================================================
(PID.TID 0000.0001) %MON time_tsnumber                =                    11
(PID.TID 0000.0001) %MON time_secondsf                =   3.3000000000000E+03
(PID.TID 0000.0001) %MON dynstat_eta_max              =   2.2982912111988E-02
(PID.TID 0000.0001) %MON dynstat_eta_min              =  -1.8548682909081E-02
(PID.TID 0000.0001) %MON dynstat_eta_mean             =  -4.8497250183420E-06
(PID.TID 0000.0001) %MON dynstat_eta_sd               =   8.4232297669591E-03
(PID.TID 0000.0001) %MON dynstat_eta_del2             =   1.5244529298177E-03
(PID.TID 0000.0001) %MON dynstat_uvel_max             =   1.9588115016397E-04
(PID.TID 0000.0001) %MON dynstat_uvel_min             =  -1.8916617993259E-04
(PID.TID 0000.0001) %MON dynstat_uvel_mean            =  -2.8660311825195E-08
(PID.TID 0000.0001) %MON dynstat_uvel_sd              =   3.9260398521091E-05
(PID.TID 0000.0001) %MON dynstat_uvel_del2            =   4.9638437010246E-07
(PID.TID 0000.0001) %MON dynstat_vvel_max             =   7.0656009679131E-04
(PID.TID 0000.0001) %MON dynstat_vvel_min             =  -5.7921611909723E-04
(PID.TID 0000.0001) %MON dynstat_vvel_mean            =  -5.3954024326120E-08
(PID.TID 0000.0001) %MON dynstat_vvel_sd              =   1.2460335715780E-04
(PID.TID 0000.0001) %MON dynstat_vvel_del2            =   1.6322387812610E-06
(PID.TID 0000.0001) %MON dynstat_wvel_max             =   8.1302221779208E-04
(PID.TID 0000.0001) %MON dynstat_wvel_min             =  -9.7593170593457E-04
(PID.TID 0000.0001) %MON dynstat_wvel_mean            =   2.4748081147814E-21
(PID.TID 0000.0001) %MON dynstat_wvel_sd              =   2.1196544515901E-04
(PID.TID 0000.0001) %MON dynstat_wvel_del2            =   3.3340618706196E-06
(PID.TID 0000.0001) %MON dynstat_theta_max            =   1.1578986732108E+04
(PID.TID 0000.0001) %MON dynstat_theta_min            =   1.1578985854154E+04
(PID.TID 0000.0001) %MON dynstat_theta_mean           =   1.1578986295440E+04
(PID.TID 0000.0001) %MON dynstat_theta_sd             =   1.4695825480875E-04
(PID.TID 0000.0001) %MON dynstat_theta_del2           =   2.4244643581152E-06
(PID.TID 0000.0001) %MON dynstat_salt_max             =   0.0000000000000E+00
(PID.TID 0000.0001) %MON dynstat_salt_min             =   0.0000000000000E+00
(PID.TID 0000.0001) %MON dynstat_salt_mean            =   0.0000000000000E+00
(PID.TID 0000.0001) %MON dynstat_salt_sd              =   0.0000000000000E+00
(PID.TID 0000.0001) %MON dynstat_salt_del2            =   0.0000000000000E+00
(PID.TID 0000.0001) %MON trAdv_CFL_u_max              =   9.3675868364484E-08
(PID.TID 0000.0001) %MON trAdv_CFL_v_max              =   2.1109836202796E-06
(PID.TID 0000.0001) %MON trAdv_CFL_w_max              =   1.1700348896653E-05
(PID.TID 0000.0001) %MON advcfl_uvel_max              =   9.3490859383607E-08
(PID.TID 0000.0001) %MON advcfl_vvel_max              =   1.9065735409025E-06
(PID.TID 0000.0001) %MON advcfl_wvel_max              =   1.1711180471215E-05
(PID.TID 0000.0001) %MON advcfl_W_hf_max              =   1.1711180471215E-05
(PID.TID 0000.0001) %MON pe_b_mean                    =   1.3896134950909E-10
(PID.TID 0000.0001) %MON ke_max                       =   4.9715054195732E-07
(PID.TID 0000.0001) %MON ke_mean                      =   3.0923329358326E-08
(PID.TID 0000.0001) %MON ke_vol                       =   3.4820518350516E+19
(PID.TID 0000.0001) %MON vort_r_min                   =  -2.2645298429745E-09
(PID.TID 0000.0001) %MON vort_r_max                   =   1.7501267541176E-09
(PID.TID 0000.0001) %MON vort_a_mean                  =  -3.2910091730588E-20
(PID.TID 0000.0001) %MON vort_a_sd                    =   8.2567010679683E-05
(PID.TID 0000.0001) %MON vort_p_mean                  =  -3.2993902441960E-20
(PID.TID 0000.0001) %MON vort_p_sd                    =   8.3918502140870E-05
(PID.TID 0000.0001) %MON surfExpan_theta_mean         =  -1.1895898113745E-11
(PID.TID 0000.0001) %MON surfExpan_salt_mean          =   0.0000000000000E+00
(PID.TID 0000.0001) // =======================================================
(PID.TID 0000.0001) // End MONITOR dynamic field statistics
(PID.TID 0000.0001) // =======================================================
 cg2d: Sum(rhs),rhsMax =   4.26645347043064E-05  5.45660022619322E-01
(PID.TID 0000.0001)      cg2d_init_res =   4.03848365035694E-02
(PID.TID 0000.0001)      cg2d_iters(min,last) =      -1     101
(PID.TID 0000.0001)      cg2d_last_res =   6.54187737585260E-14
 cg3d: Sum(rhs),rhsMax =  -3.16196721583673E-14  3.24872040654536E-02
(PID.TID 0000.0001)      cg3d_init_res =   3.23535958503364E-01
(PID.TID 0000.0001)      cg3d_iters (last) =                 40
(PID.TID 0000.0001)      cg3d_last_res =   2.12777529760154E-04
(PID.TID 0000.0001) // =======================================================
(PID.TID 0000.0001) // Begin MONITOR dynamic field statistics
(PID.TID 0000.0001) // =======================================================
(PID.TID 0000.0001) %MON time_tsnumber                =                    12
(PID.TID 0000.0001) %MON time_secondsf                =   3.6000000000000E+03
(PID.TID 0000.0001) %MON dynstat_eta_max              =   2.2873236115982E-02
(PID.TID 0000.0001) %MON dynstat_eta_min              =  -1.8499515723348E-02
(PID.TID 0000.0001) %MON dynstat_eta_mean             =  -4.5208501301429E-06
(PID.TID 0000.0001) %MON dynstat_eta_sd               =   8.3768060225029E-03
(PID.TID 0000.0001) %MON dynstat_eta_del2             =   1.5083095713158E-03
(PID.TID 0000.0001) %MON dynstat_uvel_max             =   2.2392958395173E-04
(PID.TID 0000.0001) %MON dynstat_uvel_min             =  -2.1526856706018E-04
(PID.TID 0000.0001) %MON dynstat_uvel_mean            =  -2.5044811429648E-08
(PID.TID 0000.0001) %MON dynstat_uvel_sd              =   4.4666308968059E-05
(PID.TID 0000.0001) %MON dynstat_uvel_del2            =   5.4662669529395E-07
(PID.TID 0000.0001) %MON dynstat_vvel_max             =   7.3718092038212E-04
(PID.TID 0000.0001) %MON dynstat_vvel_min             =  -6.0763220910042E-04
(PID.TID 0000.0001) %MON dynstat_vvel_mean            =  -3.0542247054796E-08
(PID.TID 0000.0001) %MON dynstat_vvel_sd              =   1.3021919977964E-04
(PID.TID 0000.0001) %MON dynstat_vvel_del2            =   1.6583059625562E-06
(PID.TID 0000.0001) %MON dynstat_wvel_max             =   8.5366078383814E-04
(PID.TID 0000.0001) %MON dynstat_wvel_min             =  -1.0281141620260E-03
(PID.TID 0000.0001) %MON dynstat_wvel_mean            =   7.9868807340672E-21
(PID.TID 0000.0001) %MON dynstat_wvel_sd              =   2.2214356563598E-04
(PID.TID 0000.0001) %MON dynstat_wvel_del2            =   3.4244347079134E-06
(PID.TID 0000.0001) %MON dynstat_theta_max            =   1.1578986725372E+04
(PID.TID 0000.0001) %MON dynstat_theta_min            =   1.1578985859900E+04
(PID.TID 0000.0001) %MON dynstat_theta_mean           =   1.1578986295439E+04
(PID.TID 0000.0001) %MON dynstat_theta_sd             =   1.4207049018510E-04
(PID.TID 0000.0001) %MON dynstat_theta_del2           =   2.3281723395857E-06
(PID.TID 0000.0001) %MON dynstat_salt_max             =   0.0000000000000E+00
(PID.TID 0000.0001) %MON dynstat_salt_min             =   0.0000000000000E+00
(PID.TID 0000.0001) %MON dynstat_salt_mean            =   0.0000000000000E+00
(PID.TID 0000.0001) %MON dynstat_salt_sd              =   0.0000000000000E+00
(PID.TID 0000.0001) %MON dynstat_salt_del2            =   0.0000000000000E+00
(PID.TID 0000.0001) %MON trAdv_CFL_u_max              =   1.0808142094027E-07
(PID.TID 0000.0001) %MON trAdv_CFL_v_max              =   2.1807601839370E-06
(PID.TID 0000.0001) %MON trAdv_CFL_w_max              =   1.2325959212253E-05
(PID.TID 0000.0001) %MON advcfl_uvel_max              =   1.0786796112517E-07
(PID.TID 0000.0001) %MON advcfl_vvel_max              =   1.9892004148571E-06
(PID.TID 0000.0001) %MON advcfl_wvel_max              =   1.2337369944312E-05
(PID.TID 0000.0001) %MON advcfl_W_hf_max              =   1.2337369944312E-05
(PID.TID 0000.0001) %MON pe_b_mean                    =   1.3743382328738E-10
(PID.TID 0000.0001) %MON ke_max                       =   5.5497452436560E-07
(PID.TID 0000.0001) %MON ke_mean                      =   3.4067612418634E-08
(PID.TID 0000.0001) %MON ke_vol                       =   3.4820518350516E+19
(PID.TID 0000.0001) %MON vort_r_min                   =  -2.5503552818858E-09
(PID.TID 0000.0001) %MON vort_r_max                   =   1.9658413865961E-09
(PID.TID 0000.0001) %MON vort_a_mean                  =   2.0942785646738E-20
(PID.TID 0000.0001) %MON vort_a_sd                    =   8.2567010679909E-05
(PID.TID 0000.0001) %MON vort_p_mean                  =   2.0996119735793E-20
(PID.TID 0000.0001) %MON vort_p_sd                    =   8.3918502239466E-05
(PID.TID 0000.0001) %MON surfExpan_theta_mean         =  -8.5205605371975E-12
(PID.TID 0000.0001) %MON surfExpan_salt_mean          =   0.0000000000000E+00
(PID.TID 0000.0001) // =======================================================
(PID.TID 0000.0001) // End MONITOR dynamic field statistics
(PID.TID 0000.0001) // =======================================================
 Compute Stats, Diag. #    23 "ETAN    " (list#  1) Parms "SM      M1      ", vol(  0 )= 8.342E+13
 Compute Stats, Diag. #    30 "UVEL    " (list#  1) Parms "UUR     MR      ", vol(  0 )= 2.503E+20
 Compute Stats, Diag. #    31 "VVEL    " (list#  1) Parms "VVR     MR      ", vol(  0 )= 2.498E+20
 Compute Stats, Diag. #    32 "WVEL    " (list#  1) Parms "WM      LR      ", vol(  0 )= 2.492E+20
 Compute Stats, Diag. #    26 "THETA   " (list#  1) Parms "SMR     MR      ", vol(  0 )= 2.503E+20
 Compute Stats, Diag. #   181 "Wm_Metr " (list#  1) Parms "WMr     LR      ", vol(  0 )= 2.482E+20
 cg2d: Sum(rhs),rhsMax =   4.03734670833822E-05  5.39184576905828E-01
(PID.TID 0000.0001)      cg2d_init_res =   4.03244355017148E-02
(PID.TID 0000.0001)      cg2d_iters(min,last) =      -1     101
(PID.TID 0000.0001)      cg2d_last_res =   6.61574005429637E-14
 cg3d: Sum(rhs),rhsMax =   1.49347548217271E-13  3.21275066389516E-02
(PID.TID 0000.0001)      cg3d_init_res =   3.20201865396441E-01
(PID.TID 0000.0001)      cg3d_iters (last) =                 40
(PID.TID 0000.0001)      cg3d_last_res =   1.62046343896076E-04
(PID.TID 0000.0001) // =======================================================
(PID.TID 0000.0001) // Begin MONITOR dynamic field statistics
(PID.TID 0000.0001) // =======================================================
(PID.TID 0000.0001) %MON time_tsnumber                =                    13
(PID.TID 0000.0001) %MON time_secondsf                =   3.9000000000000E+03
(PID.TID 0000.0001) %MON dynstat_eta_max              =   2.2780939601801E-02
(PID.TID 0000.0001) %MON dynstat_eta_min              =  -1.8442350353658E-02
(PID.TID 0000.0001) %MON dynstat_eta_mean             =  -4.2273136005044E-06
(PID.TID 0000.0001) %MON dynstat_eta_sd               =   8.3315166827365E-03
(PID.TID 0000.0001) %MON dynstat_eta_del2             =   1.4923825706903E-03
(PID.TID 0000.0001) %MON dynstat_uvel_max             =   2.5265822972921E-04
(PID.TID 0000.0001) %MON dynstat_uvel_min             =  -2.4183534524163E-04
(PID.TID 0000.0001) %MON dynstat_uvel_mean            =  -2.4964419920083E-08
(PID.TID 0000.0001) %MON dynstat_uvel_sd              =   5.0216446736780E-05
(PID.TID 0000.0001) %MON dynstat_uvel_del2            =   5.9506548663268E-07
(PID.TID 0000.0001) %MON dynstat_vvel_max             =   7.6506740780141E-04
(PID.TID 0000.0001) %MON dynstat_vvel_min             =  -6.3406907037463E-04
(PID.TID 0000.0001) %MON dynstat_vvel_mean            =  -2.8961816526730E-08
(PID.TID 0000.0001) %MON dynstat_vvel_sd              =   1.3544205668375E-04
(PID.TID 0000.0001) %MON dynstat_vvel_del2            =   1.6779484232835E-06
(PID.TID 0000.0001) %MON dynstat_wvel_max             =   8.9057008444006E-04
(PID.TID 0000.0001) %MON dynstat_wvel_min             =  -1.0762284644070E-03
(PID.TID 0000.0001) %MON dynstat_wvel_mean            =   1.3273970797464E-20
(PID.TID 0000.0001) %MON dynstat_wvel_sd              =   2.3151807507046E-04
(PID.TID 0000.0001) %MON dynstat_wvel_del2            =   3.4992006849569E-06
(PID.TID 0000.0001) %MON dynstat_theta_max            =   1.1578986718582E+04
(PID.TID 0000.0001) %MON dynstat_theta_min            =   1.1578985865712E+04
(PID.TID 0000.0001) %MON dynstat_theta_mean           =   1.1578986295440E+04
(PID.TID 0000.0001) %MON dynstat_theta_sd             =   1.3768828674550E-04
(PID.TID 0000.0001) %MON dynstat_theta_del2           =   2.2411165235287E-06
(PID.TID 0000.0001) %MON dynstat_salt_max             =   0.0000000000000E+00
(PID.TID 0000.0001) %MON dynstat_salt_min             =   0.0000000000000E+00
(PID.TID 0000.0001) %MON dynstat_salt_mean            =   0.0000000000000E+00
(PID.TID 0000.0001) %MON dynstat_salt_sd              =   0.0000000000000E+00
(PID.TID 0000.0001) %MON dynstat_salt_del2            =   0.0000000000000E+00
(PID.TID 0000.0001) %MON trAdv_CFL_u_max              =   1.2305224153287E-07
(PID.TID 0000.0001) %MON trAdv_CFL_v_max              =   2.2408335027279E-06
(PID.TID 0000.0001) %MON trAdv_CFL_w_max              =   1.2902796834552E-05
(PID.TID 0000.0001) %MON advcfl_uvel_max              =   1.2280921448441E-07
(PID.TID 0000.0001) %MON advcfl_vvel_max              =   2.0644489879137E-06
(PID.TID 0000.0001) %MON advcfl_wvel_max              =   1.2914741572885E-05
(PID.TID 0000.0001) %MON advcfl_W_hf_max              =   1.2914741572885E-05
(PID.TID 0000.0001) %MON pe_b_mean                    =   1.3595175947850E-10
(PID.TID 0000.0001) %MON ke_max                       =   6.1202750870096E-07
(PID.TID 0000.0001) %MON ke_mean                      =   3.7144072174261E-08
(PID.TID 0000.0001) %MON ke_vol                       =   3.4820518350516E+19
(PID.TID 0000.0001) %MON vort_r_min                   =  -2.8508036485677E-09
(PID.TID 0000.0001) %MON vort_r_max                   =   2.1804186269605E-09
(PID.TID 0000.0001) %MON vort_a_mean                  =  -1.0770575475465E-19
(PID.TID 0000.0001) %MON vort_a_sd                    =   8.2567010679399E-05
(PID.TID 0000.0001) %MON vort_p_mean                  =  -1.0798004435551E-19
(PID.TID 0000.0001) %MON vort_p_sd                    =   8.3918502342549E-05
(PID.TID 0000.0001) %MON surfExpan_theta_mean         =  -6.0932501886853E-12
(PID.TID 0000.0001) %MON surfExpan_salt_mean          =   0.0000000000000E+00
(PID.TID 0000.0001) // =======================================================
(PID.TID 0000.0001) // End MONITOR dynamic field statistics
(PID.TID 0000.0001) // =======================================================
 cg2d: Sum(rhs),rhsMax =   3.91519333031443E-05  5.32801401691635E-01
(PID.TID 0000.0001)      cg2d_init_res =   4.02656748175346E-02
(PID.TID 0000.0001)      cg2d_iters(min,last) =      -1     101
(PID.TID 0000.0001)      cg2d_last_res =   6.69240063507156E-14
 cg3d: Sum(rhs),rhsMax =  -9.71844132946487E-14  3.17758393458278E-02
(PID.TID 0000.0001)      cg3d_init_res =   3.16955225590754E-01
(PID.TID 0000.0001)      cg3d_iters (last) =                 40
(PID.TID 0000.0001)      cg3d_last_res =   1.96335034844735E-04
(PID.TID 0000.0001) // =======================================================
(PID.TID 0000.0001) // Begin MONITOR dynamic field statistics
(PID.TID 0000.0001) // =======================================================
(PID.TID 0000.0001) %MON time_tsnumber                =                    14
(PID.TID 0000.0001) %MON time_secondsf                =   4.2000000000000E+03
(PID.TID 0000.0001) %MON dynstat_eta_max              =   2.2695448943825E-02
(PID.TID 0000.0001) %MON dynstat_eta_min              =  -1.8366214034943E-02
(PID.TID 0000.0001) %MON dynstat_eta_mean             =  -4.0508814220072E-06
(PID.TID 0000.0001) %MON dynstat_eta_sd               =   8.2863564911958E-03
(PID.TID 0000.0001) %MON dynstat_eta_del2             =   1.4766681080144E-03
(PID.TID 0000.0001) %MON dynstat_uvel_max             =   2.8207039300064E-04
(PID.TID 0000.0001) %MON dynstat_uvel_min             =  -2.6873640425197E-04
(PID.TID 0000.0001) %MON dynstat_uvel_mean            =  -2.7553399841159E-08
(PID.TID 0000.0001) %MON dynstat_uvel_sd              =   5.5893894053178E-05
(PID.TID 0000.0001) %MON dynstat_uvel_del2            =   6.4158191248352E-07
(PID.TID 0000.0001) %MON dynstat_vvel_max             =   7.9055329109599E-04
(PID.TID 0000.0001) %MON dynstat_vvel_min             =  -6.5870322589659E-04
(PID.TID 0000.0001) %MON dynstat_vvel_mean            =  -4.5473686365496E-08
(PID.TID 0000.0001) %MON dynstat_vvel_sd              =   1.4031218170241E-04
(PID.TID 0000.0001) %MON dynstat_vvel_del2            =   1.6921895910133E-06
(PID.TID 0000.0001) %MON dynstat_wvel_max             =   9.2403634684069E-04
(PID.TID 0000.0001) %MON dynstat_wvel_min             =  -1.1205283203953E-03
(PID.TID 0000.0001) %MON dynstat_wvel_mean            =  -1.1249127794461E-21
(PID.TID 0000.0001) %MON dynstat_wvel_sd              =   2.4016487211267E-04
(PID.TID 0000.0001) %MON dynstat_wvel_del2            =   3.5604077323841E-06
(PID.TID 0000.0001) %MON dynstat_theta_max            =   1.1578986711770E+04
(PID.TID 0000.0001) %MON dynstat_theta_min            =   1.1578985871570E+04
(PID.TID 0000.0001) %MON dynstat_theta_mean           =   1.1578986295439E+04
(PID.TID 0000.0001) %MON dynstat_theta_sd             =   1.3373064328319E-04
(PID.TID 0000.0001) %MON dynstat_theta_del2           =   2.1618537614616E-06
(PID.TID 0000.0001) %MON dynstat_salt_max             =   0.0000000000000E+00
(PID.TID 0000.0001) %MON dynstat_salt_min             =   0.0000000000000E+00
(PID.TID 0000.0001) %MON dynstat_salt_mean            =   0.0000000000000E+00
(PID.TID 0000.0001) %MON dynstat_salt_sd              =   0.0000000000000E+00
(PID.TID 0000.0001) %MON dynstat_salt_del2            =   0.0000000000000E+00
(PID.TID 0000.0001) %MON trAdv_CFL_u_max              =   1.3853220754018E-07
(PID.TID 0000.0001) %MON trAdv_CFL_v_max              =   2.2923953333469E-06
(PID.TID 0000.0001) %MON trAdv_CFL_w_max              =   1.3433903435538E-05
(PID.TID 0000.0001) %MON advcfl_uvel_max              =   1.3825860770083E-07
(PID.TID 0000.0001) %MON advcfl_vvel_max              =   2.1332197987431E-06
(PID.TID 0000.0001) %MON advcfl_wvel_max              =   1.3446339844743E-05
(PID.TID 0000.0001) %MON advcfl_W_hf_max              =   1.3446339844743E-05
(PID.TID 0000.0001) %MON pe_b_mean                    =   1.3448192427487E-10
(PID.TID 0000.0001) %MON ke_max                       =   6.6803580866206E-07
(PID.TID 0000.0001) %MON ke_mean                      =   4.0149291638393E-08
(PID.TID 0000.0001) %MON ke_vol                       =   3.4820518350516E+19
(PID.TID 0000.0001) %MON vort_r_min                   =  -3.1585996129976E-09
(PID.TID 0000.0001) %MON vort_r_max                   =   2.3927016043214E-09
(PID.TID 0000.0001) %MON vort_a_mean                  =  -4.4877397814438E-20
(PID.TID 0000.0001) %MON vort_a_sd                    =   8.2567010678362E-05
(PID.TID 0000.0001) %MON vort_p_mean                  =  -4.4991685148127E-20
(PID.TID 0000.0001) %MON vort_p_sd                    =   8.3918502449937E-05
(PID.TID 0000.0001) %MON surfExpan_theta_mean         =  -4.8171744138292E-12
(PID.TID 0000.0001) %MON surfExpan_salt_mean          =   0.0000000000000E+00
(PID.TID 0000.0001) // =======================================================
(PID.TID 0000.0001) // End MONITOR dynamic field statistics
(PID.TID 0000.0001) // =======================================================
 cg2d: Sum(rhs),rhsMax =   3.97549569424727E-05  5.26508293417596E-01
(PID.TID 0000.0001)      cg2d_init_res =   4.02080194608686E-02
(PID.TID 0000.0001)      cg2d_iters(min,last) =      -1     101
(PID.TID 0000.0001)      cg2d_last_res =   6.77041531943745E-14
 cg3d: Sum(rhs),rhsMax =  -1.05536239469739E-14  3.14319380586437E-02
(PID.TID 0000.0001)      cg3d_init_res =   3.13850405182195E-01
(PID.TID 0000.0001)      cg3d_iters (last) =                 40
(PID.TID 0000.0001)      cg3d_last_res =   2.13989934648816E-04
(PID.TID 0000.0001) // =======================================================
(PID.TID 0000.0001) // Begin MONITOR dynamic field statistics
(PID.TID 0000.0001) // =======================================================
(PID.TID 0000.0001) %MON time_tsnumber                =                    15
(PID.TID 0000.0001) %MON time_secondsf                =   4.5000000000000E+03
(PID.TID 0000.0001) %MON dynstat_eta_max              =   2.2608584580419E-02
(PID.TID 0000.0001) %MON dynstat_eta_min              =  -1.8272997501868E-02
(PID.TID 0000.0001) %MON dynstat_eta_mean             =  -4.0646903239468E-06
(PID.TID 0000.0001) %MON dynstat_eta_sd               =   8.2410959184207E-03
(PID.TID 0000.0001) %MON dynstat_eta_del2             =   1.4611625165472E-03
(PID.TID 0000.0001) %MON dynstat_uvel_max             =   3.1204849993263E-04
(PID.TID 0000.0001) %MON dynstat_uvel_min             =  -2.9614713946760E-04
(PID.TID 0000.0001) %MON dynstat_uvel_mean            =  -3.1534480805167E-08
(PID.TID 0000.0001) %MON dynstat_uvel_sd              =   6.1683734804322E-05
(PID.TID 0000.0001) %MON dynstat_uvel_del2            =   6.8610739028536E-07
(PID.TID 0000.0001) %MON dynstat_vvel_max             =   8.1392789475422E-04
(PID.TID 0000.0001) %MON dynstat_vvel_min             =  -6.8168071000896E-04
(PID.TID 0000.0001) %MON dynstat_vvel_mean            =  -7.5696297583408E-08
(PID.TID 0000.0001) %MON dynstat_vvel_sd              =   1.4486287780854E-04
(PID.TID 0000.0001) %MON dynstat_vvel_del2            =   1.7018729733415E-06
(PID.TID 0000.0001) %MON dynstat_wvel_max             =   9.5431972500580E-04
(PID.TID 0000.0001) %MON dynstat_wvel_min             =  -1.1612411063092E-03
(PID.TID 0000.0001) %MON dynstat_wvel_mean            =  -3.8809490890890E-21
(PID.TID 0000.0001) %MON dynstat_wvel_sd              =   2.4814919013530E-04
(PID.TID 0000.0001) %MON dynstat_wvel_del2            =   3.6098187873336E-06
(PID.TID 0000.0001) %MON dynstat_theta_max            =   1.1578986704961E+04
(PID.TID 0000.0001) %MON dynstat_theta_min            =   1.1578985877456E+04
(PID.TID 0000.0001) %MON dynstat_theta_mean           =   1.1578986295439E+04
(PID.TID 0000.0001) %MON dynstat_theta_sd             =   1.3013193783926E-04
(PID.TID 0000.0001) %MON dynstat_theta_del2           =   2.0892161885674E-06
(PID.TID 0000.0001) %MON dynstat_salt_max             =   0.0000000000000E+00
(PID.TID 0000.0001) %MON dynstat_salt_min             =   0.0000000000000E+00
(PID.TID 0000.0001) %MON dynstat_salt_mean            =   0.0000000000000E+00
(PID.TID 0000.0001) %MON dynstat_salt_sd              =   0.0000000000000E+00
(PID.TID 0000.0001) %MON dynstat_salt_del2            =   0.0000000000000E+00
(PID.TID 0000.0001) %MON trAdv_CFL_u_max              =   1.5447122315799E-07
(PID.TID 0000.0001) %MON trAdv_CFL_v_max              =   2.3364679091906E-06
(PID.TID 0000.0001) %MON trAdv_CFL_w_max              =   1.3922005007452E-05
(PID.TID 0000.0001) %MON advcfl_uvel_max              =   1.5416614390897E-07
(PID.TID 0000.0001) %MON advcfl_vvel_max              =   2.1962935571767E-06
(PID.TID 0000.0001) %MON advcfl_wvel_max              =   1.3934893275710E-05
(PID.TID 0000.0001) %MON advcfl_W_hf_max              =   1.3934893275710E-05
(PID.TID 0000.0001) %MON pe_b_mean                    =   1.3301684042795E-10
(PID.TID 0000.0001) %MON ke_max                       =   7.2277363094297E-07
(PID.TID 0000.0001) %MON ke_mean                      =   4.3081506138828E-08
(PID.TID 0000.0001) %MON ke_vol                       =   3.4820518350516E+19
(PID.TID 0000.0001) %MON vort_r_min                   =  -3.4693458759728E-09
(PID.TID 0000.0001) %MON vort_r_max                   =   2.6017128791749E-09
(PID.TID 0000.0001) %MON vort_a_mean                  =   4.7869224335401E-20
(PID.TID 0000.0001) %MON vort_a_sd                    =   8.2567010677064E-05
(PID.TID 0000.0001) %MON vort_p_mean                  =   4.7991130824669E-20
(PID.TID 0000.0001) %MON vort_p_sd                    =   8.3918502561514E-05
(PID.TID 0000.0001) %MON surfExpan_theta_mean         =  -4.5963867259375E-12
(PID.TID 0000.0001) %MON surfExpan_salt_mean          =   0.0000000000000E+00
(PID.TID 0000.0001) // =======================================================
(PID.TID 0000.0001) // End MONITOR dynamic field statistics
(PID.TID 0000.0001) // =======================================================
 cg2d: Sum(rhs),rhsMax =   4.18511518143483E-05  5.20303647658933E-01
(PID.TID 0000.0001)      cg2d_init_res =   4.01510892038859E-02
(PID.TID 0000.0001)      cg2d_iters(min,last) =      -1     101
(PID.TID 0000.0001)      cg2d_last_res =   6.85020910622402E-14
 cg3d: Sum(rhs),rhsMax =  -3.51634953793534E-14  3.10945228948500E-02
(PID.TID 0000.0001)      cg3d_init_res =   3.10854338113934E-01
(PID.TID 0000.0001)      cg3d_iters (last) =                 40
(PID.TID 0000.0001)      cg3d_last_res =   2.07168085291738E-04
(PID.TID 0000.0001) // =======================================================
(PID.TID 0000.0001) // Begin MONITOR dynamic field statistics
(PID.TID 0000.0001) // =======================================================
(PID.TID 0000.0001) %MON time_tsnumber                =                    16
(PID.TID 0000.0001) %MON time_secondsf                =   4.8000000000000E+03
(PID.TID 0000.0001) %MON dynstat_eta_max              =   2.2515741708912E-02
(PID.TID 0000.0001) %MON dynstat_eta_min              =  -1.8171174152611E-02
(PID.TID 0000.0001) %MON dynstat_eta_mean             =  -4.2285867572067E-06
(PID.TID 0000.0001) %MON dynstat_eta_sd               =   8.1957410225937E-03
(PID.TID 0000.0001) %MON dynstat_eta_del2             =   1.4458624186809E-03
(PID.TID 0000.0001) %MON dynstat_uvel_max             =   3.4234660871140E-04
(PID.TID 0000.0001) %MON dynstat_uvel_min             =  -3.2376827919845E-04
(PID.TID 0000.0001) %MON dynstat_uvel_mean            =  -3.5664809751488E-08
(PID.TID 0000.0001) %MON dynstat_uvel_sd              =   6.7572630724685E-05
(PID.TID 0000.0001) %MON dynstat_uvel_del2            =   7.2861330990565E-07
(PID.TID 0000.0001) %MON dynstat_vvel_max             =   8.3543459361401E-04
(PID.TID 0000.0001) %MON dynstat_vvel_min             =  -7.0312794096937E-04
(PID.TID 0000.0001) %MON dynstat_vvel_mean            =  -1.1435045061334E-07
(PID.TID 0000.0001) %MON dynstat_vvel_sd              =   1.4912234218563E-04
(PID.TID 0000.0001) %MON dynstat_vvel_del2            =   1.7076979893408E-06
(PID.TID 0000.0001) %MON dynstat_wvel_max             =   9.8165333067141E-04
(PID.TID 0000.0001) %MON dynstat_wvel_min             =  -1.1985735177661E-03
(PID.TID 0000.0001) %MON dynstat_wvel_mean            =   9.0555478745410E-21
(PID.TID 0000.0001) %MON dynstat_wvel_sd              =   2.5552743779686E-04
(PID.TID 0000.0001) %MON dynstat_wvel_del2            =   3.6489489658530E-06
(PID.TID 0000.0001) %MON dynstat_theta_max            =   1.1578986698177E+04
(PID.TID 0000.0001) %MON dynstat_theta_min            =   1.1578985883353E+04
(PID.TID 0000.0001) %MON dynstat_theta_mean           =   1.1578986295439E+04
(PID.TID 0000.0001) %MON dynstat_theta_sd             =   1.2683884992973E-04
(PID.TID 0000.0001) %MON dynstat_theta_del2           =   2.0222549864547E-06
(PID.TID 0000.0001) %MON dynstat_salt_max             =   0.0000000000000E+00
(PID.TID 0000.0001) %MON dynstat_salt_min             =   0.0000000000000E+00
(PID.TID 0000.0001) %MON dynstat_salt_mean            =   0.0000000000000E+00
(PID.TID 0000.0001) %MON dynstat_salt_sd              =   0.0000000000000E+00
(PID.TID 0000.0001) %MON dynstat_salt_del2            =   0.0000000000000E+00
(PID.TID 0000.0001) %MON trAdv_CFL_u_max              =   1.7082280649545E-07
(PID.TID 0000.0001) %MON trAdv_CFL_v_max              =   2.3739133724594E-06
(PID.TID 0000.0001) %MON trAdv_CFL_w_max              =   1.4369579603649E-05
(PID.TID 0000.0001) %MON advcfl_uvel_max              =   1.7048543301932E-07
(PID.TID 0000.0001) %MON advcfl_vvel_max              =   2.2543269830444E-06
(PID.TID 0000.0001) %MON advcfl_wvel_max              =   1.4382882213193E-05
(PID.TID 0000.0001) %MON advcfl_W_hf_max              =   1.4382882213193E-05
(PID.TID 0000.0001) %MON pe_b_mean                    =   1.3155675518029E-10
(PID.TID 0000.0001) %MON ke_max                       =   7.7605598551825E-07
(PID.TID 0000.0001) %MON ke_mean                      =   4.5940159003068E-08
(PID.TID 0000.0001) %MON ke_vol                       =   3.4820518350516E+19
(PID.TID 0000.0001) %MON vort_r_min                   =  -3.7796384316295E-09
(PID.TID 0000.0001) %MON vort_r_max                   =   2.8066561504159E-09
(PID.TID 0000.0001) %MON vort_a_mean                  =  -8.0779316065989E-20
(PID.TID 0000.0001) %MON vort_a_sd                    =   8.2567010675751E-05
(PID.TID 0000.0001) %MON vort_p_mean                  =  -8.0985033266629E-20
(PID.TID 0000.0001) %MON vort_p_sd                    =   8.3918502677144E-05
(PID.TID 0000.0001) %MON surfExpan_theta_mean         =  -5.0616572822790E-12
(PID.TID 0000.0001) %MON surfExpan_salt_mean          =   0.0000000000000E+00
(PID.TID 0000.0001) // =======================================================
(PID.TID 0000.0001) // End MONITOR dynamic field statistics
(PID.TID 0000.0001) // =======================================================
 cg2d: Sum(rhs),rhsMax =   4.46508349451202E-05  5.14185745160659E-01
(PID.TID 0000.0001)      cg2d_init_res =   4.00949376049789E-02
(PID.TID 0000.0001)      cg2d_iters(min,last) =      -1     101
(PID.TID 0000.0001)      cg2d_last_res =   6.93155902389614E-14
 cg3d: Sum(rhs),rhsMax =   3.01217384368613E-14  3.07629614860109E-02
(PID.TID 0000.0001)      cg3d_init_res =   3.07964652254168E-01
(PID.TID 0000.0001)      cg3d_iters (last) =                 40
(PID.TID 0000.0001)      cg3d_last_res =   1.90583962480725E-04
(PID.TID 0000.0001) // =======================================================
(PID.TID 0000.0001) // Begin MONITOR dynamic field statistics
(PID.TID 0000.0001) // =======================================================
(PID.TID 0000.0001) %MON time_tsnumber                =                    17
(PID.TID 0000.0001) %MON time_secondsf                =   5.1000000000000E+03
(PID.TID 0000.0001) %MON dynstat_eta_max              =   2.2415351086228E-02
(PID.TID 0000.0001) %MON dynstat_eta_min              =  -1.8071637842859E-02
(PID.TID 0000.0001) %MON dynstat_eta_mean             =  -4.4584158765986E-06
(PID.TID 0000.0001) %MON dynstat_eta_sd               =   8.1503918344153E-03
(PID.TID 0000.0001) %MON dynstat_eta_del2             =   1.4307644306480E-03
(PID.TID 0000.0001) %MON dynstat_uvel_max             =   3.7285180353352E-04
(PID.TID 0000.0001) %MON dynstat_uvel_min             =  -3.5144913935498E-04
(PID.TID 0000.0001) %MON dynstat_uvel_mean            =  -3.8856184710481E-08
(PID.TID 0000.0001) %MON dynstat_uvel_sd              =   7.3548489657448E-05
(PID.TID 0000.0001) %MON dynstat_uvel_del2            =   7.6910131030686E-07
(PID.TID 0000.0001) %MON dynstat_vvel_max             =   8.5527604660337E-04
(PID.TID 0000.0001) %MON dynstat_vvel_min             =  -7.2315995843253E-04
(PID.TID 0000.0001) %MON dynstat_vvel_mean            =  -1.5585579709884E-07
(PID.TID 0000.0001) %MON dynstat_vvel_sd              =   1.5311467917964E-04
(PID.TID 0000.0001) %MON dynstat_vvel_del2            =   1.7102487488606E-06
(PID.TID 0000.0001) %MON dynstat_wvel_max             =   1.0062481038325E-03
(PID.TID 0000.0001) %MON dynstat_wvel_min             =  -1.2327156862461E-03
(PID.TID 0000.0001) %MON dynstat_wvel_mean            =  -4.8371249516182E-21
(PID.TID 0000.0001) %MON dynstat_wvel_sd              =   2.6234834184131E-04
(PID.TID 0000.0001) %MON dynstat_wvel_del2            =   3.6791036381851E-06
(PID.TID 0000.0001) %MON dynstat_theta_max            =   1.1578986691437E+04
(PID.TID 0000.0001) %MON dynstat_theta_min            =   1.1578985889246E+04
(PID.TID 0000.0001) %MON dynstat_theta_mean           =   1.1578986295439E+04
(PID.TID 0000.0001) %MON dynstat_theta_sd             =   1.2380788514069E-04
(PID.TID 0000.0001) %MON dynstat_theta_del2           =   1.9601955698330E-06
(PID.TID 0000.0001) %MON dynstat_salt_max             =   0.0000000000000E+00
(PID.TID 0000.0001) %MON dynstat_salt_min             =   0.0000000000000E+00
(PID.TID 0000.0001) %MON dynstat_salt_mean            =   0.0000000000000E+00
(PID.TID 0000.0001) %MON dynstat_salt_sd              =   0.0000000000000E+00
(PID.TID 0000.0001) %MON dynstat_salt_del2            =   0.0000000000000E+00
(PID.TID 0000.0001) %MON trAdv_CFL_u_max              =   1.8754331960022E-07
(PID.TID 0000.0001) %MON trAdv_CFL_v_max              =   2.4054739619854E-06
(PID.TID 0000.0001) %MON trAdv_CFL_w_max              =   1.4778906691677E-05
(PID.TID 0000.0001) %MON advcfl_uvel_max              =   1.8717292326405E-07
(PID.TID 0000.0001) %MON advcfl_vvel_max              =   2.3078669288387E-06
(PID.TID 0000.0001) %MON advcfl_wvel_max              =   1.4792588234953E-05
(PID.TID 0000.0001) %MON advcfl_W_hf_max              =   1.4792588234953E-05
(PID.TID 0000.0001) %MON pe_b_mean                    =   1.3010491117447E-10
(PID.TID 0000.0001) %MON ke_max                       =   8.2773252723775E-07
(PID.TID 0000.0001) %MON ke_mean                      =   4.8725448572857E-08
(PID.TID 0000.0001) %MON ke_vol                       =   3.4820518350516E+19
(PID.TID 0000.0001) %MON vort_r_min                   =  -4.0883683032399E-09
(PID.TID 0000.0001) %MON vort_r_max                   =   3.0068826035477E-09
(PID.TID 0000.0001) %MON vort_a_mean                  =  -5.6844703898288E-20
(PID.TID 0000.0001) %MON vort_a_sd                    =   8.2567010674636E-05
(PID.TID 0000.0001) %MON vort_p_mean                  =  -5.6989467854295E-20
(PID.TID 0000.0001) %MON vort_p_sd                    =   8.3918502796688E-05
(PID.TID 0000.0001) %MON surfExpan_theta_mean         =  -5.8651345530938E-12
(PID.TID 0000.0001) %MON surfExpan_salt_mean          =   0.0000000000000E+00
(PID.TID 0000.0001) // =======================================================
(PID.TID 0000.0001) // End MONITOR dynamic field statistics
(PID.TID 0000.0001) // =======================================================
 cg2d: Sum(rhs),rhsMax =   4.76976688623676E-05  5.08153378003355E-01
(PID.TID 0000.0001)      cg2d_init_res =   4.00398464069164E-02
(PID.TID 0000.0001)      cg2d_iters(min,last) =      -1     101
(PID.TID 0000.0001)      cg2d_last_res =   7.01458979193731E-14
 cg3d: Sum(rhs),rhsMax =   3.53849111470184E-13  3.04369080141049E-02
(PID.TID 0000.0001)      cg3d_init_res =   3.05157472843424E-01
(PID.TID 0000.0001)      cg3d_iters (last) =                 40
(PID.TID 0000.0001)      cg3d_last_res =   1.51869619970595E-04
(PID.TID 0000.0001) // =======================================================
(PID.TID 0000.0001) // Begin MONITOR dynamic field statistics
(PID.TID 0000.0001) // =======================================================
(PID.TID 0000.0001) %MON time_tsnumber                =                    18
(PID.TID 0000.0001) %MON time_secondsf                =   5.4000000000000E+03
(PID.TID 0000.0001) %MON dynstat_eta_max              =   2.2308570106578E-02
(PID.TID 0000.0001) %MON dynstat_eta_min              =  -1.7983345476524E-02
(PID.TID 0000.0001) %MON dynstat_eta_mean             =  -4.7067695038556E-06
(PID.TID 0000.0001) %MON dynstat_eta_sd               =   8.1051266813812E-03
(PID.TID 0000.0001) %MON dynstat_eta_del2             =   1.4158650507062E-03
(PID.TID 0000.0001) %MON dynstat_uvel_max             =   4.0346033233887E-04
(PID.TID 0000.0001) %MON dynstat_uvel_min             =  -3.7910659345740E-04
(PID.TID 0000.0001) %MON dynstat_uvel_mean            =  -4.0522478446244E-08
(PID.TID 0000.0001) %MON dynstat_uvel_sd              =   7.9600191449940E-05
(PID.TID 0000.0001) %MON dynstat_uvel_del2            =   8.0759590261348E-07
(PID.TID 0000.0001) %MON dynstat_vvel_max             =   8.7362590861569E-04
(PID.TID 0000.0001) %MON dynstat_vvel_min             =  -7.4187972473848E-04
(PID.TID 0000.0001) %MON dynstat_vvel_mean            =  -1.9551467410676E-07
(PID.TID 0000.0001) %MON dynstat_vvel_sd              =   1.5686064884075E-04
(PID.TID 0000.0001) %MON dynstat_vvel_del2            =   1.7100156837206E-06
(PID.TID 0000.0001) %MON dynstat_wvel_max             =   1.0335330894132E-03
(PID.TID 0000.0001) %MON dynstat_wvel_min             =  -1.2638422745207E-03
(PID.TID 0000.0001) %MON dynstat_wvel_mean            =  -4.4996511177844E-21
(PID.TID 0000.0001) %MON dynstat_wvel_sd              =   2.6865432600684E-04
(PID.TID 0000.0001) %MON dynstat_wvel_del2            =   3.7014140069775E-06
(PID.TID 0000.0001) %MON dynstat_theta_max            =   1.1578986684757E+04
(PID.TID 0000.0001) %MON dynstat_theta_min            =   1.1578985895121E+04
(PID.TID 0000.0001) %MON dynstat_theta_mean           =   1.1578986295439E+04
(PID.TID 0000.0001) %MON dynstat_theta_sd             =   1.2100339733362E-04
(PID.TID 0000.0001) %MON dynstat_theta_del2           =   1.9024020597921E-06
(PID.TID 0000.0001) %MON dynstat_salt_max             =   0.0000000000000E+00
(PID.TID 0000.0001) %MON dynstat_salt_min             =   0.0000000000000E+00
(PID.TID 0000.0001) %MON dynstat_salt_mean            =   0.0000000000000E+00
(PID.TID 0000.0001) %MON dynstat_salt_sd              =   0.0000000000000E+00
(PID.TID 0000.0001) %MON dynstat_salt_del2            =   0.0000000000000E+00
(PID.TID 0000.0001) %MON trAdv_CFL_u_max              =   2.0459216018773E-07
(PID.TID 0000.0001) %MON trAdv_CFL_v_max              =   2.4317937039119E-06
(PID.TID 0000.0001) %MON trAdv_CFL_w_max              =   1.5152080286264E-05
(PID.TID 0000.0001) %MON advcfl_uvel_max              =   2.0418809254776E-07
(PID.TID 0000.0001) %MON advcfl_vvel_max              =   2.3573819829024E-06
(PID.TID 0000.0001) %MON advcfl_wvel_max              =   1.5166107294248E-05
(PID.TID 0000.0001) %MON advcfl_W_hf_max              =   1.5166107294248E-05
(PID.TID 0000.0001) %MON pe_b_mean                    =   1.2866379145510E-10
(PID.TID 0000.0001) %MON ke_max                       =   8.7768042828262E-07
(PID.TID 0000.0001) %MON ke_mean                      =   5.1438096454918E-08
(PID.TID 0000.0001) %MON ke_vol                       =   3.4820518350516E+19
(PID.TID 0000.0001) %MON vort_r_min                   =  -4.3945651540704E-09
(PID.TID 0000.0001) %MON vort_r_max                   =   3.2018688748167E-09
(PID.TID 0000.0001) %MON vort_a_mean                  =  -1.6455045865294E-19
(PID.TID 0000.0001) %MON vort_a_sd                    =   8.2567010673835E-05
(PID.TID 0000.0001) %MON vort_p_mean                  =  -1.6496951220980E-19
(PID.TID 0000.0001) %MON vort_p_sd                    =   8.3918502919991E-05
(PID.TID 0000.0001) %MON surfExpan_theta_mean         =  -6.7719096306913E-12
(PID.TID 0000.0001) %MON surfExpan_salt_mean          =   0.0000000000000E+00
(PID.TID 0000.0001) // =======================================================
(PID.TID 0000.0001) // End MONITOR dynamic field statistics
(PID.TID 0000.0001) // =======================================================
 Compute Stats, Diag. #    23 "ETAN    " (list#  1) Parms "SM      M1      ", vol(  0 )= 8.342E+13
 Compute Stats, Diag. #    30 "UVEL    " (list#  1) Parms "UUR     MR      ", vol(  0 )= 2.503E+20
 Compute Stats, Diag. #    31 "VVEL    " (list#  1) Parms "VVR     MR      ", vol(  0 )= 2.498E+20
 Compute Stats, Diag. #    32 "WVEL    " (list#  1) Parms "WM      LR      ", vol(  0 )= 2.492E+20
 Compute Stats, Diag. #    26 "THETA   " (list#  1) Parms "SMR     MR      ", vol(  0 )= 2.503E+20
 Compute Stats, Diag. #   181 "Wm_Metr " (list#  1) Parms "WMr     LR      ", vol(  0 )= 2.482E+20
(PID.TID 0000.0001) DIAGSTATS_CLOSE_IO: close file: dynStDiag.0000000000.txt , unit=     9
(PID.TID 0000.0001) %CHECKPOINT        18 ckptA
(PID.TID 0000.0001)   Seconds in section "ALL                    [THE_MODEL_MAIN]":
(PID.TID 0000.0001)           User time:   17.540426254272461
(PID.TID 0000.0001)         System time:   6.1810002662241459E-002
(PID.TID 0000.0001)     Wall clock time:   17.603883028030396
(PID.TID 0000.0001)          No. starts:           1
(PID.TID 0000.0001)           No. stops:           1
(PID.TID 0000.0001)   Seconds in section "INITIALISE_FIXED       [THE_MODEL_MAIN]":
(PID.TID 0000.0001)           User time:  0.12756499648094177
(PID.TID 0000.0001)         System time:   1.3729000464081764E-002
(PID.TID 0000.0001)     Wall clock time:  0.14141416549682617
(PID.TID 0000.0001)          No. starts:           1
(PID.TID 0000.0001)           No. stops:           1
(PID.TID 0000.0001)   Seconds in section "THE_MAIN_LOOP          [THE_MODEL_MAIN]":
(PID.TID 0000.0001)           User time:   17.412831187248230
(PID.TID 0000.0001)         System time:   4.8044003546237946E-002
(PID.TID 0000.0001)     Wall clock time:   17.462416887283325
(PID.TID 0000.0001)          No. starts:           1
(PID.TID 0000.0001)           No. stops:           1
(PID.TID 0000.0001)   Seconds in section "INITIALISE_VARIA    [THE_MAIN_LOOP]":
(PID.TID 0000.0001)           User time:   9.8352000117301941E-002
(PID.TID 0000.0001)         System time:   2.3690002039074898E-002
(PID.TID 0000.0001)     Wall clock time:  0.12207698822021484
(PID.TID 0000.0001)          No. starts:           1
(PID.TID 0000.0001)           No. stops:           1
(PID.TID 0000.0001)   Seconds in section "MAIN LOOP           [THE_MAIN_LOOP]":
(PID.TID 0000.0001)           User time:   17.314440101385117
(PID.TID 0000.0001)         System time:   2.4351004511117935E-002
(PID.TID 0000.0001)     Wall clock time:   17.340301036834717
(PID.TID 0000.0001)          No. starts:           1
(PID.TID 0000.0001)           No. stops:           1
(PID.TID 0000.0001)   Seconds in section "MAIN_DO_LOOP        [THE_MAIN_LOOP]":
(PID.TID 0000.0001)           User time:   17.314260333776474
(PID.TID 0000.0001)         System time:   2.4350002408027649E-002
(PID.TID 0000.0001)     Wall clock time:   17.340133666992188
(PID.TID 0000.0001)          No. starts:          18
(PID.TID 0000.0001)           No. stops:          18
(PID.TID 0000.0001)   Seconds in section "FORWARD_STEP        [MAIN_DO_LOOP]":
(PID.TID 0000.0001)           User time:   17.313905388116837
(PID.TID 0000.0001)         System time:   2.4346005171537399E-002
(PID.TID 0000.0001)     Wall clock time:   17.339768171310425
(PID.TID 0000.0001)          No. starts:          18
(PID.TID 0000.0001)           No. stops:          18
(PID.TID 0000.0001)   Seconds in section "DO_STATEVARS_DIAGS  [FORWARD_STEP]":
(PID.TID 0000.0001)           User time:  0.11695519089698792
(PID.TID 0000.0001)         System time:   2.2400170564651489E-004
(PID.TID 0000.0001)     Wall clock time:  0.11722683906555176
(PID.TID 0000.0001)          No. starts:          54
(PID.TID 0000.0001)           No. stops:          54
(PID.TID 0000.0001)   Seconds in section "LOAD_FIELDS_DRIVER  [FORWARD_STEP]":
(PID.TID 0000.0001)           User time:   4.8403441905975342E-004
(PID.TID 0000.0001)         System time:   8.0019235610961914E-006
(PID.TID 0000.0001)     Wall clock time:   4.9710273742675781E-004
(PID.TID 0000.0001)          No. starts:          18
(PID.TID 0000.0001)           No. stops:          18
(PID.TID 0000.0001)   Seconds in section "EXTERNAL_FLDS_LOAD [LOAD_FLDS_DRIVER]":
(PID.TID 0000.0001)           User time:   1.8057227134704590E-004
(PID.TID 0000.0001)         System time:   4.9993395805358887E-006
(PID.TID 0000.0001)     Wall clock time:   1.7571449279785156E-004
(PID.TID 0000.0001)          No. starts:          18
(PID.TID 0000.0001)           No. stops:          18
(PID.TID 0000.0001)   Seconds in section "DO_ATMOSPHERIC_PHYS [FORWARD_STEP]":
(PID.TID 0000.0001)           User time:   1.5188753604888916E-004
(PID.TID 0000.0001)         System time:   9.9837779998779297E-007
(PID.TID 0000.0001)     Wall clock time:   1.6641616821289062E-004
(PID.TID 0000.0001)          No. starts:          18
(PID.TID 0000.0001)           No. stops:          18
(PID.TID 0000.0001)   Seconds in section "DO_OCEANIC_PHYS     [FORWARD_STEP]":
(PID.TID 0000.0001)           User time:  0.28566463291645050
(PID.TID 0000.0001)         System time:   0.0000000000000000
(PID.TID 0000.0001)     Wall clock time:  0.28571224212646484
(PID.TID 0000.0001)          No. starts:          18
(PID.TID 0000.0001)           No. stops:          18
(PID.TID 0000.0001)   Seconds in section "DYNAMICS            [FORWARD_STEP]":
(PID.TID 0000.0001)           User time:   4.3906513452529907
(PID.TID 0000.0001)         System time:   4.2090043425559998E-003
(PID.TID 0000.0001)     Wall clock time:   4.3953320980072021
(PID.TID 0000.0001)          No. starts:          18
(PID.TID 0000.0001)           No. stops:          18
(PID.TID 0000.0001)   Seconds in section "CALC_GW          [DYNAMICS]":
(PID.TID 0000.0001)           User time:   1.0858089029788971
(PID.TID 0000.0001)         System time:   4.4100359082221985E-004
(PID.TID 0000.0001)     Wall clock time:   1.0865180492401123
(PID.TID 0000.0001)          No. starts:          72
(PID.TID 0000.0001)           No. stops:          72
(PID.TID 0000.0001)   Seconds in section "SOLVE_FOR_PRESSURE  [FORWARD_STEP]":
(PID.TID 0000.0001)           User time:   9.2720532417297363
(PID.TID 0000.0001)         System time:   0.0000000000000000
(PID.TID 0000.0001)     Wall clock time:   9.2728669643402100
(PID.TID 0000.0001)          No. starts:          18
(PID.TID 0000.0001)           No. stops:          18
(PID.TID 0000.0001)   Seconds in section "CG3D   [SOLVE_FOR_PRESSURE]":
(PID.TID 0000.0001)           User time:   8.9867210090160370
(PID.TID 0000.0001)         System time:   0.0000000000000000
(PID.TID 0000.0001)     Wall clock time:   8.9875175952911377
(PID.TID 0000.0001)          No. starts:          18
(PID.TID 0000.0001)           No. stops:          18
(PID.TID 0000.0001)   Seconds in section "MOM_CORRECTION_STEP [FORWARD_STEP]":
(PID.TID 0000.0001)           User time:  0.19346714019775391
(PID.TID 0000.0001)         System time:   0.0000000000000000
(PID.TID 0000.0001)     Wall clock time:  0.19350194931030273
(PID.TID 0000.0001)          No. starts:          18
(PID.TID 0000.0001)           No. stops:          18
(PID.TID 0000.0001)   Seconds in section "INTEGR_CONTINUITY   [FORWARD_STEP]":
(PID.TID 0000.0001)           User time:   8.2099378108978271E-002
(PID.TID 0000.0001)         System time:   9.9837779998779297E-007
(PID.TID 0000.0001)     Wall clock time:   8.2139253616333008E-002
(PID.TID 0000.0001)          No. starts:          18
(PID.TID 0000.0001)           No. stops:          18
(PID.TID 0000.0001)   Seconds in section "BLOCKING_EXCHANGES  [FORWARD_STEP]":
(PID.TID 0000.0001)           User time:  0.32205581665039062
(PID.TID 0000.0001)         System time:   0.0000000000000000
(PID.TID 0000.0001)     Wall clock time:  0.32220196723937988
(PID.TID 0000.0001)          No. starts:          36
(PID.TID 0000.0001)           No. stops:          36
(PID.TID 0000.0001)   Seconds in section "THERMODYNAMICS      [FORWARD_STEP]":
(PID.TID 0000.0001)           User time:   2.1251988410949707
(PID.TID 0000.0001)         System time:   3.9059966802597046E-003
(PID.TID 0000.0001)     Wall clock time:   2.1293132305145264
(PID.TID 0000.0001)          No. starts:          18
(PID.TID 0000.0001)           No. stops:          18
(PID.TID 0000.0001)   Seconds in section "TRC_CORRECTION_STEP [FORWARD_STEP]":
(PID.TID 0000.0001)           User time:   1.9454956054687500E-004
(PID.TID 0000.0001)         System time:   0.0000000000000000
(PID.TID 0000.0001)     Wall clock time:   1.9168853759765625E-004
(PID.TID 0000.0001)          No. starts:          18
(PID.TID 0000.0001)           No. stops:          18
(PID.TID 0000.0001)   Seconds in section "MONITOR             [FORWARD_STEP]":
(PID.TID 0000.0001)           User time:  0.50108873844146729
(PID.TID 0000.0001)         System time:   3.9970017969608307E-003
(PID.TID 0000.0001)     Wall clock time:  0.50513863563537598
(PID.TID 0000.0001)          No. starts:          18
(PID.TID 0000.0001)           No. stops:          18
(PID.TID 0000.0001)   Seconds in section "DO_THE_MODEL_IO     [FORWARD_STEP]":
(PID.TID 0000.0001)           User time:   1.8829345703125000E-002
(PID.TID 0000.0001)         System time:   3.9980001747608185E-003
(PID.TID 0000.0001)     Wall clock time:   2.2842884063720703E-002
(PID.TID 0000.0001)          No. starts:          18
(PID.TID 0000.0001)           No. stops:          18
(PID.TID 0000.0001)   Seconds in section "DO_WRITE_PICKUP     [FORWARD_STEP]":
(PID.TID 0000.0001)           User time:   1.7553567886352539E-003
(PID.TID 0000.0001)         System time:   7.9920031130313873E-003
(PID.TID 0000.0001)     Wall clock time:   9.7420215606689453E-003
(PID.TID 0000.0001)          No. starts:          18
(PID.TID 0000.0001)           No. stops:          18
(PID.TID 0000.0001) // ======================================================
(PID.TID 0000.0001) // Tile <-> Tile communication statistics
(PID.TID 0000.0001) // ======================================================
(PID.TID 0000.0001) // o Tile number: 000001
(PID.TID 0000.0001) //         No. X exchanges =              0
(PID.TID 0000.0001) //            Max. X spins =              0
(PID.TID 0000.0001) //            Min. X spins =     1000000000
(PID.TID 0000.0001) //          Total. X spins =              0
(PID.TID 0000.0001) //            Avg. X spins =       0.00E+00
(PID.TID 0000.0001) //         No. Y exchanges =              0
(PID.TID 0000.0001) //            Max. Y spins =              0
(PID.TID 0000.0001) //            Min. Y spins =     1000000000
(PID.TID 0000.0001) //          Total. Y spins =              0
(PID.TID 0000.0001) //            Avg. Y spins =       0.00E+00
(PID.TID 0000.0001) // o Tile number: 000002
(PID.TID 0000.0001) //         No. X exchanges =              0
(PID.TID 0000.0001) //            Max. X spins =              0
(PID.TID 0000.0001) //            Min. X spins =     1000000000
(PID.TID 0000.0001) //          Total. X spins =              0
(PID.TID 0000.0001) //            Avg. X spins =       0.00E+00
(PID.TID 0000.0001) //         No. Y exchanges =              0
(PID.TID 0000.0001) //            Max. Y spins =              0
(PID.TID 0000.0001) //            Min. Y spins =     1000000000
(PID.TID 0000.0001) //          Total. Y spins =              0
(PID.TID 0000.0001) //            Avg. Y spins =       0.00E+00
(PID.TID 0000.0001) // o Tile number: 000003
(PID.TID 0000.0001) //         No. X exchanges =              0
(PID.TID 0000.0001) //            Max. X spins =              0
(PID.TID 0000.0001) //            Min. X spins =     1000000000
(PID.TID 0000.0001) //          Total. X spins =              0
(PID.TID 0000.0001) //            Avg. X spins =       0.00E+00
(PID.TID 0000.0001) //         No. Y exchanges =              0
(PID.TID 0000.0001) //            Max. Y spins =              0
(PID.TID 0000.0001) //            Min. Y spins =     1000000000
(PID.TID 0000.0001) //          Total. Y spins =              0
(PID.TID 0000.0001) //            Avg. Y spins =       0.00E+00
(PID.TID 0000.0001) // o Tile number: 000004
(PID.TID 0000.0001) //         No. X exchanges =              0
(PID.TID 0000.0001) //            Max. X spins =              0
(PID.TID 0000.0001) //            Min. X spins =     1000000000
(PID.TID 0000.0001) //          Total. X spins =              0
(PID.TID 0000.0001) //            Avg. X spins =       0.00E+00
(PID.TID 0000.0001) //         No. Y exchanges =              0
(PID.TID 0000.0001) //            Max. Y spins =              0
(PID.TID 0000.0001) //            Min. Y spins =     1000000000
(PID.TID 0000.0001) //          Total. Y spins =              0
(PID.TID 0000.0001) //            Avg. Y spins =       0.00E+00
(PID.TID 0000.0001) // o Thread number: 000001
(PID.TID 0000.0001) //            No. barriers =          36702
(PID.TID 0000.0001) //      Max. barrier spins =              1
(PID.TID 0000.0001) //      Min. barrier spins =              1
(PID.TID 0000.0001) //     Total barrier spins =          36702
(PID.TID 0000.0001) //      Avg. barrier spins =       1.00E+00
PROGRAM MAIN: Execution ended Normally
