(PID.TID 0000.0001) 
(PID.TID 0000.0001) // ======================================================
(PID.TID 0000.0001) //                      MITgcm UV
(PID.TID 0000.0001) //                      =========
(PID.TID 0000.0001) // ======================================================
(PID.TID 0000.0001) // execution environment starting up...
(PID.TID 0000.0001) 
(PID.TID 0000.0001) // MITgcmUV version:  checkpoint58r_post
(PID.TID 0000.0001) // Build user:        jmc
(PID.TID 0000.0001) // Build host:        faulks
(PID.TID 0000.0001) // Build date:        Tue Dec  5 19:28:47 EST 2006
(PID.TID 0000.0001) 
(PID.TID 0000.0001) // =======================================================
(PID.TID 0000.0001) // Execution Environment parameter file "eedata"
(PID.TID 0000.0001) // =======================================================
(PID.TID 0000.0001) ># Example "eedata" file
(PID.TID 0000.0001) ># Lines beginning "#" are comments
(PID.TID 0000.0001) ># nTx - No. threads per process in X
(PID.TID 0000.0001) ># nTy - No. threads per process in Y
(PID.TID 0000.0001) > &EEPARMS
(PID.TID 0000.0001) > &
(PID.TID 0000.0001) ># Note: Some systems use & as the
(PID.TID 0000.0001) ># namelist terminator. Other systems
(PID.TID 0000.0001) ># use a / character (as shown here).
(PID.TID 0000.0001) 
(PID.TID 0000.0001) // =======================================================
(PID.TID 0000.0001) // Computational Grid Specification ( see files "SIZE.h" )
(PID.TID 0000.0001) //                                  ( and "eedata"       )
(PID.TID 0000.0001) // =======================================================
(PID.TID 0000.0001)      nPx =    1 ; /* No. processes in X */
(PID.TID 0000.0001)      nPy =    1 ; /* No. processes in Y */
(PID.TID 0000.0001)      nSx =    1 ; /* No. tiles in X per process */
(PID.TID 0000.0001)      nSy =    4 ; /* No. tiles in Y per process */
(PID.TID 0000.0001)      sNx =    1 ; /* Tile size in X */
(PID.TID 0000.0001)      sNy =   40 ; /* Tile size in Y */
(PID.TID 0000.0001)      OLx =    2 ; /* Tile overlap distance in X */
(PID.TID 0000.0001)      OLy =    2 ; /* Tile overlap distance in Y */
(PID.TID 0000.0001)      nTx =    1 ; /* No. threads in X per process */
(PID.TID 0000.0001)      nTy =    1 ; /* No. threads in Y per process */
(PID.TID 0000.0001)       Nr =  120 ; /* No. levels in the vertical   */
(PID.TID 0000.0001)       nX =    1 ; /* Total domain size in X ( = nPx*nSx*sNx ) */
(PID.TID 0000.0001)       nY =  160 ; /* Total domain size in Y ( = nPy*nSy*sNy ) */
(PID.TID 0000.0001)   nTiles =    4 ; /* Total no. tiles per process ( = nSx*nSy ) */
(PID.TID 0000.0001)   nProcs =    1 ; /* Total no. processes ( = nPx*nPy ) */
(PID.TID 0000.0001) nThreads =    1 ; /* Total no. threads per process ( = nTx*nTy ) */
(PID.TID 0000.0001) usingMPI =    F ; /* Flag used to control whether MPI is in use */
(PID.TID 0000.0001)                   /*  note: To execute a program with MPI calls */
(PID.TID 0000.0001)                   /*  it must be launched appropriately e.g     */
(PID.TID 0000.0001)                   /*  "mpirun -np 64 ......"                    */
(PID.TID 0000.0001) useCoupler=   F ; /* Flag used to control communications with */
(PID.TID 0000.0001)                   /*  other model components, through a coupler */
(PID.TID 0000.0001) 
(PID.TID 0000.0001) // ======================================================
(PID.TID 0000.0001) // Mapping of tiles to threads
(PID.TID 0000.0001) // ======================================================
(PID.TID 0000.0001) // -o- Thread   1, tiles (   1:   1,   1:   4)
(PID.TID 0000.0001) 
(PID.TID 0000.0001) // ======================================================
(PID.TID 0000.0001) // Tile <-> Tile connectvity table
(PID.TID 0000.0001) // ======================================================
(PID.TID 0000.0001) // Tile number: 000001 (process no. = 000001)
(PID.TID 0000.0001) //        WEST: Tile = 000001, Process = 000001, Comm = put
(PID.TID 0000.0001) //                bi = 000001, bj = 000001
(PID.TID 0000.0001) //        EAST: Tile = 000001, Process = 000001, Comm = put
(PID.TID 0000.0001) //                bi = 000001, bj = 000001
(PID.TID 0000.0001) //       SOUTH: Tile = 000004, Process = 000001, Comm = put
(PID.TID 0000.0001) //                bi = 000001, bj = 000004
(PID.TID 0000.0001) //       NORTH: Tile = 000002, Process = 000001, Comm = put
(PID.TID 0000.0001) //                bi = 000001, bj = 000002
(PID.TID 0000.0001) // Tile number: 000002 (process no. = 000001)
(PID.TID 0000.0001) //        WEST: Tile = 000002, Process = 000001, Comm = put
(PID.TID 0000.0001) //                bi = 000001, bj = 000002
(PID.TID 0000.0001) //        EAST: Tile = 000002, Process = 000001, Comm = put
(PID.TID 0000.0001) //                bi = 000001, bj = 000002
(PID.TID 0000.0001) //       SOUTH: Tile = 000001, Process = 000001, Comm = put
(PID.TID 0000.0001) //                bi = 000001, bj = 000001
(PID.TID 0000.0001) //       NORTH: Tile = 000003, Process = 000001, Comm = put
(PID.TID 0000.0001) //                bi = 000001, bj = 000003
(PID.TID 0000.0001) // Tile number: 000003 (process no. = 000001)
(PID.TID 0000.0001) //        WEST: Tile = 000003, Process = 000001, Comm = put
(PID.TID 0000.0001) //                bi = 000001, bj = 000003
(PID.TID 0000.0001) //        EAST: Tile = 000003, Process = 000001, Comm = put
(PID.TID 0000.0001) //                bi = 000001, bj = 000003
(PID.TID 0000.0001) //       SOUTH: Tile = 000002, Process = 000001, Comm = put
(PID.TID 0000.0001) //                bi = 000001, bj = 000002
(PID.TID 0000.0001) //       NORTH: Tile = 000004, Process = 000001, Comm = put
(PID.TID 0000.0001) //                bi = 000001, bj = 000004
(PID.TID 0000.0001) // Tile number: 000004 (process no. = 000001)
(PID.TID 0000.0001) //        WEST: Tile = 000004, Process = 000001, Comm = put
(PID.TID 0000.0001) //                bi = 000001, bj = 000004
(PID.TID 0000.0001) //        EAST: Tile = 000004, Process = 000001, Comm = put
(PID.TID 0000.0001) //                bi = 000001, bj = 000004
(PID.TID 0000.0001) //       SOUTH: Tile = 000003, Process = 000001, Comm = put
(PID.TID 0000.0001) //                bi = 000001, bj = 000003
(PID.TID 0000.0001) //       NORTH: Tile = 000001, Process = 000001, Comm = put
(PID.TID 0000.0001) //                bi = 000001, bj = 000001
(PID.TID 0000.0001) 
(PID.TID 0000.0001) // =======================================================
(PID.TID 0000.0001) // Model parameter file "data"
(PID.TID 0000.0001) // =======================================================
(PID.TID 0000.0001) ># Continuous equation parameters
(PID.TID 0000.0001) >#-note: rhoRefFile is used to turn on the anelastic formulation
(PID.TID 0000.0001) > &PARM01
(PID.TID 0000.0001) > rhoRefFile='rhoLin_x2.bin',
(PID.TID 0000.0001) > tRefFile='TRefFile.bin',
(PID.TID 0000.0001) > sRef=120*0.,
(PID.TID 0000.0001) > viscAh=1.E6,
(PID.TID 0000.0001) > viscAr=1.E6,
(PID.TID 0000.0001) > no_slip_sides=.FALSE.,
(PID.TID 0000.0001) > no_slip_bottom=.FALSE.,
(PID.TID 0000.0001) > diffKhT=1.E5,
(PID.TID 0000.0001) > diffKrT=1.E5,
(PID.TID 0000.0001) > rotationPeriod=86400.,
(PID.TID 0000.0001) > gravity=9.81,
(PID.TID 0000.0001) > rhoConst=1000.,
(PID.TID 0000.0001) > implicitFreeSurface=.TRUE.,
(PID.TID 0000.0001) > implicitDiffusion=.TRUE.,
(PID.TID 0000.0001) > implicitViscosity=.TRUE.,
(PID.TID 0000.0001) > tempAdvScheme=77,
(PID.TID 0000.0001) > staggerTimeStep=.TRUE.,
(PID.TID 0000.0001) > saltStepping=.FALSE.,
(PID.TID 0000.0001) > eosType='LINEAR',
(PID.TID 0000.0001) > nonHydrostatic=.TRUE.,
(PID.TID 0000.0001) > useNHMTerms=.TRUE.,
(PID.TID 0000.0001) > readBinaryPrec= 64,
(PID.TID 0000.0001) > writeBinaryPrec= 64,
(PID.TID 0000.0001) >#useSingleCpuIO=.TRUE.,
(PID.TID 0000.0001) >#debugLevel=-1,
(PID.TID 0000.0001) > debugMode=.FALSE.,
(PID.TID 0000.0001) >&
(PID.TID 0000.0001) >
(PID.TID 0000.0001) ># Elliptic solver parameters
(PID.TID 0000.0001) > &PARM02
(PID.TID 0000.0001) > cg2dMaxIters=1000,
(PID.TID 0000.0001) > cg2dTargetResidual=1.E-13,
(PID.TID 0000.0001) > cg3dMaxIters= 40,
(PID.TID 0000.0001) > cg3dTargetResidual=1.E-13,
(PID.TID 0000.0001) >&
(PID.TID 0000.0001) >
(PID.TID 0000.0001) ># Time stepping parameters
(PID.TID 0000.0001) > &PARM03
(PID.TID 0000.0001) > nIter0=0,
(PID.TID 0000.0001) > nTimeSteps=18,
(PID.TID 0000.0001) > deltaT=300.,
(PID.TID 0000.0001) > abEps=0.1,
(PID.TID 0000.0001) > pChkptFreq=86400.,
(PID.TID 0000.0001) > chkptFreq=0.,
(PID.TID 0000.0001) > dumpFreq=7200.,
(PID.TID 0000.0001) > monitorFreq=1.,
(PID.TID 0000.0001) >&
(PID.TID 0000.0001) >
(PID.TID 0000.0001) ># Gridding parameters
(PID.TID 0000.0001) > &PARM04
(PID.TID 0000.0001) > usingSphericalPolarGrid=.TRUE.,
(PID.TID 0000.0001) > deepAtmosphere=.TRUE.,
(PID.TID 0000.0001) > rSphere=6370.E+3,
(PID.TID 0000.0001) > delR=120*25.E+3,
(PID.TID 0000.0001) > delX=1*10.,
(PID.TID 0000.0001) > delY=160*1.,
(PID.TID 0000.0001) > phiMin=-80.,
(PID.TID 0000.0001) >&
(PID.TID 0000.0001) >
(PID.TID 0000.0001) ># Input datasets
(PID.TID 0000.0001) > &PARM05
(PID.TID 0000.0001) > bathyFile='bathymetry.bin',
(PID.TID 0000.0001) > hydrogThetaFile='init_temp.bin',
(PID.TID 0000.0001) >&
(PID.TID 0000.0001) 
(PID.TID 0000.0001) S/R INI_PARMS ; starts to read PARM01
(PID.TID 0000.0001) S/R INI_PARMS ; read PARM01 : OK
(PID.TID 0000.0001) S/R INI_PARMS ; starts to read PARM02
(PID.TID 0000.0001) S/R INI_PARMS ; read PARM02 : OK
(PID.TID 0000.0001) S/R INI_PARMS ; starts to read PARM03
(PID.TID 0000.0001) S/R INI_PARMS ; read PARM03 : OK
(PID.TID 0000.0001) S/R INI_PARMS ; starts to read PARM04
(PID.TID 0000.0001) S/R INI_PARMS ; read PARM04 : OK
(PID.TID 0000.0001) S/R INI_PARMS ; starts to read PARM05
(PID.TID 0000.0001) S/R INI_PARMS ; read PARM05 : OK
(PID.TID 0000.0001)  PACKAGES_BOOT: opening data.pkg
(PID.TID 0000.0001)  OPEN_COPY_DATA_FILE: opening file data.pkg
(PID.TID 0000.0001) // =======================================================
(PID.TID 0000.0001) // Parameter file "data.pkg"
(PID.TID 0000.0001) // =======================================================
(PID.TID 0000.0001) ># Packages
(PID.TID 0000.0001) > &PACKAGES
(PID.TID 0000.0001) > useDiagnostics=.TRUE.,
(PID.TID 0000.0001) > &
(PID.TID 0000.0001) 
(PID.TID 0000.0001)  PACKAGES_BOOT: finished reading data.pkg
(PID.TID 0000.0001)  DIAGNOSTICS_READPARMS: opening data.diagnostics
(PID.TID 0000.0001)  OPEN_COPY_DATA_FILE: opening file data.diagnostics
(PID.TID 0000.0001) // =======================================================
(PID.TID 0000.0001) // Parameter file "data.diagnostics"
(PID.TID 0000.0001) // =======================================================
(PID.TID 0000.0001) ># Diagnostic Package Choices
(PID.TID 0000.0001) >#-----------------
(PID.TID 0000.0001) ># for each output-stream:
(PID.TID 0000.0001) >#  filename(n) : prefix of the output file name (only 8.c long) for outp.stream n
(PID.TID 0000.0001) >#  frequency(n):< 0 : write snap-shot output every |frequency| seconds
(PID.TID 0000.0001) >#               > 0 : write time-average output every frequency seconds
(PID.TID 0000.0001) >#  timePhase(n)     : write at time = timePhase + multiple of |frequency|
(PID.TID 0000.0001) >#  averagingFreq(n) : frequency (in s) for periodic averaging interval
(PID.TID 0000.0001) >#  averagingPhase(n): phase     (in s) for periodic averaging interval
(PID.TID 0000.0001) >#  repeatCycle(n)   : number of averaging intervals in 1 cycle
(PID.TID 0000.0001) >#  levels(:,n) : list of levels to write to file (Notes: declared as REAL)
(PID.TID 0000.0001) >#                 when this entry is missing, select all common levels of this list
(PID.TID 0000.0001) >#  fields(:,n) : list of diagnostics fields (8.c) (see "available_diagnostics.log"
(PID.TID 0000.0001) >#                 file for the list of all available diag. in this particular config)
(PID.TID 0000.0001) >#-----------------
(PID.TID 0000.0001) > &DIAGNOSTICS_LIST
(PID.TID 0000.0001) ># diag_mnc     = .FALSE.,
(PID.TID 0000.0001) ># dumpAtLast   = .TRUE.,
(PID.TID 0000.0001) >#==============================
(PID.TID 0000.0001) >  frequency(1) = 86400.,
(PID.TID 0000.0001) >  fields(1,1) = 'RHOAnoma    ',
(PID.TID 0000.0001) >  filename(1) = 'Rho',
(PID.TID 0000.0001) >#-----------------
(PID.TID 0000.0001) >  frequency(2) = 86400.,
(PID.TID 0000.0001) >  fields(1,2) = 'PHIHYD    ',
(PID.TID 0000.0001) >  filename(2) = 'P0',
(PID.TID 0000.0001) >#-----------------
(PID.TID 0000.0001) >  frequency(3) = 86400.,
(PID.TID 0000.0001) >  fields(1,3) = 'DRHODR    ',
(PID.TID 0000.0001) >  filename(3) = 'N2',
(PID.TID 0000.0001) >#-----------------
(PID.TID 0000.0001) > &
(PID.TID 0000.0001) >
(PID.TID 0000.0001) ># Parameter for Diagnostics of per level statistics:
(PID.TID 0000.0001) >#-----------------
(PID.TID 0000.0001) ># for each output-stream:
(PID.TID 0000.0001) >#  stat_fname(n) : prefix of the output file name (only 8.c long) for outp.stream n
(PID.TID 0000.0001) >#  stat_freq(n):< 0 : write snap-shot output every |stat_freq| seconds
(PID.TID 0000.0001) >#               > 0 : write time-average output every stat_freq seconds
(PID.TID 0000.0001) >#  stat_phase(n)    : write at time = stat_phase + multiple of |stat_freq|
(PID.TID 0000.0001) >#  stat_region(:,n) : list of "regions" (default: 1 region only=global)
(PID.TID 0000.0001) >#  stat_fields(:,n) : list of diagnostics fields (8.c) (see "available_diagnostics.log"
(PID.TID 0000.0001) >#                 file for the list of all available diag. in this particular config)
(PID.TID 0000.0001) >#-----------------
(PID.TID 0000.0001) > &DIAG_STATIS_PARMS
(PID.TID 0000.0001) >#---
(PID.TID 0000.0001) > stat_fields(1,1)= 'ETAN    ','UVEL    ','VVEL    ','WVEL    ',
(PID.TID 0000.0001) >                   'THETA   ',
(PID.TID 0000.0001) >    stat_fname(1)= 'dynStDiag',
(PID.TID 0000.0001) >     stat_freq(1)= 1800.,
(PID.TID 0000.0001) > &
(PID.TID 0000.0001) 
(PID.TID 0000.0001) S/R DIAGNOSTICS_READPARMS, read namelist "diagnostics_list": start
(PID.TID 0000.0001) S/R DIAGNOSTICS_READPARMS, read namelist "diagnostics_list": OK
(PID.TID 0000.0001) S/R DIAGNOSTICS_READPARMS, read namelist "DIAG_STATIS_PARMS": start
(PID.TID 0000.0001) S/R DIAGNOSTICS_READPARMS, read namelist "DIAG_STATIS_PARMS": OK
(PID.TID 0000.0001) -----------------------------------------------------
(PID.TID 0000.0001)  DIAGNOSTICS_READPARMS: active diagnostics summary:
(PID.TID 0000.0001) -----------------------------------------------------
(PID.TID 0000.0001) Creating Output Stream: Rho
(PID.TID 0000.0001) Output Frequency:     86400.000000 ; Phase:          0.000000
(PID.TID 0000.0001)  Averaging Freq.:     86400.000000 , Phase:          0.000000 , Cycle:  1
(PID.TID 0000.0001)  Levels:    will be set later
(PID.TID 0000.0001)  Fields:    RHOAnoma
(PID.TID 0000.0001) Creating Output Stream: P0
(PID.TID 0000.0001) Output Frequency:     86400.000000 ; Phase:          0.000000
(PID.TID 0000.0001)  Averaging Freq.:     86400.000000 , Phase:          0.000000 , Cycle:  1
(PID.TID 0000.0001)  Levels:    will be set later
(PID.TID 0000.0001)  Fields:    PHIHYD
(PID.TID 0000.0001) Creating Output Stream: N2
(PID.TID 0000.0001) Output Frequency:     86400.000000 ; Phase:          0.000000
(PID.TID 0000.0001)  Averaging Freq.:     86400.000000 , Phase:          0.000000 , Cycle:  1
(PID.TID 0000.0001)  Levels:    will be set later
(PID.TID 0000.0001)  Fields:    DRHODR
(PID.TID 0000.0001) -----------------------------------------------------
(PID.TID 0000.0001)  DIAGNOSTICS_READPARMS: statistics diags. summary:
(PID.TID 0000.0001) Creating Stats. Output Stream: dynStDiag
(PID.TID 0000.0001) Output Frequency:      1800.000000 ; Phase:          0.000000
(PID.TID 0000.0001)  Regions :    0
(PID.TID 0000.0001)  Fields:    ETAN     UVEL     VVEL     WVEL     THETA
(PID.TID 0000.0001) -----------------------------------------------------
(PID.TID 0000.0001) 
(PID.TID 0000.0001) SET_PARMS: done
(PID.TID 0000.0001) S/R INI_REFERENCE_STATE: tRef loaded from file: TRefFile.bin
(PID.TID 0000.0001) S/R INI_REFERENCE_STATE: rhoRef loaded from file: rhoLin_x2.bin
(PID.TID 0000.0001) Enter INI_VERTICAL_GRID: setInterFDr=    T ; setCenterDr=    F
(PID.TID 0000.0001) %MON XC_max                       =   5.0000000000000E+00
(PID.TID 0000.0001) %MON XC_min                       =   5.0000000000000E+00
(PID.TID 0000.0001) %MON XC_mean                      =   5.0000000000000E+00
(PID.TID 0000.0001) %MON XC_sd                        =   0.0000000000000E+00
(PID.TID 0000.0001) %MON XG_max                       =   0.0000000000000E+00
(PID.TID 0000.0001) %MON XG_min                       =   0.0000000000000E+00
(PID.TID 0000.0001) %MON XG_mean                      =   0.0000000000000E+00
(PID.TID 0000.0001) %MON XG_sd                        =   0.0000000000000E+00
(PID.TID 0000.0001) %MON DXC_max                      =   1.1117324005452E+06
(PID.TID 0000.0001) %MON DXC_min                      =   2.0260485279198E+05
(PID.TID 0000.0001) %MON DXC_mean                     =   7.8416312620425E+05
(PID.TID 0000.0001) %MON DXC_sd                       =   2.8072575688353E+05
(PID.TID 0000.0001) %MON DXF_max                      =   1.1117324005452E+06
(PID.TID 0000.0001) %MON DXF_min                      =   2.0260485279198E+05
(PID.TID 0000.0001) %MON DXF_mean                     =   7.8416312620425E+05
(PID.TID 0000.0001) %MON DXF_sd                       =   2.8072575688353E+05
(PID.TID 0000.0001) %MON DXG_max                      =   1.1117747335204E+06
(PID.TID 0000.0001) %MON DXG_min                      =   1.9305765645195E+05
(PID.TID 0000.0001) %MON DXG_mean                     =   7.8413326767521E+05
(PID.TID 0000.0001) %MON DXG_sd                       =   2.8078861897602E+05
(PID.TID 0000.0001) %MON DXV_max                      =   1.1117747335204E+06
(PID.TID 0000.0001) %MON DXV_min                      =   1.9305765645195E+05
(PID.TID 0000.0001) %MON DXV_mean                     =   7.8413326767521E+05
(PID.TID 0000.0001) %MON DXV_sd                       =   2.8078861897602E+05
(PID.TID 0000.0001) %MON YC_max                       =   7.9500000000000E+01
(PID.TID 0000.0001) %MON YC_min                       =  -7.9500000000000E+01
(PID.TID 0000.0001) %MON YC_mean                      =   0.0000000000000E+00
(PID.TID 0000.0001) %MON YC_sd                        =   4.6187119416565E+01
(PID.TID 0000.0001) %MON YG_max                       =   7.9000000000000E+01
(PID.TID 0000.0001) %MON YG_min                       =  -8.0000000000000E+01
(PID.TID 0000.0001) %MON YG_mean                      =  -5.0314465408805E-01
(PID.TID 0000.0001) %MON YG_sd                        =   4.6332117202334E+01
(PID.TID 0000.0001) %MON DYC_max                      =   1.1117747335204E+05
(PID.TID 0000.0001) %MON DYC_min                      =   1.1117747335204E+05
(PID.TID 0000.0001) %MON DYC_mean                     =   1.1117747335204E+05
(PID.TID 0000.0001) %MON DYC_sd                       =   2.9103830456734E-11
(PID.TID 0000.0001) %MON DYF_max                      =   1.1117747335204E+05
(PID.TID 0000.0001) %MON DYF_min                      =   1.1117747335204E+05
(PID.TID 0000.0001) %MON DYF_mean                     =   1.1117747335204E+05
(PID.TID 0000.0001) %MON DYF_sd                       =   2.9103830456734E-11
(PID.TID 0000.0001) %MON DYG_max                      =   1.1117747335204E+05
(PID.TID 0000.0001) %MON DYG_min                      =   1.1117747335204E+05
(PID.TID 0000.0001) %MON DYG_mean                     =   1.1117747335204E+05
(PID.TID 0000.0001) %MON DYG_sd                       =   2.9103830456734E-11
(PID.TID 0000.0001) %MON DYU_max                      =   1.1117747335204E+05
(PID.TID 0000.0001) %MON DYU_min                      =   1.1117747335204E+05
(PID.TID 0000.0001) %MON DYU_mean                     =   1.1117747335204E+05
(PID.TID 0000.0001) %MON DYU_sd                       =   2.9103830456734E-11
(PID.TID 0000.0001) %MON RA_max                       =   1.2359803056756E+11
(PID.TID 0000.0001) %MON RA_min                       =   2.2524809726008E+10
(PID.TID 0000.0001) %MON RA_mean                      =   8.7180168532477E+10
(PID.TID 0000.0001) %MON RA_sd                        =   3.1209984222261E+10
(PID.TID 0000.0001) %MON RAW_max                      =   1.2359803056756E+11
(PID.TID 0000.0001) %MON RAW_min                      =   2.2524809726008E+10
(PID.TID 0000.0001) %MON RAW_mean                     =   8.7180168532477E+10
(PID.TID 0000.0001) %MON RAW_sd                       =   3.1209984222261E+10
(PID.TID 0000.0001) %MON RAS_max                      =   1.2360273698104E+11
(PID.TID 0000.0001) %MON RAS_min                      =   2.1463390031403E+10
(PID.TID 0000.0001) %MON RAS_mean                     =   8.7176848978794E+10
(PID.TID 0000.0001) %MON RAS_sd                       =   3.1216972982169E+10
(PID.TID 0000.0001) %MON RAZ_max                      =   1.2360273698104E+11
(PID.TID 0000.0001) %MON RAZ_min                      =   2.1463390031403E+10
(PID.TID 0000.0001) %MON RAZ_mean                     =   8.7176848978794E+10
(PID.TID 0000.0001) %MON RAZ_sd                       =   3.1216972982169E+10
(PID.TID 0000.0001) %MON AngleCS_max                  =   1.0000000000000E+00
(PID.TID 0000.0001) %MON AngleCS_min                  =   1.0000000000000E+00
(PID.TID 0000.0001) %MON AngleCS_mean                 =   1.0000000000000E+00
(PID.TID 0000.0001) %MON AngleCS_sd                   =   0.0000000000000E+00
(PID.TID 0000.0001) %MON AngleSN_max                  =   0.0000000000000E+00
(PID.TID 0000.0001) %MON AngleSN_min                  =   0.0000000000000E+00
(PID.TID 0000.0001) %MON AngleSN_mean                 =   0.0000000000000E+00
(PID.TID 0000.0001) %MON AngleSN_sd                   =   0.0000000000000E+00
(PID.TID 0000.0001)  MDSREADFIELD: opening global file: bathymetry.bin
(PID.TID 0000.0001) // =======================================================
(PID.TID 0000.0001) // Field Model R_low (ini_masks_etc) at iteration          1
(PID.TID 0000.0001) // CMIN =         -3.000000000000000E+06
(PID.TID 0000.0001) // CMAX =         -3.000000000000000E+06
(PID.TID 0000.0001) // CINT =          0.000000000000000E+00
(PID.TID 0000.0001) // SYMBOLS (CMIN->CMAX): -abcdefghijklmnopqrstuvwxyz+
(PID.TID 0000.0001) //                  0.0: .
(PID.TID 0000.0001) // RANGE I (Lo:Hi:Step):(  -1:   3:   1)
(PID.TID 0000.0001) // RANGE J (Lo:Hi:Step):( 162:  -1:  -1)
(PID.TID 0000.0001) // RANGE K (Lo:Hi:Step):(   1:   1:   1)
(PID.TID 0000.0001) // =======================================================
(PID.TID 0000.0001) // =======================================================
(PID.TID 0000.0001) // END OF FIELD                                          =
(PID.TID 0000.0001) // =======================================================
(PID.TID 0000.0001) 
(PID.TID 0000.0001) // =======================================================
(PID.TID 0000.0001) // Field Model Ro_surf (ini_masks_etc) at iteration          1
(PID.TID 0000.0001) // CMIN =          1.000000000000000E+32
(PID.TID 0000.0001) // CMAX =         -1.000000000000000E+32
(PID.TID 0000.0001) // CINT =          0.000000000000000E+00
(PID.TID 0000.0001) // SYMBOLS (CMIN->CMAX): -abcdefghijklmnopqrstuvwxyz+
(PID.TID 0000.0001) //                  0.0: .
(PID.TID 0000.0001) // RANGE I (Lo:Hi:Step):(  -1:   3:   1)
(PID.TID 0000.0001) // RANGE J (Lo:Hi:Step):( 162:  -1:  -1)
(PID.TID 0000.0001) // RANGE K (Lo:Hi:Step):(   1:   1:   1)
(PID.TID 0000.0001) // =======================================================
(PID.TID 0000.0001) // =======================================================
(PID.TID 0000.0001) // END OF FIELD                                          =
(PID.TID 0000.0001) // =======================================================
(PID.TID 0000.0001) 
(PID.TID 0000.0001) // =======================================================
(PID.TID 0000.0001) // Field hFacC at iteration          1
(PID.TID 0000.0001) // CMIN =          1.000000000000000E+00
(PID.TID 0000.0001) // CMAX =          1.000000000000000E+00
(PID.TID 0000.0001) // CINT =          0.000000000000000E+00
(PID.TID 0000.0001) // SYMBOLS (CMIN->CMAX): -abcdefghijklmnopqrstuvwxyz+
(PID.TID 0000.0001) //                  0.0: .
(PID.TID 0000.0001) // RANGE I (Lo:Hi:Step):(  -1:   3:   1)
(PID.TID 0000.0001) // RANGE J (Lo:Hi:Step):( 162:  -1:  -1)
(PID.TID 0000.0001) // RANGE K (Lo:Hi:Step):(   1:   1:   1)
(PID.TID 0000.0001) // =======================================================
(PID.TID 0000.0001) // =======================================================
(PID.TID 0000.0001) // END OF FIELD                                          =
(PID.TID 0000.0001) // =======================================================
(PID.TID 0000.0001) 
(PID.TID 0000.0001) // =======================================================
(PID.TID 0000.0001) // Field hFacW at iteration          1
(PID.TID 0000.0001) // CMIN =          1.000000000000000E+00
(PID.TID 0000.0001) // CMAX =          1.000000000000000E+00
(PID.TID 0000.0001) // CINT =          0.000000000000000E+00
(PID.TID 0000.0001) // SYMBOLS (CMIN->CMAX): -abcdefghijklmnopqrstuvwxyz+
(PID.TID 0000.0001) //                  0.0: .
(PID.TID 0000.0001) // RANGE I (Lo:Hi:Step):(  -1:   3:   1)
(PID.TID 0000.0001) // RANGE J (Lo:Hi:Step):( 162:  -1:  -1)
(PID.TID 0000.0001) // RANGE K (Lo:Hi:Step):(   1:   1:   1)
(PID.TID 0000.0001) // =======================================================
(PID.TID 0000.0001) // =======================================================
(PID.TID 0000.0001) // END OF FIELD                                          =
(PID.TID 0000.0001) // =======================================================
(PID.TID 0000.0001) 
(PID.TID 0000.0001) // =======================================================
(PID.TID 0000.0001) // Field hFacS at iteration          1
(PID.TID 0000.0001) // CMIN =          1.000000000000000E+00
(PID.TID 0000.0001) // CMAX =          1.000000000000000E+00
(PID.TID 0000.0001) // CINT =          0.000000000000000E+00
(PID.TID 0000.0001) // SYMBOLS (CMIN->CMAX): -abcdefghijklmnopqrstuvwxyz+
(PID.TID 0000.0001) //                  0.0: .
(PID.TID 0000.0001) // RANGE I (Lo:Hi:Step):(  -1:   3:   1)
(PID.TID 0000.0001) // RANGE J (Lo:Hi:Step):( 162:  -1:  -1)
(PID.TID 0000.0001) // RANGE K (Lo:Hi:Step):(   1:   1:   1)
(PID.TID 0000.0001) // =======================================================
(PID.TID 0000.0001) // =======================================================
(PID.TID 0000.0001) // END OF FIELD                                          =
(PID.TID 0000.0001) // =======================================================
(PID.TID 0000.0001) 
(PID.TID 0000.0001) 
(PID.TID 0000.0001) // ===================================
(PID.TID 0000.0001) // GAD parameters :
(PID.TID 0000.0001) // ===================================
(PID.TID 0000.0001) tempAdvScheme =   /* Temp. Horiz.Advection scheme selector */
(PID.TID 0000.0001)                      77
(PID.TID 0000.0001)     ;
(PID.TID 0000.0001) tempVertAdvScheme =   /* Temp. Vert. Advection scheme selector */
(PID.TID 0000.0001)                      77
(PID.TID 0000.0001)     ;
(PID.TID 0000.0001) tempMultiDimAdvec =   /* use Muti-Dim Advec method for Temp */
(PID.TID 0000.0001)                   T
(PID.TID 0000.0001)     ;
(PID.TID 0000.0001) AdamsBashforthGt =   /* apply Adams-Bashforth extrapolation on Gt */
(PID.TID 0000.0001)                   F
(PID.TID 0000.0001)     ;
(PID.TID 0000.0001) AdamsBashforth_T =   /* apply Adams-Bashforth extrapolation on Temp */
(PID.TID 0000.0001)                   F
(PID.TID 0000.0001)     ;
(PID.TID 0000.0001) saltAdvScheme =   /* Salt. Horiz.advection scheme selector */
(PID.TID 0000.0001)                       2
(PID.TID 0000.0001)     ;
(PID.TID 0000.0001) saltVertAdvScheme =   /* Salt. Vert. Advection scheme selector */
(PID.TID 0000.0001)                       2
(PID.TID 0000.0001)     ;
(PID.TID 0000.0001) saltMultiDimAdvec =   /* use Muti-Dim Advec method for Salt */
(PID.TID 0000.0001)                   F
(PID.TID 0000.0001)     ;
(PID.TID 0000.0001) AdamsBashforthGs =   /* apply Adams-Bashforth extrapolation on Gs */
(PID.TID 0000.0001)                   F
(PID.TID 0000.0001)     ;
(PID.TID 0000.0001) AdamsBashforth_S =   /* apply Adams-Bashforth extrapolation on Salt */
(PID.TID 0000.0001)                   F
(PID.TID 0000.0001)     ;
(PID.TID 0000.0001) // ===================================
(PID.TID 0000.0001) ------------------------------------------------------------
(PID.TID 0000.0001) DIAGNOSTICS_SET_LEVELS: done
(PID.TID 0000.0001)  Total Nb of available Diagnostics: ndiagt= 168
(PID.TID 0000.0001)  write list of available Diagnostics to file: available_diagnostics.log
(PID.TID 0000.0001) SETDIAG: Allocate120 x  1 Levels for Diagnostic #  60 RHOAnoma
(PID.TID 0000.0001) SETDIAG: Allocate120 x  1 Levels for Diagnostic #  65 PHIHYD
(PID.TID 0000.0001) SETDIAG: Allocate120 x  1 Levels for Diagnostic #  69 DRHODR
(PID.TID 0000.0001)   space allocated for all diagnostics:   360 levels
(PID.TID 0000.0001) DIAGNOSTICS_SET_POINTERS: Set levels for Outp.Stream: Rho
(PID.TID 0000.0001)  Levels:       1.   2.   3.   4.   5.   6.   7.   8.   9.  10.  11.  12.  13.  14.  15.  16.  17.  18.  19.  20.
(PID.TID 0000.0001)  Levels:      21.  22.  23.  24.  25.  26.  27.  28.  29.  30.  31.  32.  33.  34.  35.  36.  37.  38.  39.  40.
(PID.TID 0000.0001)  Levels:      41.  42.  43.  44.  45.  46.  47.  48.  49.  50.  51.  52.  53.  54.  55.  56.  57.  58.  59.  60.
(PID.TID 0000.0001)  Levels:      61.  62.  63.  64.  65.  66.  67.  68.  69.  70.  71.  72.  73.  74.  75.  76.  77.  78.  79.  80.
(PID.TID 0000.0001)  Levels:      81.  82.  83.  84.  85.  86.  87.  88.  89.  90.  91.  92.  93.  94.  95.  96.  97.  98.  99. 100.
(PID.TID 0000.0001)  Levels:     101. 102. 103. 104. 105. 106. 107. 108. 109. 110. 111. 112. 113. 114. 115. 116. 117. 118. 119. 120.
(PID.TID 0000.0001) DIAGNOSTICS_SET_POINTERS: Set levels for Outp.Stream: P0
(PID.TID 0000.0001)  Levels:       1.   2.   3.   4.   5.   6.   7.   8.   9.  10.  11.  12.  13.  14.  15.  16.  17.  18.  19.  20.
(PID.TID 0000.0001)  Levels:      21.  22.  23.  24.  25.  26.  27.  28.  29.  30.  31.  32.  33.  34.  35.  36.  37.  38.  39.  40.
(PID.TID 0000.0001)  Levels:      41.  42.  43.  44.  45.  46.  47.  48.  49.  50.  51.  52.  53.  54.  55.  56.  57.  58.  59.  60.
(PID.TID 0000.0001)  Levels:      61.  62.  63.  64.  65.  66.  67.  68.  69.  70.  71.  72.  73.  74.  75.  76.  77.  78.  79.  80.
(PID.TID 0000.0001)  Levels:      81.  82.  83.  84.  85.  86.  87.  88.  89.  90.  91.  92.  93.  94.  95.  96.  97.  98.  99. 100.
(PID.TID 0000.0001)  Levels:     101. 102. 103. 104. 105. 106. 107. 108. 109. 110. 111. 112. 113. 114. 115. 116. 117. 118. 119. 120.
(PID.TID 0000.0001) DIAGNOSTICS_SET_POINTERS: Set levels for Outp.Stream: N2
(PID.TID 0000.0001)  Levels:       1.   2.   3.   4.   5.   6.   7.   8.   9.  10.  11.  12.  13.  14.  15.  16.  17.  18.  19.  20.
(PID.TID 0000.0001)  Levels:      21.  22.  23.  24.  25.  26.  27.  28.  29.  30.  31.  32.  33.  34.  35.  36.  37.  38.  39.  40.
(PID.TID 0000.0001)  Levels:      41.  42.  43.  44.  45.  46.  47.  48.  49.  50.  51.  52.  53.  54.  55.  56.  57.  58.  59.  60.
(PID.TID 0000.0001)  Levels:      61.  62.  63.  64.  65.  66.  67.  68.  69.  70.  71.  72.  73.  74.  75.  76.  77.  78.  79.  80.
(PID.TID 0000.0001)  Levels:      81.  82.  83.  84.  85.  86.  87.  88.  89.  90.  91.  92.  93.  94.  95.  96.  97.  98.  99. 100.
(PID.TID 0000.0001)  Levels:     101. 102. 103. 104. 105. 106. 107. 108. 109. 110. 111. 112. 113. 114. 115. 116. 117. 118. 119. 120.
(PID.TID 0000.0001) DIAGNOSTICS_SET_POINTERS: done
(PID.TID 0000.0001) ------------------------------------------------------------
(PID.TID 0000.0001) DIAGSTATS_SET_REGIONS: define no region
(PID.TID 0000.0001) ------------------------------------------------------------
(PID.TID 0000.0001) SETDIAG: Allocate  1 Levels for Stats-Diag #  23 ETAN
(PID.TID 0000.0001) SETDIAG: Allocate120 Levels for Stats-Diag #  30 UVEL
(PID.TID 0000.0001) SETDIAG: Allocate120 Levels for Stats-Diag #  31 VVEL
(PID.TID 0000.0001) SETDIAG: Allocate120 Levels for Stats-Diag #  32 WVEL
(PID.TID 0000.0001) SETDIAG: Allocate120 Levels for Stats-Diag #  26 THETA
(PID.TID 0000.0001)   space allocated for all stats-diags:   481 levels
(PID.TID 0000.0001) DIAGSTATS_SET_POINTERS: done
(PID.TID 0000.0001) ------------------------------------------------------------
(PID.TID 0000.0001) DIAGSTATS_INI_IO: open file: dynStDiag.0000000000.txt , unit=     9
(PID.TID 0000.0001) %MON fCori_max                    =   1.4300862936153E-04
(PID.TID 0000.0001) %MON fCori_min                    =  -1.4300862936153E-04
(PID.TID 0000.0001) %MON fCori_mean                   =  -5.4210108624275E-21
(PID.TID 0000.0001) %MON fCori_sd                     =   9.6340490564563E-05
(PID.TID 0000.0001) %MON fCoriG_max                   =   1.4277188648533E-04
(PID.TID 0000.0001) %MON fCoriG_min                   =  -1.4323448157692E-04
(PID.TID 0000.0001) %MON fCoriG_mean                  =  -9.0084579608123E-07
(PID.TID 0000.0001) %MON fCoriG_sd                    =   9.6639801858310E-05
(PID.TID 0000.0001) %MON fCoriCos_max                 =   1.4543856626703E-04
(PID.TID 0000.0001) %MON fCoriCos_min                 =   2.6505082782834E-05
(PID.TID 0000.0001) %MON fCoriCos_mean                =   1.0258544298852E-04
(PID.TID 0000.0001) %MON fCoriCos_sd                  =   3.6724981277280E-05
(PID.TID 0000.0001) INI_CG2D: CG2D normalisation factor =  3.3333333333333334E-08
(PID.TID 0000.0001) 
(PID.TID 0000.0001) INI_CG3D: CG3D normalisation factor =  2.0386565637156620E-07
(PID.TID 0000.0001) 
(PID.TID 0000.0001) CONFIG_CHECK: OK
(PID.TID 0000.0001) // =======================================================
(PID.TID 0000.0001) // Model configuration
(PID.TID 0000.0001) // =======================================================
(PID.TID 0000.0001) //
(PID.TID 0000.0001) // "Physical" paramters ( PARM01 in namelist )
(PID.TID 0000.0001) //
(PID.TID 0000.0001) buoyancyRelation = OCEANIC
(PID.TID 0000.0001) fluidIsAir  =  /* fluid major constituent is Air */
(PID.TID 0000.0001)                   F
(PID.TID 0000.0001)     ;
(PID.TID 0000.0001) fluidIsWater=  /* fluid major constituent is Water */
(PID.TID 0000.0001)                   T
(PID.TID 0000.0001)     ;
(PID.TID 0000.0001) usingPCoords =  /* use p (or p*) vertical coordinate */
(PID.TID 0000.0001)                   F
(PID.TID 0000.0001)     ;
(PID.TID 0000.0001) usingZCoords =  /* use z (or z*) vertical coordinate */
(PID.TID 0000.0001)                   T
(PID.TID 0000.0001)     ;
(PID.TID 0000.0001) tRef =   /* Reference temperature profile ( oC or K ) */
(PID.TID 0000.0001)   120 @  1.000000000000000E+00              /* K =  1:120 */
(PID.TID 0000.0001)     ;
(PID.TID 0000.0001) sRef =   /* Reference salinity profile ( psu ) */
(PID.TID 0000.0001)   120 @  0.000000000000000E+00              /* K =  1:120 */
(PID.TID 0000.0001)     ;
(PID.TID 0000.0001) viscAh =   /* Lateral eddy viscosity ( m^2/s ) */
(PID.TID 0000.0001)                 1.000000000000000E+06
(PID.TID 0000.0001)     ;
(PID.TID 0000.0001) viscAhMax =   /* Maximum lateral eddy viscosity ( m^2/s ) */
(PID.TID 0000.0001)                 1.000000000000000E+21
(PID.TID 0000.0001)     ;
(PID.TID 0000.0001) viscAhGrid =   /* Grid dependent lateral eddy viscosity ( non-dim. ) */
(PID.TID 0000.0001)                 0.000000000000000E+00
(PID.TID 0000.0001)     ;
(PID.TID 0000.0001) useFullLeith =   /* Use Full Form of Leith Viscosity on/off flag*/
(PID.TID 0000.0001)                   F
(PID.TID 0000.0001)     ;
(PID.TID 0000.0001) useStrainTensionVisc =   /* Use StrainTension Form of Viscous Operator on/off flag*/
(PID.TID 0000.0001)                   F
(PID.TID 0000.0001)     ;
(PID.TID 0000.0001) useAreaViscLength =   /* Use area for visc length instead of geom. mean*/
(PID.TID 0000.0001)                   F
(PID.TID 0000.0001)     ;
(PID.TID 0000.0001) viscC2leith = /* Leith harmonic visc. factor (on grad(vort),non-dim.) */
(PID.TID 0000.0001)                 0.000000000000000E+00
(PID.TID 0000.0001)     ;
(PID.TID 0000.0001) viscC2leithD = /* Leith harmonic viscosity factor (on grad(div),non-dim.) */
(PID.TID 0000.0001)                 0.000000000000000E+00
(PID.TID 0000.0001)     ;
(PID.TID 0000.0001) viscC2smag =   /* Smagorinsky harmonic viscosity factor (non-dim.) */
(PID.TID 0000.0001)                 0.000000000000000E+00
(PID.TID 0000.0001)     ;
(PID.TID 0000.0001) viscA4 =   /* Lateral biharmonic viscosity ( m^4/s ) */
(PID.TID 0000.0001)                 0.000000000000000E+00
(PID.TID 0000.0001)     ;
(PID.TID 0000.0001) viscA4Max =   /* Maximum biharmonic viscosity ( m^2/s ) */
(PID.TID 0000.0001)                 1.000000000000000E+21
(PID.TID 0000.0001)     ;
(PID.TID 0000.0001) viscA4Grid =   /* Grid dependent biharmonic viscosity ( non-dim. ) */
(PID.TID 0000.0001)                 0.000000000000000E+00
(PID.TID 0000.0001)     ;
(PID.TID 0000.0001) viscC4leith = /* Leith biharm viscosity factor (on grad(vort), non-dim.) */
(PID.TID 0000.0001)                 0.000000000000000E+00
(PID.TID 0000.0001)     ;
(PID.TID 0000.0001) viscC4leithD = /* Leith biharm viscosity factor (on grad(div), non-dim.) */
(PID.TID 0000.0001)                 0.000000000000000E+00
(PID.TID 0000.0001)     ;
(PID.TID 0000.0001) viscC4Smag = /* Smagorinsky biharm viscosity factor (non-dim) */
(PID.TID 0000.0001)                 0.000000000000000E+00
(PID.TID 0000.0001)     ;
(PID.TID 0000.0001) no_slip_sides =  /* Viscous BCs: No-slip sides */
(PID.TID 0000.0001)                   F
(PID.TID 0000.0001)     ;
(PID.TID 0000.0001) sideDragFactor = /* side-drag scaling factor (non-dim) */
(PID.TID 0000.0001)                 2.000000000000000E+00
(PID.TID 0000.0001)     ;
(PID.TID 0000.0001) viscAr =   /* Vertical eddy viscosity ( units of r^2/s ) */
(PID.TID 0000.0001)                 1.000000000000000E+06
(PID.TID 0000.0001)     ;
(PID.TID 0000.0001) no_slip_bottom =  /* Viscous BCs: No-slip bottom */
(PID.TID 0000.0001)                   F
(PID.TID 0000.0001)     ;
(PID.TID 0000.0001) bottomDragLinear = /* linear bottom-drag coefficient ( 1/s ) */
(PID.TID 0000.0001)                 0.000000000000000E+00
(PID.TID 0000.0001)     ;
(PID.TID 0000.0001) bottomDragQuadratic = /* quadratic bottom-drag coeff. ( 1/m ) */
(PID.TID 0000.0001)                 0.000000000000000E+00
(PID.TID 0000.0001)     ;
(PID.TID 0000.0001) diffKhT =   /* Laplacian diffusion of heat laterally ( m^2/s ) */
(PID.TID 0000.0001)                 1.000000000000000E+05
(PID.TID 0000.0001)     ;
(PID.TID 0000.0001) diffK4T =   /* Bihaarmonic diffusion of heat laterally ( m^4/s ) */
(PID.TID 0000.0001)                 0.000000000000000E+00
(PID.TID 0000.0001)     ;
(PID.TID 0000.0001) diffKhS =   /* Laplacian diffusion of salt laterally ( m^2/s ) */
(PID.TID 0000.0001)                 0.000000000000000E+00
(PID.TID 0000.0001)     ;
(PID.TID 0000.0001) diffK4S =   /* Bihaarmonic diffusion of salt laterally ( m^4/s ) */
(PID.TID 0000.0001)                 0.000000000000000E+00
(PID.TID 0000.0001)     ;
(PID.TID 0000.0001) diffKrNrT = /* vertical profile of vertical diffusion of Temp ( m^2/s )*/
(PID.TID 0000.0001)   120 @  1.000000000000000E+05              /* K =  1:120 */
(PID.TID 0000.0001)     ;
(PID.TID 0000.0001) diffKrNrS = /* vertical profile of vertical diffusion of Salt ( m^2/s )*/
(PID.TID 0000.0001)   120 @  0.000000000000000E+00              /* K =  1:120 */
(PID.TID 0000.0001)     ;
(PID.TID 0000.0001) diffKrBL79surf =   /* Surface diffusion for Bryan and Lewis 1979 ( m^2/s ) */
(PID.TID 0000.0001)                 0.000000000000000E+00
(PID.TID 0000.0001)     ;
(PID.TID 0000.0001) diffKrBL79deep =   /* Deep diffusion for Bryan and Lewis 1979 ( m^2/s ) */
(PID.TID 0000.0001)                 0.000000000000000E+00
(PID.TID 0000.0001)     ;
(PID.TID 0000.0001) diffKrBL79scl =   /* Depth scale for Bryan and Lewis 1979 ( m ) */
(PID.TID 0000.0001)                 2.000000000000000E+02
(PID.TID 0000.0001)     ;
(PID.TID 0000.0001) diffKrBL79Ho =   /* Turning depth for Bryan and Lewis 1979 ( m ) */
(PID.TID 0000.0001)                -2.000000000000000E+03
(PID.TID 0000.0001)     ;
(PID.TID 0000.0001) Equation of State : eosType = LINEAR ;
(PID.TID 0000.0001) tAlpha =   /* Linear EOS thermal expansion coefficient ( 1/oC ) */
(PID.TID 0000.0001)                 2.000000000000000E-04
(PID.TID 0000.0001)     ;
(PID.TID 0000.0001) sBeta =   /* Linear EOS haline contraction coefficient ( 1/psu ) */
(PID.TID 0000.0001)                 7.400000000000000E-04
(PID.TID 0000.0001)     ;
(PID.TID 0000.0001) rhonil =   /* Reference density ( kg/m^3 ) */
(PID.TID 0000.0001)                 9.998000000000000E+02
(PID.TID 0000.0001)     ;
(PID.TID 0000.0001) rhoConst =   /* Reference density ( kg/m^3 ) */
(PID.TID 0000.0001)                 1.000000000000000E+03
(PID.TID 0000.0001)     ;
(PID.TID 0000.0001) rhoFacC = /* normalized Reference density @ cell-Center (-) */
(PID.TID 0000.0001)                 1.004000000000000E+00,      /* K =  1 */
(PID.TID 0000.0001)                 1.012000000000000E+00,      /* K =  2 */
(PID.TID 0000.0001)                 1.020000000000000E+00,      /* K =  3 */
(PID.TID 0000.0001)                 1.028000000000000E+00,      /* K =  4 */
(PID.TID 0000.0001)                 1.036000000000000E+00,      /* K =  5 */
(PID.TID 0000.0001)                 1.044000000000000E+00,      /* K =  6 */
(PID.TID 0000.0001)                 1.052000000000000E+00,      /* K =  7 */
(PID.TID 0000.0001)                 1.060000000000000E+00,      /* K =  8 */
(PID.TID 0000.0001)                 1.068000000000000E+00,      /* K =  9 */
(PID.TID 0000.0001)                 1.076000000000000E+00,      /* K = 10 */
(PID.TID 0000.0001)                 1.084000000000000E+00,      /* K = 11 */
(PID.TID 0000.0001)                 1.092000000000000E+00,      /* K = 12 */
(PID.TID 0000.0001)                 1.100000000000000E+00,      /* K = 13 */
(PID.TID 0000.0001)                 1.108000000000000E+00,      /* K = 14 */
(PID.TID 0000.0001)                 1.116000000000000E+00,      /* K = 15 */
(PID.TID 0000.0001)                 1.124000000000000E+00,      /* K = 16 */
(PID.TID 0000.0001)                 1.132000000000000E+00,      /* K = 17 */
(PID.TID 0000.0001)                 1.140000000000000E+00,      /* K = 18 */
(PID.TID 0000.0001)                 1.148000000000000E+00,      /* K = 19 */
(PID.TID 0000.0001)                 1.156000000000000E+00,      /* K = 20 */
(PID.TID 0000.0001)                 1.164000000000000E+00,      /* K = 21 */
(PID.TID 0000.0001)                 1.172000000000000E+00,      /* K = 22 */
(PID.TID 0000.0001)                 1.180000000000000E+00,      /* K = 23 */
(PID.TID 0000.0001)                 1.188000000000000E+00,      /* K = 24 */
(PID.TID 0000.0001)                 1.196000000000000E+00,      /* K = 25 */
(PID.TID 0000.0001)                 1.204000000000000E+00,      /* K = 26 */
(PID.TID 0000.0001)                 1.212000000000000E+00,      /* K = 27 */
(PID.TID 0000.0001)                 1.220000000000000E+00,      /* K = 28 */
(PID.TID 0000.0001)                 1.228000000000000E+00,      /* K = 29 */
(PID.TID 0000.0001)                 1.236000000000000E+00,      /* K = 30 */
(PID.TID 0000.0001)                 1.244000000000000E+00,      /* K = 31 */
(PID.TID 0000.0001)                 1.252000000000000E+00,      /* K = 32 */
(PID.TID 0000.0001)                 1.260000000000000E+00,      /* K = 33 */
(PID.TID 0000.0001)                 1.268000000000000E+00,      /* K = 34 */
(PID.TID 0000.0001)                 1.276000000000000E+00,      /* K = 35 */
(PID.TID 0000.0001)                 1.284000000000000E+00,      /* K = 36 */
(PID.TID 0000.0001)                 1.292000000000000E+00,      /* K = 37 */
(PID.TID 0000.0001)                 1.300000000000000E+00,      /* K = 38 */
(PID.TID 0000.0001)                 1.308000000000000E+00,      /* K = 39 */
(PID.TID 0000.0001)                 1.316000000000000E+00,      /* K = 40 */
(PID.TID 0000.0001)                 1.324000000000000E+00,      /* K = 41 */
(PID.TID 0000.0001)                 1.332000000000000E+00,      /* K = 42 */
(PID.TID 0000.0001)                 1.340000000000000E+00,      /* K = 43 */
(PID.TID 0000.0001)                 1.348000000000000E+00,      /* K = 44 */
(PID.TID 0000.0001)                 1.356000000000000E+00,      /* K = 45 */
(PID.TID 0000.0001)                 1.364000000000000E+00,      /* K = 46 */
(PID.TID 0000.0001)                 1.372000000000000E+00,      /* K = 47 */
(PID.TID 0000.0001)                 1.380000000000000E+00,      /* K = 48 */
(PID.TID 0000.0001)                 1.388000000000000E+00,      /* K = 49 */
(PID.TID 0000.0001)                 1.396000000000000E+00,      /* K = 50 */
(PID.TID 0000.0001)                 1.404000000000000E+00,      /* K = 51 */
(PID.TID 0000.0001)                 1.412000000000000E+00,      /* K = 52 */
(PID.TID 0000.0001)                 1.420000000000000E+00,      /* K = 53 */
(PID.TID 0000.0001)                 1.428000000000000E+00,      /* K = 54 */
(PID.TID 0000.0001)                 1.436000000000000E+00,      /* K = 55 */
(PID.TID 0000.0001)                 1.444000000000000E+00,      /* K = 56 */
(PID.TID 0000.0001)                 1.452000000000000E+00,      /* K = 57 */
(PID.TID 0000.0001)                 1.460000000000000E+00,      /* K = 58 */
(PID.TID 0000.0001)                 1.468000000000000E+00,      /* K = 59 */
(PID.TID 0000.0001)                 1.476000000000000E+00,      /* K = 60 */
(PID.TID 0000.0001)                 1.484000000000000E+00,      /* K = 61 */
(PID.TID 0000.0001)                 1.492000000000000E+00,      /* K = 62 */
(PID.TID 0000.0001)                 1.500000000000000E+00,      /* K = 63 */
(PID.TID 0000.0001)                 1.508000000000000E+00,      /* K = 64 */
(PID.TID 0000.0001)                 1.516000000000000E+00,      /* K = 65 */
(PID.TID 0000.0001)                 1.524000000000000E+00,      /* K = 66 */
(PID.TID 0000.0001)                 1.532000000000000E+00,      /* K = 67 */
(PID.TID 0000.0001)                 1.540000000000000E+00,      /* K = 68 */
(PID.TID 0000.0001)                 1.548000000000000E+00,      /* K = 69 */
(PID.TID 0000.0001)                 1.556000000000000E+00,      /* K = 70 */
(PID.TID 0000.0001)                 1.564000000000000E+00,      /* K = 71 */
(PID.TID 0000.0001)                 1.572000000000000E+00,      /* K = 72 */
(PID.TID 0000.0001)                 1.580000000000000E+00,      /* K = 73 */
(PID.TID 0000.0001)                 1.588000000000000E+00,      /* K = 74 */
(PID.TID 0000.0001)                 1.596000000000000E+00,      /* K = 75 */
(PID.TID 0000.0001)                 1.604000000000000E+00,      /* K = 76 */
(PID.TID 0000.0001)                 1.612000000000000E+00,      /* K = 77 */
(PID.TID 0000.0001)                 1.620000000000000E+00,      /* K = 78 */
(PID.TID 0000.0001)                 1.628000000000000E+00,      /* K = 79 */
(PID.TID 0000.0001)                 1.636000000000000E+00,      /* K = 80 */
(PID.TID 0000.0001)                 1.644000000000000E+00,      /* K = 81 */
(PID.TID 0000.0001)                 1.652000000000000E+00,      /* K = 82 */
(PID.TID 0000.0001)                 1.660000000000000E+00,      /* K = 83 */
(PID.TID 0000.0001)                 1.668000000000000E+00,      /* K = 84 */
(PID.TID 0000.0001)                 1.676000000000000E+00,      /* K = 85 */
(PID.TID 0000.0001)                 1.684000000000000E+00,      /* K = 86 */
(PID.TID 0000.0001)                 1.692000000000000E+00,      /* K = 87 */
(PID.TID 0000.0001)                 1.700000000000000E+00,      /* K = 88 */
(PID.TID 0000.0001)                 1.708000000000000E+00,      /* K = 89 */
(PID.TID 0000.0001)                 1.716000000000000E+00,      /* K = 90 */
(PID.TID 0000.0001)                 1.724000000000000E+00,      /* K = 91 */
(PID.TID 0000.0001)                 1.732000000000000E+00,      /* K = 92 */
(PID.TID 0000.0001)                 1.740000000000000E+00,      /* K = 93 */
(PID.TID 0000.0001)                 1.748000000000000E+00,      /* K = 94 */
(PID.TID 0000.0001)                 1.756000000000000E+00,      /* K = 95 */
(PID.TID 0000.0001)                 1.764000000000000E+00,      /* K = 96 */
(PID.TID 0000.0001)                 1.772000000000000E+00,      /* K = 97 */
(PID.TID 0000.0001)                 1.780000000000000E+00,      /* K = 98 */
(PID.TID 0000.0001)                 1.788000000000000E+00,      /* K = 99 */
(PID.TID 0000.0001)                 1.796000000000000E+00,      /* K =100 */
(PID.TID 0000.0001)                 1.804000000000000E+00,      /* K =101 */
(PID.TID 0000.0001)                 1.812000000000000E+00,      /* K =102 */
(PID.TID 0000.0001)                 1.820000000000000E+00,      /* K =103 */
(PID.TID 0000.0001)                 1.828000000000000E+00,      /* K =104 */
(PID.TID 0000.0001)                 1.836000000000000E+00,      /* K =105 */
(PID.TID 0000.0001)                 1.844000000000000E+00,      /* K =106 */
(PID.TID 0000.0001)                 1.852000000000000E+00,      /* K =107 */
(PID.TID 0000.0001)                 1.860000000000000E+00,      /* K =108 */
(PID.TID 0000.0001)                 1.868000000000000E+00,      /* K =109 */
(PID.TID 0000.0001)                 1.876000000000000E+00,      /* K =110 */
(PID.TID 0000.0001)                 1.884000000000000E+00,      /* K =111 */
(PID.TID 0000.0001)                 1.892000000000000E+00,      /* K =112 */
(PID.TID 0000.0001)                 1.900000000000000E+00,      /* K =113 */
(PID.TID 0000.0001)                 1.908000000000000E+00,      /* K =114 */
(PID.TID 0000.0001)                 1.916000000000000E+00,      /* K =115 */
(PID.TID 0000.0001)                 1.924000000000000E+00,      /* K =116 */
(PID.TID 0000.0001)                 1.932000000000000E+00,      /* K =117 */
(PID.TID 0000.0001)                 1.940000000000000E+00,      /* K =118 */
(PID.TID 0000.0001)                 1.948000000000000E+00,      /* K =119 */
(PID.TID 0000.0001)                 1.956000000000000E+00       /* K =120 */
(PID.TID 0000.0001)     ;
(PID.TID 0000.0001) rhoFacF = /* normalized Reference density @ W-Interface (-) */
(PID.TID 0000.0001)                 1.000000000000000E+00,      /* K =  1 */
(PID.TID 0000.0001)                 1.008000000000000E+00,      /* K =  2 */
(PID.TID 0000.0001)                 1.016000000000000E+00,      /* K =  3 */
(PID.TID 0000.0001)                 1.024000000000000E+00,      /* K =  4 */
(PID.TID 0000.0001)                 1.032000000000000E+00,      /* K =  5 */
(PID.TID 0000.0001)                 1.040000000000000E+00,      /* K =  6 */
(PID.TID 0000.0001)                 1.048000000000000E+00,      /* K =  7 */
(PID.TID 0000.0001)                 1.056000000000000E+00,      /* K =  8 */
(PID.TID 0000.0001)                 1.064000000000000E+00,      /* K =  9 */
(PID.TID 0000.0001)                 1.072000000000000E+00,      /* K = 10 */
(PID.TID 0000.0001)                 1.080000000000000E+00,      /* K = 11 */
(PID.TID 0000.0001)                 1.088000000000000E+00,      /* K = 12 */
(PID.TID 0000.0001)                 1.096000000000000E+00,      /* K = 13 */
(PID.TID 0000.0001)                 1.104000000000000E+00,      /* K = 14 */
(PID.TID 0000.0001)                 1.112000000000000E+00,      /* K = 15 */
(PID.TID 0000.0001)                 1.120000000000000E+00,      /* K = 16 */
(PID.TID 0000.0001)                 1.128000000000000E+00,      /* K = 17 */
(PID.TID 0000.0001)                 1.136000000000000E+00,      /* K = 18 */
(PID.TID 0000.0001)                 1.144000000000000E+00,      /* K = 19 */
(PID.TID 0000.0001)                 1.152000000000000E+00,      /* K = 20 */
(PID.TID 0000.0001)                 1.160000000000000E+00,      /* K = 21 */
(PID.TID 0000.0001)                 1.168000000000000E+00,      /* K = 22 */
(PID.TID 0000.0001)                 1.176000000000000E+00,      /* K = 23 */
(PID.TID 0000.0001)                 1.184000000000000E+00,      /* K = 24 */
(PID.TID 0000.0001)                 1.192000000000000E+00,      /* K = 25 */
(PID.TID 0000.0001)                 1.200000000000000E+00,      /* K = 26 */
(PID.TID 0000.0001)                 1.208000000000000E+00,      /* K = 27 */
(PID.TID 0000.0001)                 1.216000000000000E+00,      /* K = 28 */
(PID.TID 0000.0001)                 1.224000000000000E+00,      /* K = 29 */
(PID.TID 0000.0001)                 1.232000000000000E+00,      /* K = 30 */
(PID.TID 0000.0001)                 1.240000000000000E+00,      /* K = 31 */
(PID.TID 0000.0001)                 1.248000000000000E+00,      /* K = 32 */
(PID.TID 0000.0001)                 1.256000000000000E+00,      /* K = 33 */
(PID.TID 0000.0001)                 1.264000000000000E+00,      /* K = 34 */
(PID.TID 0000.0001)                 1.272000000000000E+00,      /* K = 35 */
(PID.TID 0000.0001)                 1.280000000000000E+00,      /* K = 36 */
(PID.TID 0000.0001)                 1.288000000000000E+00,      /* K = 37 */
(PID.TID 0000.0001)                 1.296000000000000E+00,      /* K = 38 */
(PID.TID 0000.0001)                 1.304000000000000E+00,      /* K = 39 */
(PID.TID 0000.0001)                 1.312000000000000E+00,      /* K = 40 */
(PID.TID 0000.0001)                 1.320000000000000E+00,      /* K = 41 */
(PID.TID 0000.0001)                 1.328000000000000E+00,      /* K = 42 */
(PID.TID 0000.0001)                 1.336000000000000E+00,      /* K = 43 */
(PID.TID 0000.0001)                 1.344000000000000E+00,      /* K = 44 */
(PID.TID 0000.0001)                 1.352000000000000E+00,      /* K = 45 */
(PID.TID 0000.0001)                 1.360000000000000E+00,      /* K = 46 */
(PID.TID 0000.0001)                 1.368000000000000E+00,      /* K = 47 */
(PID.TID 0000.0001)                 1.376000000000000E+00,      /* K = 48 */
(PID.TID 0000.0001)                 1.384000000000000E+00,      /* K = 49 */
(PID.TID 0000.0001)                 1.392000000000000E+00,      /* K = 50 */
(PID.TID 0000.0001)                 1.400000000000000E+00,      /* K = 51 */
(PID.TID 0000.0001)                 1.408000000000000E+00,      /* K = 52 */
(PID.TID 0000.0001)                 1.416000000000000E+00,      /* K = 53 */
(PID.TID 0000.0001)                 1.424000000000000E+00,      /* K = 54 */
(PID.TID 0000.0001)                 1.432000000000000E+00,      /* K = 55 */
(PID.TID 0000.0001)                 1.440000000000000E+00,      /* K = 56 */
(PID.TID 0000.0001)                 1.448000000000000E+00,      /* K = 57 */
(PID.TID 0000.0001)                 1.456000000000000E+00,      /* K = 58 */
(PID.TID 0000.0001)                 1.464000000000000E+00,      /* K = 59 */
(PID.TID 0000.0001)                 1.472000000000000E+00,      /* K = 60 */
(PID.TID 0000.0001)                 1.480000000000000E+00,      /* K = 61 */
(PID.TID 0000.0001)                 1.488000000000000E+00,      /* K = 62 */
(PID.TID 0000.0001)                 1.496000000000000E+00,      /* K = 63 */
(PID.TID 0000.0001)                 1.504000000000000E+00,      /* K = 64 */
(PID.TID 0000.0001)                 1.512000000000000E+00,      /* K = 65 */
(PID.TID 0000.0001)                 1.520000000000000E+00,      /* K = 66 */
(PID.TID 0000.0001)                 1.528000000000000E+00,      /* K = 67 */
(PID.TID 0000.0001)                 1.536000000000000E+00,      /* K = 68 */
(PID.TID 0000.0001)                 1.544000000000000E+00,      /* K = 69 */
(PID.TID 0000.0001)                 1.552000000000000E+00,      /* K = 70 */
(PID.TID 0000.0001)                 1.560000000000000E+00,      /* K = 71 */
(PID.TID 0000.0001)                 1.568000000000000E+00,      /* K = 72 */
(PID.TID 0000.0001)                 1.576000000000000E+00,      /* K = 73 */
(PID.TID 0000.0001)                 1.584000000000000E+00,      /* K = 74 */
(PID.TID 0000.0001)                 1.592000000000000E+00,      /* K = 75 */
(PID.TID 0000.0001)                 1.600000000000000E+00,      /* K = 76 */
(PID.TID 0000.0001)                 1.608000000000000E+00,      /* K = 77 */
(PID.TID 0000.0001)                 1.616000000000000E+00,      /* K = 78 */
(PID.TID 0000.0001)                 1.624000000000000E+00,      /* K = 79 */
(PID.TID 0000.0001)                 1.632000000000000E+00,      /* K = 80 */
(PID.TID 0000.0001)                 1.640000000000000E+00,      /* K = 81 */
(PID.TID 0000.0001)                 1.648000000000000E+00,      /* K = 82 */
(PID.TID 0000.0001)                 1.656000000000000E+00,      /* K = 83 */
(PID.TID 0000.0001)                 1.664000000000000E+00,      /* K = 84 */
(PID.TID 0000.0001)                 1.672000000000000E+00,      /* K = 85 */
(PID.TID 0000.0001)                 1.680000000000000E+00,      /* K = 86 */
(PID.TID 0000.0001)                 1.688000000000000E+00,      /* K = 87 */
(PID.TID 0000.0001)                 1.696000000000000E+00,      /* K = 88 */
(PID.TID 0000.0001)                 1.704000000000000E+00,      /* K = 89 */
(PID.TID 0000.0001)                 1.712000000000000E+00,      /* K = 90 */
(PID.TID 0000.0001)                 1.720000000000000E+00,      /* K = 91 */
(PID.TID 0000.0001)                 1.728000000000000E+00,      /* K = 92 */
(PID.TID 0000.0001)                 1.736000000000000E+00,      /* K = 93 */
(PID.TID 0000.0001)                 1.744000000000000E+00,      /* K = 94 */
(PID.TID 0000.0001)                 1.752000000000000E+00,      /* K = 95 */
(PID.TID 0000.0001)                 1.760000000000000E+00,      /* K = 96 */
(PID.TID 0000.0001)                 1.768000000000000E+00,      /* K = 97 */
(PID.TID 0000.0001)                 1.776000000000000E+00,      /* K = 98 */
(PID.TID 0000.0001)                 1.784000000000000E+00,      /* K = 99 */
(PID.TID 0000.0001)                 1.792000000000000E+00,      /* K =100 */
(PID.TID 0000.0001)                 1.800000000000000E+00,      /* K =101 */
(PID.TID 0000.0001)                 1.808000000000000E+00,      /* K =102 */
(PID.TID 0000.0001)                 1.816000000000000E+00,      /* K =103 */
(PID.TID 0000.0001)                 1.824000000000000E+00,      /* K =104 */
(PID.TID 0000.0001)                 1.832000000000000E+00,      /* K =105 */
(PID.TID 0000.0001)                 1.840000000000000E+00,      /* K =106 */
(PID.TID 0000.0001)                 1.848000000000000E+00,      /* K =107 */
(PID.TID 0000.0001)                 1.856000000000000E+00,      /* K =108 */
(PID.TID 0000.0001)                 1.864000000000000E+00,      /* K =109 */
(PID.TID 0000.0001)                 1.872000000000000E+00,      /* K =110 */
(PID.TID 0000.0001)                 1.880000000000000E+00,      /* K =111 */
(PID.TID 0000.0001)                 1.888000000000000E+00,      /* K =112 */
(PID.TID 0000.0001)                 1.896000000000000E+00,      /* K =113 */
(PID.TID 0000.0001)                 1.904000000000000E+00,      /* K =114 */
(PID.TID 0000.0001)                 1.912000000000000E+00,      /* K =115 */
(PID.TID 0000.0001)                 1.920000000000000E+00,      /* K =116 */
(PID.TID 0000.0001)                 1.928000000000000E+00,      /* K =117 */
(PID.TID 0000.0001)                 1.936000000000000E+00,      /* K =118 */
(PID.TID 0000.0001)                 1.944000000000000E+00,      /* K =119 */
(PID.TID 0000.0001)                 1.952000000000000E+00,      /* K =120 */
(PID.TID 0000.0001)                 1.960000000000000E+00       /* K =121 */
(PID.TID 0000.0001)     ;
(PID.TID 0000.0001) rhoConstFresh =   /* Reference density ( kg/m^3 ) */
(PID.TID 0000.0001)                 1.000000000000000E+03
(PID.TID 0000.0001)     ;
(PID.TID 0000.0001) gravity =   /* Gravitational acceleration ( m/s^2 ) */
(PID.TID 0000.0001)                 9.810000000000000E+00
(PID.TID 0000.0001)     ;
(PID.TID 0000.0001) gBaro =   /* Barotropic gravity ( m/s^2 ) */
(PID.TID 0000.0001)                 9.810000000000000E+00
(PID.TID 0000.0001)     ;
(PID.TID 0000.0001) rotationPeriod =   /* Rotation Period ( s ) */
(PID.TID 0000.0001)                 8.640000000000000E+04
(PID.TID 0000.0001)     ;
(PID.TID 0000.0001) omega =   /* Angular velocity ( rad/s ) */
(PID.TID 0000.0001)                 7.272205216643040E-05
(PID.TID 0000.0001)     ;
(PID.TID 0000.0001) f0 =   /* Reference coriolis parameter ( 1/s ) */
(PID.TID 0000.0001)                 1.000000000000000E-04
(PID.TID 0000.0001)     ;
(PID.TID 0000.0001) beta =   /* Beta ( 1/(m.s) ) */
(PID.TID 0000.0001)                 9.999999999999999E-12
(PID.TID 0000.0001)     ;
(PID.TID 0000.0001) freeSurfFac =   /* Implicit free surface factor */
(PID.TID 0000.0001)                 1.000000000000000E+00
(PID.TID 0000.0001)     ;
(PID.TID 0000.0001) implicitFreeSurface =   /* Implicit free surface on/off flag */
(PID.TID 0000.0001)                   T
(PID.TID 0000.0001)     ;
(PID.TID 0000.0001) rigidLid =   /* Rigid lid on/off flag */
(PID.TID 0000.0001)                   F
(PID.TID 0000.0001)     ;
(PID.TID 0000.0001) implicSurfPress =   /* Surface Pressure implicit factor (0-1)*/
(PID.TID 0000.0001)                 1.000000000000000E+00
(PID.TID 0000.0001)     ;
(PID.TID 0000.0001) implicDiv2Dflow =   /* Barot. Flow Div. implicit factor (0-1)*/
(PID.TID 0000.0001)                 1.000000000000000E+00
(PID.TID 0000.0001)     ;
(PID.TID 0000.0001) exactConserv =   /* Exact Volume Conservation on/off flag*/
(PID.TID 0000.0001)                   F
(PID.TID 0000.0001)     ;
(PID.TID 0000.0001) uniformLin_PhiSurf =   /* use uniform Bo_surf on/off flag*/
(PID.TID 0000.0001)                   T
(PID.TID 0000.0001)     ;
(PID.TID 0000.0001) nonlinFreeSurf =   /* Non-linear Free Surf. options (-1,0,1,2,3)*/
(PID.TID 0000.0001)                       0
(PID.TID 0000.0001)     ;
(PID.TID 0000.0001)      -1,0= Off ; 1,2,3= On, 2=+rescale gU,gV, 3=+update cg2d solv.
(PID.TID 0000.0001) hFacInf =   /* lower threshold for hFac (nonlinFreeSurf only)*/
(PID.TID 0000.0001)                 2.000000000000000E-01
(PID.TID 0000.0001)     ;
(PID.TID 0000.0001) hFacSup =   /* upper threshold for hFac (nonlinFreeSurf only)*/
(PID.TID 0000.0001)                 2.000000000000000E+00
(PID.TID 0000.0001)     ;
(PID.TID 0000.0001) select_rStar =   /* r* Coordinate options (not yet implemented)*/
(PID.TID 0000.0001)                       0
(PID.TID 0000.0001)     ;
(PID.TID 0000.0001) useRealFreshWaterFlux =   /* Real Fresh Water Flux on/off flag*/
(PID.TID 0000.0001)                   F
(PID.TID 0000.0001)     ;
(PID.TID 0000.0001) convertFW2Salt = /* convert F.W. Flux to Salt Flux (-1=use local S)(ppt)*/
(PID.TID 0000.0001)                 3.500000000000000E+01
(PID.TID 0000.0001)     ;
(PID.TID 0000.0001) use3Dsolver = /* use 3-D pressure solver on/off flag */
(PID.TID 0000.0001)                   T
(PID.TID 0000.0001)     ;
(PID.TID 0000.0001) nonHydrostatic =  /* Non-Hydrostatic on/off flag */
(PID.TID 0000.0001)                   T
(PID.TID 0000.0001)     ;
(PID.TID 0000.0001) nh_Am2 = /* Non-Hydrostatic terms scaling factor */
(PID.TID 0000.0001)                 1.000000000000000E+00
(PID.TID 0000.0001)     ;
(PID.TID 0000.0001) quasiHydrostatic = /* Quasi-Hydrostatic on/off flag */
(PID.TID 0000.0001)                   F
(PID.TID 0000.0001)     ;
(PID.TID 0000.0001) momStepping =  /* Momentum equation on/off flag */
(PID.TID 0000.0001)                   T
(PID.TID 0000.0001)     ;
(PID.TID 0000.0001) vectorInvariantMomentum= /* Vector-Invariant Momentum on/off */
(PID.TID 0000.0001)                   F
(PID.TID 0000.0001)     ;
(PID.TID 0000.0001) momAdvection =  /* Momentum advection on/off flag */
(PID.TID 0000.0001)                   T
(PID.TID 0000.0001)     ;
(PID.TID 0000.0001) momViscosity =  /* Momentum viscosity on/off flag */
(PID.TID 0000.0001)                   T
(PID.TID 0000.0001)     ;
(PID.TID 0000.0001) momImplVertAdv =/* Momentum implicit vert. advection on/off*/
(PID.TID 0000.0001)                   F
(PID.TID 0000.0001)     ;
(PID.TID 0000.0001) implicitViscosity = /* Implicit viscosity on/off flag */
(PID.TID 0000.0001)                   T
(PID.TID 0000.0001)     ;
(PID.TID 0000.0001) metricTerms =  /* metric-Terms on/off flag */
(PID.TID 0000.0001)                   T
(PID.TID 0000.0001)     ;
(PID.TID 0000.0001) useNHMTerms = /* Non-Hydrostatic Metric-Terms on/off */
(PID.TID 0000.0001)                   T
(PID.TID 0000.0001)     ;
(PID.TID 0000.0001) useConstantF =  /* use Constant f0 Coriolis flag */
(PID.TID 0000.0001)                   F
(PID.TID 0000.0001)     ;
(PID.TID 0000.0001) useBetaPlaneF = /* use Beta-Plane Coriolis flag */
(PID.TID 0000.0001)                   F
(PID.TID 0000.0001)     ;
(PID.TID 0000.0001) useSphereF  =   /* use Spherical Coriolis flag */
(PID.TID 0000.0001)                   T
(PID.TID 0000.0001)     ;
(PID.TID 0000.0001) use3dCoriolis = /* 3-D Coriolis on/off flag */
(PID.TID 0000.0001)                   T
(PID.TID 0000.0001)     ;
(PID.TID 0000.0001) useCoriolis =  /* Coriolis on/off flag */
(PID.TID 0000.0001)                   T
(PID.TID 0000.0001)     ;
(PID.TID 0000.0001) useCDscheme =  /* CD scheme on/off flag */
(PID.TID 0000.0001)                   F
(PID.TID 0000.0001)     ;
(PID.TID 0000.0001) useJamartWetPoints= /* Coriolis WetPoints method flag */
(PID.TID 0000.0001)                   F
(PID.TID 0000.0001)     ;
(PID.TID 0000.0001) useJamartMomAdv= /* V.I. Non-linear terms Jamart flag */
(PID.TID 0000.0001)                   F
(PID.TID 0000.0001)     ;
(PID.TID 0000.0001) SadournyCoriolis= /* Sadourny Coriolis discr. flag */
(PID.TID 0000.0001)                   F
(PID.TID 0000.0001)     ;
(PID.TID 0000.0001) upwindVorticity= /* Upwind bias vorticity flag */
(PID.TID 0000.0001)                   F
(PID.TID 0000.0001)     ;
(PID.TID 0000.0001) useAbsVorticity= /* Work with f+zeta in Coriolis */
(PID.TID 0000.0001)                   F
(PID.TID 0000.0001)     ;
(PID.TID 0000.0001) highOrderVorticity= /* High order interp. of vort. flag */
(PID.TID 0000.0001)                   F
(PID.TID 0000.0001)     ;
(PID.TID 0000.0001) upwindShear= /* Upwind vertical Shear advection flag */
(PID.TID 0000.0001)                   F
(PID.TID 0000.0001)     ;
(PID.TID 0000.0001) selectKEscheme= /* Kinetic Energy scheme selector */
(PID.TID 0000.0001)                       0
(PID.TID 0000.0001)     ;
(PID.TID 0000.0001) momForcing =  /* Momentum forcing on/off flag */
(PID.TID 0000.0001)                   T
(PID.TID 0000.0001)     ;
(PID.TID 0000.0001) momPressureForcing =  /* Momentum pressure term on/off flag */
(PID.TID 0000.0001)                   T
(PID.TID 0000.0001)     ;
(PID.TID 0000.0001) implicitIntGravWave= /* Implicit Internal Gravity Wave flag */
(PID.TID 0000.0001)                   F
(PID.TID 0000.0001)     ;
(PID.TID 0000.0001) staggerTimeStep =   /* Stagger time stepping on/off flag */
(PID.TID 0000.0001)                   T
(PID.TID 0000.0001)     ;
(PID.TID 0000.0001) multiDimAdvection =   /* enable/disable Multi-Dim Advection */
(PID.TID 0000.0001)                   T
(PID.TID 0000.0001)     ;
(PID.TID 0000.0001) useMultiDimAdvec =   /* Multi-Dim Advection is/is-not used */
(PID.TID 0000.0001)                   T
(PID.TID 0000.0001)     ;
(PID.TID 0000.0001) implicitDiffusion =/* Implicit Diffusion on/off flag */
(PID.TID 0000.0001)                   T
(PID.TID 0000.0001)     ;
(PID.TID 0000.0001) tempStepping =  /* Temperature equation on/off flag */
(PID.TID 0000.0001)                   T
(PID.TID 0000.0001)     ;
(PID.TID 0000.0001) tempAdvection=  /* Temperature advection on/off flag */
(PID.TID 0000.0001)                   T
(PID.TID 0000.0001)     ;
(PID.TID 0000.0001) tempImplVertAdv =/* Temp. implicit vert. advection on/off */
(PID.TID 0000.0001)                   F
(PID.TID 0000.0001)     ;
(PID.TID 0000.0001) tempForcing  =  /* Temperature forcing on/off flag */
(PID.TID 0000.0001)                   T
(PID.TID 0000.0001)     ;
(PID.TID 0000.0001) saltStepping =  /* Salinity equation on/off flag */
(PID.TID 0000.0001)                   F
(PID.TID 0000.0001)     ;
(PID.TID 0000.0001) saltAdvection=  /* Salinity advection on/off flag */
(PID.TID 0000.0001)                   F
(PID.TID 0000.0001)     ;
(PID.TID 0000.0001) saltImplVertAdv =/* Sali. implicit vert. advection on/off */
(PID.TID 0000.0001)                   F
(PID.TID 0000.0001)     ;
(PID.TID 0000.0001) saltForcing  =  /* Salinity forcing on/off flag */
(PID.TID 0000.0001)                   F
(PID.TID 0000.0001)     ;
(PID.TID 0000.0001)  readBinaryPrec = /* Precision used for reading binary files */
(PID.TID 0000.0001)                      64
(PID.TID 0000.0001)     ;
(PID.TID 0000.0001) writeBinaryPrec = /* Precision used for writing binary files */
(PID.TID 0000.0001)                      64
(PID.TID 0000.0001)     ;
(PID.TID 0000.0001)  globalFiles = /* write "global" (=not per tile) files */
(PID.TID 0000.0001)                   F
(PID.TID 0000.0001)     ;
(PID.TID 0000.0001)  useSingleCpuIO = /* only master MPI process does I/O */
(PID.TID 0000.0001)                   F
(PID.TID 0000.0001)     ;
(PID.TID 0000.0001)  debugMode  =  /* Debug Mode on/off flag */
(PID.TID 0000.0001)                   F
(PID.TID 0000.0001)     ;
(PID.TID 0000.0001)    debLevA  =  /* 1rst level of debugging */
(PID.TID 0000.0001)                       1
(PID.TID 0000.0001)     ;
(PID.TID 0000.0001)    debLevB  =  /* 2nd  level of debugging */
(PID.TID 0000.0001)                       2
(PID.TID 0000.0001)     ;
(PID.TID 0000.0001)  debugLevel =  /* select debugging level */
(PID.TID 0000.0001)                       1
(PID.TID 0000.0001)     ;
(PID.TID 0000.0001) //
(PID.TID 0000.0001) // Elliptic solver(s) paramters ( PARM02 in namelist )
(PID.TID 0000.0001) //
(PID.TID 0000.0001) cg2dMaxIters =   /* Upper limit on 2d con. grad iterations  */
(PID.TID 0000.0001)                    1000
(PID.TID 0000.0001)     ;
(PID.TID 0000.0001) cg2dChkResFreq =   /* 2d con. grad convergence test frequency */
(PID.TID 0000.0001)                       1
(PID.TID 0000.0001)     ;
(PID.TID 0000.0001) cg2dTargetResidual =   /* 2d con. grad target residual  */
(PID.TID 0000.0001)                 1.000000000000000E-13
(PID.TID 0000.0001)     ;
(PID.TID 0000.0001) cg2dTargetResWunit =   /* CG2d target residual [W units] */
(PID.TID 0000.0001)                -1.000000000000000E+00
(PID.TID 0000.0001)     ;
(PID.TID 0000.0001) cg2dPreCondFreq =   /* Freq. for updating cg2d preconditioner */
(PID.TID 0000.0001)                       1
(PID.TID 0000.0001)     ;
(PID.TID 0000.0001) //
(PID.TID 0000.0001) // Time stepping paramters ( PARM03 in namelist )
(PID.TID 0000.0001) //
(PID.TID 0000.0001) nIter0 =   /* Run starting timestep number  */
(PID.TID 0000.0001)                       0
(PID.TID 0000.0001)     ;
(PID.TID 0000.0001) nTimeSteps =   /* Number of timesteps */
(PID.TID 0000.0001)                      18
(PID.TID 0000.0001)     ;
(PID.TID 0000.0001) deltaTmom =   /* Momentum equation timestep ( s ) */
(PID.TID 0000.0001)                 3.000000000000000E+02
(PID.TID 0000.0001)     ;
(PID.TID 0000.0001) deltaTfreesurf =   /* FreeSurface equation timestep ( s ) */
(PID.TID 0000.0001)                 3.000000000000000E+02
(PID.TID 0000.0001)     ;
(PID.TID 0000.0001) dTtracerLev =   /* Tracer equation timestep ( s ) */
(PID.TID 0000.0001)   120 @  3.000000000000000E+02              /* K =  1:120 */
(PID.TID 0000.0001)     ;
(PID.TID 0000.0001) deltaTClock  =   /* Model clock timestep ( s ) */
(PID.TID 0000.0001)                 3.000000000000000E+02
(PID.TID 0000.0001)     ;
(PID.TID 0000.0001) cAdjFreq =   /* Convective adjustment interval ( s ) */
(PID.TID 0000.0001)                 0.000000000000000E+00
(PID.TID 0000.0001)     ;
(PID.TID 0000.0001) momForcingOutAB = /* =1: take Momentum Forcing out of Adams-Bash. stepping */
(PID.TID 0000.0001)                       0
(PID.TID 0000.0001)     ;
(PID.TID 0000.0001) tracForcingOutAB = /* =1: take T,S,pTr Forcing out of Adams-Bash. stepping */
(PID.TID 0000.0001)                       0
(PID.TID 0000.0001)     ;
(PID.TID 0000.0001) momDissip_In_AB = /* put Dissipation Tendency in Adams-Bash. stepping */
(PID.TID 0000.0001)                   T
(PID.TID 0000.0001)     ;
(PID.TID 0000.0001) doAB_onGtGs = /* apply AB on Tendencies (rather than on T,S)*/
(PID.TID 0000.0001)                   T
(PID.TID 0000.0001)     ;
(PID.TID 0000.0001) abEps =   /* Adams-Bashforth-2 stabilizing weight */
(PID.TID 0000.0001)                 1.000000000000000E-01
(PID.TID 0000.0001)     ;
(PID.TID 0000.0001) baseTime =   /* Model base time ( s ). */
(PID.TID 0000.0001)                 0.000000000000000E+00
(PID.TID 0000.0001)     ;
(PID.TID 0000.0001) startTime =   /* Run start time ( s ). */
(PID.TID 0000.0001)                 0.000000000000000E+00
(PID.TID 0000.0001)     ;
(PID.TID 0000.0001) endTime =   /* Integration ending time ( s ). */
(PID.TID 0000.0001)                 5.400000000000000E+03
(PID.TID 0000.0001)     ;
(PID.TID 0000.0001) pChkPtFreq =   /* Permanent restart/checkpoint file interval ( s ). */
(PID.TID 0000.0001)                 8.640000000000000E+04
(PID.TID 0000.0001)     ;
(PID.TID 0000.0001) chkPtFreq =   /* Rolling restart/checkpoint file interval ( s ). */
(PID.TID 0000.0001)                 0.000000000000000E+00
(PID.TID 0000.0001)     ;
(PID.TID 0000.0001) pickup_write_mdsio =   /* Model IO flag. */
(PID.TID 0000.0001)                   T
(PID.TID 0000.0001)     ;
(PID.TID 0000.0001) pickup_read_mdsio =   /* Model IO flag. */
(PID.TID 0000.0001)                   T
(PID.TID 0000.0001)     ;
(PID.TID 0000.0001) pickup_write_immed =   /* Model IO flag. */
(PID.TID 0000.0001)                   F
(PID.TID 0000.0001)     ;
(PID.TID 0000.0001) dumpFreq =   /* Model state write out interval ( s ). */
(PID.TID 0000.0001)                 7.200000000000000E+03
(PID.TID 0000.0001)     ;
(PID.TID 0000.0001) dumpInitAndLast= /* write out Initial & Last iter. model state */
(PID.TID 0000.0001)                   T
(PID.TID 0000.0001)     ;
(PID.TID 0000.0001) snapshot_mdsio =   /* Model IO flag. */
(PID.TID 0000.0001)                   T
(PID.TID 0000.0001)     ;
(PID.TID 0000.0001) monitorFreq =   /* Monitor output interval ( s ). */
(PID.TID 0000.0001)                 1.000000000000000E+00
(PID.TID 0000.0001)     ;
(PID.TID 0000.0001) monitor_stdio =   /* Model IO flag. */
(PID.TID 0000.0001)                   T
(PID.TID 0000.0001)     ;
(PID.TID 0000.0001) externForcingPeriod =   /* forcing period (s) */
(PID.TID 0000.0001)                 0.000000000000000E+00
(PID.TID 0000.0001)     ;
(PID.TID 0000.0001) externForcingCycle =   /* period of the cyle (s). */
(PID.TID 0000.0001)                 0.000000000000000E+00
(PID.TID 0000.0001)     ;
(PID.TID 0000.0001) tauThetaClimRelax =   /* relaxation time scale (s) */
(PID.TID 0000.0001)                 0.000000000000000E+00
(PID.TID 0000.0001)     ;
(PID.TID 0000.0001) tauSaltClimRelax =   /* relaxation time scale (s) */
(PID.TID 0000.0001)                 0.000000000000000E+00
(PID.TID 0000.0001)     ;
(PID.TID 0000.0001) latBandClimRelax =   /* max. Lat. where relaxation */
(PID.TID 0000.0001)                 1.800000000000000E+02
(PID.TID 0000.0001)     ;
(PID.TID 0000.0001) //
(PID.TID 0000.0001) // Gridding paramters ( PARM04 in namelist )
(PID.TID 0000.0001) //
(PID.TID 0000.0001) usingCartesianGrid = /* Cartesian coordinates flag ( True/False ) */
(PID.TID 0000.0001)                   F
(PID.TID 0000.0001)     ;
(PID.TID 0000.0001) usingCylindricalGrid = /* Cylindrical coordinates flag ( True/False ) */
(PID.TID 0000.0001)                   F
(PID.TID 0000.0001)     ;
(PID.TID 0000.0001) usingSphericalPolarGrid = /* Spherical coordinates flag ( True/False ) */
(PID.TID 0000.0001)                   T
(PID.TID 0000.0001)     ;
(PID.TID 0000.0001) usingCurvilinearGrid = /* Curvilinear coordinates flag ( True/False ) */
(PID.TID 0000.0001)                   F
(PID.TID 0000.0001)     ;
(PID.TID 0000.0001) Ro_SeaLevel = /* r(1) ( units of r ) */
(PID.TID 0000.0001)                 0.000000000000000E+00
(PID.TID 0000.0001)     ;
(PID.TID 0000.0001) rkSign =   /* index orientation relative to vertical coordinate */
(PID.TID 0000.0001)                -1.000000000000000E+00
(PID.TID 0000.0001)     ;
(PID.TID 0000.0001) gravitySign = /* gravity orientation relative to vertical coordinate */
(PID.TID 0000.0001)                -1.000000000000000E+00
(PID.TID 0000.0001)     ;
(PID.TID 0000.0001) horiVertRatio =   /* Ratio on units : Horiz - Vertical */
(PID.TID 0000.0001)                 1.000000000000000E+00
(PID.TID 0000.0001)     ;
(PID.TID 0000.0001) drC =   /* C spacing ( units of r ) */
(PID.TID 0000.0001)                 1.250000000000000E+04,      /* K =  1 */
(PID.TID 0000.0001)   119 @  2.500000000000000E+04              /* K =  2:120 */
(PID.TID 0000.0001)     ;
(PID.TID 0000.0001) drF =   /* W spacing ( units of r ) */
(PID.TID 0000.0001)   120 @  2.500000000000000E+04              /* K =  1:120 */
(PID.TID 0000.0001)     ;
(PID.TID 0000.0001) delX =   /* U spacing ( m - cartesian, degrees - spherical ) */
(PID.TID 0000.0001)                 1.000000000000000E+01       /* I =  1 */
(PID.TID 0000.0001)     ;
(PID.TID 0000.0001) delY =   /* V spacing ( m - cartesian, degrees - spherical ) */
(PID.TID 0000.0001)   160 @  1.000000000000000E+00              /* J =  1:160 */
(PID.TID 0000.0001)     ;
(PID.TID 0000.0001) phiMin =    /* South edge (ignored - cartesian, degrees - spherical ) */
(PID.TID 0000.0001)                -8.000000000000000E+01
(PID.TID 0000.0001)     ;
(PID.TID 0000.0001) thetaMin =    /* West edge ( ignored - cartesian, degrees - spherical ) */
(PID.TID 0000.0001)                 0.000000000000000E+00
(PID.TID 0000.0001)     ;
(PID.TID 0000.0001) rSphere =  /* Radius ( ignored - cartesian, m - spherical ) */
(PID.TID 0000.0001)                 6.370000000000000E+06
(PID.TID 0000.0001)     ;
(PID.TID 0000.0001) deepAtmosphere = /* Deep/Shallow Atmosphere flag (True/False) */
(PID.TID 0000.0001)                   T
(PID.TID 0000.0001)     ;
(PID.TID 0000.0001) xcoord =   /* P-point X coord ( m - cartesian, degrees - spherical ) */
(PID.TID 0000.0001)                 5.000000000000000E+00       /* I =  1 */
(PID.TID 0000.0001)     ;
(PID.TID 0000.0001) ycoord =   /* P-point Y coord ( m - cartesian, degrees - spherical ) */
(PID.TID 0000.0001)                -7.950000000000000E+01,      /* J =  1 */
(PID.TID 0000.0001)                -7.850000000000000E+01,      /* J =  2 */
(PID.TID 0000.0001)                -7.750000000000000E+01,      /* J =  3 */
(PID.TID 0000.0001)                -7.650000000000000E+01,      /* J =  4 */
(PID.TID 0000.0001)                -7.550000000000000E+01,      /* J =  5 */
(PID.TID 0000.0001)                -7.450000000000000E+01,      /* J =  6 */
(PID.TID 0000.0001)                -7.350000000000000E+01,      /* J =  7 */
(PID.TID 0000.0001)                -7.250000000000000E+01,      /* J =  8 */
(PID.TID 0000.0001)                -7.150000000000000E+01,      /* J =  9 */
(PID.TID 0000.0001)                -7.050000000000000E+01,      /* J = 10 */
(PID.TID 0000.0001)                -6.950000000000000E+01,      /* J = 11 */
(PID.TID 0000.0001)                -6.850000000000000E+01,      /* J = 12 */
(PID.TID 0000.0001)                -6.750000000000000E+01,      /* J = 13 */
(PID.TID 0000.0001)                -6.650000000000000E+01,      /* J = 14 */
(PID.TID 0000.0001)                -6.550000000000000E+01,      /* J = 15 */
(PID.TID 0000.0001)                -6.450000000000000E+01,      /* J = 16 */
(PID.TID 0000.0001)                -6.350000000000000E+01,      /* J = 17 */
(PID.TID 0000.0001)                -6.250000000000000E+01,      /* J = 18 */
(PID.TID 0000.0001)                -6.150000000000000E+01,      /* J = 19 */
(PID.TID 0000.0001)                -6.050000000000000E+01,      /* J = 20 */
(PID.TID 0000.0001)                -5.950000000000000E+01,      /* J = 21 */
(PID.TID 0000.0001)                -5.850000000000000E+01,      /* J = 22 */
(PID.TID 0000.0001)                -5.750000000000000E+01,      /* J = 23 */
(PID.TID 0000.0001)                -5.650000000000000E+01,      /* J = 24 */
(PID.TID 0000.0001)                -5.550000000000000E+01,      /* J = 25 */
(PID.TID 0000.0001)                -5.450000000000000E+01,      /* J = 26 */
(PID.TID 0000.0001)                -5.350000000000000E+01,      /* J = 27 */
(PID.TID 0000.0001)                -5.250000000000000E+01,      /* J = 28 */
(PID.TID 0000.0001)                -5.150000000000000E+01,      /* J = 29 */
(PID.TID 0000.0001)                -5.050000000000000E+01,      /* J = 30 */
(PID.TID 0000.0001)                -4.950000000000000E+01,      /* J = 31 */
(PID.TID 0000.0001)                -4.850000000000000E+01,      /* J = 32 */
(PID.TID 0000.0001)                -4.750000000000000E+01,      /* J = 33 */
(PID.TID 0000.0001)                -4.650000000000000E+01,      /* J = 34 */
(PID.TID 0000.0001)                -4.550000000000000E+01,      /* J = 35 */
(PID.TID 0000.0001)                -4.450000000000000E+01,      /* J = 36 */
(PID.TID 0000.0001)                -4.350000000000000E+01,      /* J = 37 */
(PID.TID 0000.0001)                -4.250000000000000E+01,      /* J = 38 */
(PID.TID 0000.0001)                -4.150000000000000E+01,      /* J = 39 */
(PID.TID 0000.0001)                -4.050000000000000E+01,      /* J = 40 */
(PID.TID 0000.0001)                -3.950000000000000E+01,      /* J = 41 */
(PID.TID 0000.0001)                -3.850000000000000E+01,      /* J = 42 */
(PID.TID 0000.0001)                -3.750000000000000E+01,      /* J = 43 */
(PID.TID 0000.0001)                -3.650000000000000E+01,      /* J = 44 */
(PID.TID 0000.0001)                -3.550000000000000E+01,      /* J = 45 */
(PID.TID 0000.0001)                -3.450000000000000E+01,      /* J = 46 */
(PID.TID 0000.0001)                -3.350000000000000E+01,      /* J = 47 */
(PID.TID 0000.0001)                -3.250000000000000E+01,      /* J = 48 */
(PID.TID 0000.0001)                -3.150000000000000E+01,      /* J = 49 */
(PID.TID 0000.0001)                -3.050000000000000E+01,      /* J = 50 */
(PID.TID 0000.0001)                -2.950000000000000E+01,      /* J = 51 */
(PID.TID 0000.0001)                -2.850000000000000E+01,      /* J = 52 */
(PID.TID 0000.0001)                -2.750000000000000E+01,      /* J = 53 */
(PID.TID 0000.0001)                -2.650000000000000E+01,      /* J = 54 */
(PID.TID 0000.0001)                -2.550000000000000E+01,      /* J = 55 */
(PID.TID 0000.0001)                -2.450000000000000E+01,      /* J = 56 */
(PID.TID 0000.0001)                -2.350000000000000E+01,      /* J = 57 */
(PID.TID 0000.0001)                -2.250000000000000E+01,      /* J = 58 */
(PID.TID 0000.0001)                -2.150000000000000E+01,      /* J = 59 */
(PID.TID 0000.0001)                -2.050000000000000E+01,      /* J = 60 */
(PID.TID 0000.0001)                -1.950000000000000E+01,      /* J = 61 */
(PID.TID 0000.0001)                -1.850000000000000E+01,      /* J = 62 */
(PID.TID 0000.0001)                -1.750000000000000E+01,      /* J = 63 */
(PID.TID 0000.0001)                -1.650000000000000E+01,      /* J = 64 */
(PID.TID 0000.0001)                -1.550000000000000E+01,      /* J = 65 */
(PID.TID 0000.0001)                -1.450000000000000E+01,      /* J = 66 */
(PID.TID 0000.0001)                -1.350000000000000E+01,      /* J = 67 */
(PID.TID 0000.0001)                -1.250000000000000E+01,      /* J = 68 */
(PID.TID 0000.0001)                -1.150000000000000E+01,      /* J = 69 */
(PID.TID 0000.0001)                -1.050000000000000E+01,      /* J = 70 */
(PID.TID 0000.0001)                -9.500000000000000E+00,      /* J = 71 */
(PID.TID 0000.0001)                -8.500000000000000E+00,      /* J = 72 */
(PID.TID 0000.0001)                -7.500000000000000E+00,      /* J = 73 */
(PID.TID 0000.0001)                -6.500000000000000E+00,      /* J = 74 */
(PID.TID 0000.0001)                -5.500000000000000E+00,      /* J = 75 */
(PID.TID 0000.0001)                -4.500000000000000E+00,      /* J = 76 */
(PID.TID 0000.0001)                -3.500000000000000E+00,      /* J = 77 */
(PID.TID 0000.0001)                -2.500000000000000E+00,      /* J = 78 */
(PID.TID 0000.0001)                -1.500000000000000E+00,      /* J = 79 */
(PID.TID 0000.0001)                -5.000000000000000E-01,      /* J = 80 */
(PID.TID 0000.0001)                 5.000000000000000E-01,      /* J = 81 */
(PID.TID 0000.0001)                 1.500000000000000E+00,      /* J = 82 */
(PID.TID 0000.0001)                 2.500000000000000E+00,      /* J = 83 */
(PID.TID 0000.0001)                 3.500000000000000E+00,      /* J = 84 */
(PID.TID 0000.0001)                 4.500000000000000E+00,      /* J = 85 */
(PID.TID 0000.0001)                 5.500000000000000E+00,      /* J = 86 */
(PID.TID 0000.0001)                 6.500000000000000E+00,      /* J = 87 */
(PID.TID 0000.0001)                 7.500000000000000E+00,      /* J = 88 */
(PID.TID 0000.0001)                 8.500000000000000E+00,      /* J = 89 */
(PID.TID 0000.0001)                 9.500000000000000E+00,      /* J = 90 */
(PID.TID 0000.0001)                 1.050000000000000E+01,      /* J = 91 */
(PID.TID 0000.0001)                 1.150000000000000E+01,      /* J = 92 */
(PID.TID 0000.0001)                 1.250000000000000E+01,      /* J = 93 */
(PID.TID 0000.0001)                 1.350000000000000E+01,      /* J = 94 */
(PID.TID 0000.0001)                 1.450000000000000E+01,      /* J = 95 */
(PID.TID 0000.0001)                 1.550000000000000E+01,      /* J = 96 */
(PID.TID 0000.0001)                 1.650000000000000E+01,      /* J = 97 */
(PID.TID 0000.0001)                 1.750000000000000E+01,      /* J = 98 */
(PID.TID 0000.0001)                 1.850000000000000E+01,      /* J = 99 */
(PID.TID 0000.0001)                 1.950000000000000E+01,      /* J =100 */
(PID.TID 0000.0001)                 2.050000000000000E+01,      /* J =101 */
(PID.TID 0000.0001)                 2.150000000000000E+01,      /* J =102 */
(PID.TID 0000.0001)                 2.250000000000000E+01,      /* J =103 */
(PID.TID 0000.0001)                 2.350000000000000E+01,      /* J =104 */
(PID.TID 0000.0001)                 2.450000000000000E+01,      /* J =105 */
(PID.TID 0000.0001)                 2.550000000000000E+01,      /* J =106 */
(PID.TID 0000.0001)                 2.650000000000000E+01,      /* J =107 */
(PID.TID 0000.0001)                 2.750000000000000E+01,      /* J =108 */
(PID.TID 0000.0001)                 2.850000000000000E+01,      /* J =109 */
(PID.TID 0000.0001)                 2.950000000000000E+01,      /* J =110 */
(PID.TID 0000.0001)                 3.050000000000000E+01,      /* J =111 */
(PID.TID 0000.0001)                 3.150000000000000E+01,      /* J =112 */
(PID.TID 0000.0001)                 3.250000000000000E+01,      /* J =113 */
(PID.TID 0000.0001)                 3.350000000000000E+01,      /* J =114 */
(PID.TID 0000.0001)                 3.450000000000000E+01,      /* J =115 */
(PID.TID 0000.0001)                 3.550000000000000E+01,      /* J =116 */
(PID.TID 0000.0001)                 3.650000000000000E+01,      /* J =117 */
(PID.TID 0000.0001)                 3.750000000000000E+01,      /* J =118 */
(PID.TID 0000.0001)                 3.850000000000000E+01,      /* J =119 */
(PID.TID 0000.0001)                 3.950000000000000E+01,      /* J =120 */
(PID.TID 0000.0001)                 4.050000000000000E+01,      /* J =121 */
(PID.TID 0000.0001)                 4.150000000000000E+01,      /* J =122 */
(PID.TID 0000.0001)                 4.250000000000000E+01,      /* J =123 */
(PID.TID 0000.0001)                 4.350000000000000E+01,      /* J =124 */
(PID.TID 0000.0001)                 4.450000000000000E+01,      /* J =125 */
(PID.TID 0000.0001)                 4.550000000000000E+01,      /* J =126 */
(PID.TID 0000.0001)                 4.650000000000000E+01,      /* J =127 */
(PID.TID 0000.0001)                 4.750000000000000E+01,      /* J =128 */
(PID.TID 0000.0001)                 4.850000000000000E+01,      /* J =129 */
(PID.TID 0000.0001)                 4.950000000000000E+01,      /* J =130 */
(PID.TID 0000.0001)                 5.050000000000000E+01,      /* J =131 */
(PID.TID 0000.0001)                 5.150000000000000E+01,      /* J =132 */
(PID.TID 0000.0001)                 5.250000000000000E+01,      /* J =133 */
(PID.TID 0000.0001)                 5.350000000000000E+01,      /* J =134 */
(PID.TID 0000.0001)                 5.450000000000000E+01,      /* J =135 */
(PID.TID 0000.0001)                 5.550000000000000E+01,      /* J =136 */
(PID.TID 0000.0001)                 5.650000000000000E+01,      /* J =137 */
(PID.TID 0000.0001)                 5.750000000000000E+01,      /* J =138 */
(PID.TID 0000.0001)                 5.850000000000000E+01,      /* J =139 */
(PID.TID 0000.0001)                 5.950000000000000E+01,      /* J =140 */
(PID.TID 0000.0001)                 6.050000000000000E+01,      /* J =141 */
(PID.TID 0000.0001)                 6.150000000000000E+01,      /* J =142 */
(PID.TID 0000.0001)                 6.250000000000000E+01,      /* J =143 */
(PID.TID 0000.0001)                 6.350000000000000E+01,      /* J =144 */
(PID.TID 0000.0001)                 6.450000000000000E+01,      /* J =145 */
(PID.TID 0000.0001)                 6.550000000000000E+01,      /* J =146 */
(PID.TID 0000.0001)                 6.650000000000000E+01,      /* J =147 */
(PID.TID 0000.0001)                 6.750000000000000E+01,      /* J =148 */
(PID.TID 0000.0001)                 6.850000000000000E+01,      /* J =149 */
(PID.TID 0000.0001)                 6.950000000000000E+01,      /* J =150 */
(PID.TID 0000.0001)                 7.050000000000000E+01,      /* J =151 */
(PID.TID 0000.0001)                 7.150000000000000E+01,      /* J =152 */
(PID.TID 0000.0001)                 7.250000000000000E+01,      /* J =153 */
(PID.TID 0000.0001)                 7.350000000000000E+01,      /* J =154 */
(PID.TID 0000.0001)                 7.450000000000000E+01,      /* J =155 */
(PID.TID 0000.0001)                 7.550000000000000E+01,      /* J =156 */
(PID.TID 0000.0001)                 7.650000000000000E+01,      /* J =157 */
(PID.TID 0000.0001)                 7.750000000000000E+01,      /* J =158 */
(PID.TID 0000.0001)                 7.850000000000000E+01,      /* J =159 */
(PID.TID 0000.0001)                 7.950000000000000E+01       /* J =160 */
(PID.TID 0000.0001)     ;
(PID.TID 0000.0001) rcoord =   /* P-point R coordinate (  units of r ) */
(PID.TID 0000.0001)                -1.250000000000000E+04,      /* K =  1 */
(PID.TID 0000.0001)                -3.750000000000000E+04,      /* K =  2 */
(PID.TID 0000.0001)                -6.250000000000000E+04,      /* K =  3 */
(PID.TID 0000.0001)                -8.750000000000000E+04,      /* K =  4 */
(PID.TID 0000.0001)                -1.125000000000000E+05,      /* K =  5 */
(PID.TID 0000.0001)                -1.375000000000000E+05,      /* K =  6 */
(PID.TID 0000.0001)                -1.625000000000000E+05,      /* K =  7 */
(PID.TID 0000.0001)                -1.875000000000000E+05,      /* K =  8 */
(PID.TID 0000.0001)                -2.125000000000000E+05,      /* K =  9 */
(PID.TID 0000.0001)                -2.375000000000000E+05,      /* K = 10 */
(PID.TID 0000.0001)                -2.625000000000000E+05,      /* K = 11 */
(PID.TID 0000.0001)                -2.875000000000000E+05,      /* K = 12 */
(PID.TID 0000.0001)                -3.125000000000000E+05,      /* K = 13 */
(PID.TID 0000.0001)                -3.375000000000000E+05,      /* K = 14 */
(PID.TID 0000.0001)                -3.625000000000000E+05,      /* K = 15 */
(PID.TID 0000.0001)                -3.875000000000000E+05,      /* K = 16 */
(PID.TID 0000.0001)                -4.125000000000000E+05,      /* K = 17 */
(PID.TID 0000.0001)                -4.375000000000000E+05,      /* K = 18 */
(PID.TID 0000.0001)                -4.625000000000000E+05,      /* K = 19 */
(PID.TID 0000.0001)                -4.875000000000000E+05,      /* K = 20 */
(PID.TID 0000.0001)                -5.125000000000000E+05,      /* K = 21 */
(PID.TID 0000.0001)                -5.375000000000000E+05,      /* K = 22 */
(PID.TID 0000.0001)                -5.625000000000000E+05,      /* K = 23 */
(PID.TID 0000.0001)                -5.875000000000000E+05,      /* K = 24 */
(PID.TID 0000.0001)                -6.125000000000000E+05,      /* K = 25 */
(PID.TID 0000.0001)                -6.375000000000000E+05,      /* K = 26 */
(PID.TID 0000.0001)                -6.625000000000000E+05,      /* K = 27 */
(PID.TID 0000.0001)                -6.875000000000000E+05,      /* K = 28 */
(PID.TID 0000.0001)                -7.125000000000000E+05,      /* K = 29 */
(PID.TID 0000.0001)                -7.375000000000000E+05,      /* K = 30 */
(PID.TID 0000.0001)                -7.625000000000000E+05,      /* K = 31 */
(PID.TID 0000.0001)                -7.875000000000000E+05,      /* K = 32 */
(PID.TID 0000.0001)                -8.125000000000000E+05,      /* K = 33 */
(PID.TID 0000.0001)                -8.375000000000000E+05,      /* K = 34 */
(PID.TID 0000.0001)                -8.625000000000000E+05,      /* K = 35 */
(PID.TID 0000.0001)                -8.875000000000000E+05,      /* K = 36 */
(PID.TID 0000.0001)                -9.125000000000000E+05,      /* K = 37 */
(PID.TID 0000.0001)                -9.375000000000000E+05,      /* K = 38 */
(PID.TID 0000.0001)                -9.625000000000000E+05,      /* K = 39 */
(PID.TID 0000.0001)                -9.875000000000000E+05,      /* K = 40 */
(PID.TID 0000.0001)                -1.012500000000000E+06,      /* K = 41 */
(PID.TID 0000.0001)                -1.037500000000000E+06,      /* K = 42 */
(PID.TID 0000.0001)                -1.062500000000000E+06,      /* K = 43 */
(PID.TID 0000.0001)                -1.087500000000000E+06,      /* K = 44 */
(PID.TID 0000.0001)                -1.112500000000000E+06,      /* K = 45 */
(PID.TID 0000.0001)                -1.137500000000000E+06,      /* K = 46 */
(PID.TID 0000.0001)                -1.162500000000000E+06,      /* K = 47 */
(PID.TID 0000.0001)                -1.187500000000000E+06,      /* K = 48 */
(PID.TID 0000.0001)                -1.212500000000000E+06,      /* K = 49 */
(PID.TID 0000.0001)                -1.237500000000000E+06,      /* K = 50 */
(PID.TID 0000.0001)                -1.262500000000000E+06,      /* K = 51 */
(PID.TID 0000.0001)                -1.287500000000000E+06,      /* K = 52 */
(PID.TID 0000.0001)                -1.312500000000000E+06,      /* K = 53 */
(PID.TID 0000.0001)                -1.337500000000000E+06,      /* K = 54 */
(PID.TID 0000.0001)                -1.362500000000000E+06,      /* K = 55 */
(PID.TID 0000.0001)                -1.387500000000000E+06,      /* K = 56 */
(PID.TID 0000.0001)                -1.412500000000000E+06,      /* K = 57 */
(PID.TID 0000.0001)                -1.437500000000000E+06,      /* K = 58 */
(PID.TID 0000.0001)                -1.462500000000000E+06,      /* K = 59 */
(PID.TID 0000.0001)                -1.487500000000000E+06,      /* K = 60 */
(PID.TID 0000.0001)                -1.512500000000000E+06,      /* K = 61 */
(PID.TID 0000.0001)                -1.537500000000000E+06,      /* K = 62 */
(PID.TID 0000.0001)                -1.562500000000000E+06,      /* K = 63 */
(PID.TID 0000.0001)                -1.587500000000000E+06,      /* K = 64 */
(PID.TID 0000.0001)                -1.612500000000000E+06,      /* K = 65 */
(PID.TID 0000.0001)                -1.637500000000000E+06,      /* K = 66 */
(PID.TID 0000.0001)                -1.662500000000000E+06,      /* K = 67 */
(PID.TID 0000.0001)                -1.687500000000000E+06,      /* K = 68 */
(PID.TID 0000.0001)                -1.712500000000000E+06,      /* K = 69 */
(PID.TID 0000.0001)                -1.737500000000000E+06,      /* K = 70 */
(PID.TID 0000.0001)                -1.762500000000000E+06,      /* K = 71 */
(PID.TID 0000.0001)                -1.787500000000000E+06,      /* K = 72 */
(PID.TID 0000.0001)                -1.812500000000000E+06,      /* K = 73 */
(PID.TID 0000.0001)                -1.837500000000000E+06,      /* K = 74 */
(PID.TID 0000.0001)                -1.862500000000000E+06,      /* K = 75 */
(PID.TID 0000.0001)                -1.887500000000000E+06,      /* K = 76 */
(PID.TID 0000.0001)                -1.912500000000000E+06,      /* K = 77 */
(PID.TID 0000.0001)                -1.937500000000000E+06,      /* K = 78 */
(PID.TID 0000.0001)                -1.962500000000000E+06,      /* K = 79 */
(PID.TID 0000.0001)                -1.987500000000000E+06,      /* K = 80 */
(PID.TID 0000.0001)                -2.012500000000000E+06,      /* K = 81 */
(PID.TID 0000.0001)                -2.037500000000000E+06,      /* K = 82 */
(PID.TID 0000.0001)                -2.062500000000000E+06,      /* K = 83 */
(PID.TID 0000.0001)                -2.087500000000000E+06,      /* K = 84 */
(PID.TID 0000.0001)                -2.112500000000000E+06,      /* K = 85 */
(PID.TID 0000.0001)                -2.137500000000000E+06,      /* K = 86 */
(PID.TID 0000.0001)                -2.162500000000000E+06,      /* K = 87 */
(PID.TID 0000.0001)                -2.187500000000000E+06,      /* K = 88 */
(PID.TID 0000.0001)                -2.212500000000000E+06,      /* K = 89 */
(PID.TID 0000.0001)                -2.237500000000000E+06,      /* K = 90 */
(PID.TID 0000.0001)                -2.262500000000000E+06,      /* K = 91 */
(PID.TID 0000.0001)                -2.287500000000000E+06,      /* K = 92 */
(PID.TID 0000.0001)                -2.312500000000000E+06,      /* K = 93 */
(PID.TID 0000.0001)                -2.337500000000000E+06,      /* K = 94 */
(PID.TID 0000.0001)                -2.362500000000000E+06,      /* K = 95 */
(PID.TID 0000.0001)                -2.387500000000000E+06,      /* K = 96 */
(PID.TID 0000.0001)                -2.412500000000000E+06,      /* K = 97 */
(PID.TID 0000.0001)                -2.437500000000000E+06,      /* K = 98 */
(PID.TID 0000.0001)                -2.462500000000000E+06,      /* K = 99 */
(PID.TID 0000.0001)                -2.487500000000000E+06,      /* K =100 */
(PID.TID 0000.0001)                -2.512500000000000E+06,      /* K =101 */
(PID.TID 0000.0001)                -2.537500000000000E+06,      /* K =102 */
(PID.TID 0000.0001)                -2.562500000000000E+06,      /* K =103 */
(PID.TID 0000.0001)                -2.587500000000000E+06,      /* K =104 */
(PID.TID 0000.0001)                -2.612500000000000E+06,      /* K =105 */
(PID.TID 0000.0001)                -2.637500000000000E+06,      /* K =106 */
(PID.TID 0000.0001)                -2.662500000000000E+06,      /* K =107 */
(PID.TID 0000.0001)                -2.687500000000000E+06,      /* K =108 */
(PID.TID 0000.0001)                -2.712500000000000E+06,      /* K =109 */
(PID.TID 0000.0001)                -2.737500000000000E+06,      /* K =110 */
(PID.TID 0000.0001)                -2.762500000000000E+06,      /* K =111 */
(PID.TID 0000.0001)                -2.787500000000000E+06,      /* K =112 */
(PID.TID 0000.0001)                -2.812500000000000E+06,      /* K =113 */
(PID.TID 0000.0001)                -2.837500000000000E+06,      /* K =114 */
(PID.TID 0000.0001)                -2.862500000000000E+06,      /* K =115 */
(PID.TID 0000.0001)                -2.887500000000000E+06,      /* K =116 */
(PID.TID 0000.0001)                -2.912500000000000E+06,      /* K =117 */
(PID.TID 0000.0001)                -2.937500000000000E+06,      /* K =118 */
(PID.TID 0000.0001)                -2.962500000000000E+06,      /* K =119 */
(PID.TID 0000.0001)                -2.987500000000000E+06       /* K =120 */
(PID.TID 0000.0001)     ;
(PID.TID 0000.0001) rF =   /* W-Interf. R coordinate (  units of r ) */
(PID.TID 0000.0001)                 0.000000000000000E+00,      /* K =  1 */
(PID.TID 0000.0001)                -2.500000000000000E+04,      /* K =  2 */
(PID.TID 0000.0001)                -5.000000000000000E+04,      /* K =  3 */
(PID.TID 0000.0001)                -7.500000000000000E+04,      /* K =  4 */
(PID.TID 0000.0001)                -1.000000000000000E+05,      /* K =  5 */
(PID.TID 0000.0001)                -1.250000000000000E+05,      /* K =  6 */
(PID.TID 0000.0001)                -1.500000000000000E+05,      /* K =  7 */
(PID.TID 0000.0001)                -1.750000000000000E+05,      /* K =  8 */
(PID.TID 0000.0001)                -2.000000000000000E+05,      /* K =  9 */
(PID.TID 0000.0001)                -2.250000000000000E+05,      /* K = 10 */
(PID.TID 0000.0001)                -2.500000000000000E+05,      /* K = 11 */
(PID.TID 0000.0001)                -2.750000000000000E+05,      /* K = 12 */
(PID.TID 0000.0001)                -3.000000000000000E+05,      /* K = 13 */
(PID.TID 0000.0001)                -3.250000000000000E+05,      /* K = 14 */
(PID.TID 0000.0001)                -3.500000000000000E+05,      /* K = 15 */
(PID.TID 0000.0001)                -3.750000000000000E+05,      /* K = 16 */
(PID.TID 0000.0001)                -4.000000000000000E+05,      /* K = 17 */
(PID.TID 0000.0001)                -4.250000000000000E+05,      /* K = 18 */
(PID.TID 0000.0001)                -4.500000000000000E+05,      /* K = 19 */
(PID.TID 0000.0001)                -4.750000000000000E+05,      /* K = 20 */
(PID.TID 0000.0001)                -5.000000000000000E+05,      /* K = 21 */
(PID.TID 0000.0001)                -5.250000000000000E+05,      /* K = 22 */
(PID.TID 0000.0001)                -5.500000000000000E+05,      /* K = 23 */
(PID.TID 0000.0001)                -5.750000000000000E+05,      /* K = 24 */
(PID.TID 0000.0001)                -6.000000000000000E+05,      /* K = 25 */
(PID.TID 0000.0001)                -6.250000000000000E+05,      /* K = 26 */
(PID.TID 0000.0001)                -6.500000000000000E+05,      /* K = 27 */
(PID.TID 0000.0001)                -6.750000000000000E+05,      /* K = 28 */
(PID.TID 0000.0001)                -7.000000000000000E+05,      /* K = 29 */
(PID.TID 0000.0001)                -7.250000000000000E+05,      /* K = 30 */
(PID.TID 0000.0001)                -7.500000000000000E+05,      /* K = 31 */
(PID.TID 0000.0001)                -7.750000000000000E+05,      /* K = 32 */
(PID.TID 0000.0001)                -8.000000000000000E+05,      /* K = 33 */
(PID.TID 0000.0001)                -8.250000000000000E+05,      /* K = 34 */
(PID.TID 0000.0001)                -8.500000000000000E+05,      /* K = 35 */
(PID.TID 0000.0001)                -8.750000000000000E+05,      /* K = 36 */
(PID.TID 0000.0001)                -9.000000000000000E+05,      /* K = 37 */
(PID.TID 0000.0001)                -9.250000000000000E+05,      /* K = 38 */
(PID.TID 0000.0001)                -9.500000000000000E+05,      /* K = 39 */
(PID.TID 0000.0001)                -9.750000000000000E+05,      /* K = 40 */
(PID.TID 0000.0001)                -1.000000000000000E+06,      /* K = 41 */
(PID.TID 0000.0001)                -1.025000000000000E+06,      /* K = 42 */
(PID.TID 0000.0001)                -1.050000000000000E+06,      /* K = 43 */
(PID.TID 0000.0001)                -1.075000000000000E+06,      /* K = 44 */
(PID.TID 0000.0001)                -1.100000000000000E+06,      /* K = 45 */
(PID.TID 0000.0001)                -1.125000000000000E+06,      /* K = 46 */
(PID.TID 0000.0001)                -1.150000000000000E+06,      /* K = 47 */
(PID.TID 0000.0001)                -1.175000000000000E+06,      /* K = 48 */
(PID.TID 0000.0001)                -1.200000000000000E+06,      /* K = 49 */
(PID.TID 0000.0001)                -1.225000000000000E+06,      /* K = 50 */
(PID.TID 0000.0001)                -1.250000000000000E+06,      /* K = 51 */
(PID.TID 0000.0001)                -1.275000000000000E+06,      /* K = 52 */
(PID.TID 0000.0001)                -1.300000000000000E+06,      /* K = 53 */
(PID.TID 0000.0001)                -1.325000000000000E+06,      /* K = 54 */
(PID.TID 0000.0001)                -1.350000000000000E+06,      /* K = 55 */
(PID.TID 0000.0001)                -1.375000000000000E+06,      /* K = 56 */
(PID.TID 0000.0001)                -1.400000000000000E+06,      /* K = 57 */
(PID.TID 0000.0001)                -1.425000000000000E+06,      /* K = 58 */
(PID.TID 0000.0001)                -1.450000000000000E+06,      /* K = 59 */
(PID.TID 0000.0001)                -1.475000000000000E+06,      /* K = 60 */
(PID.TID 0000.0001)                -1.500000000000000E+06,      /* K = 61 */
(PID.TID 0000.0001)                -1.525000000000000E+06,      /* K = 62 */
(PID.TID 0000.0001)                -1.550000000000000E+06,      /* K = 63 */
(PID.TID 0000.0001)                -1.575000000000000E+06,      /* K = 64 */
(PID.TID 0000.0001)                -1.600000000000000E+06,      /* K = 65 */
(PID.TID 0000.0001)                -1.625000000000000E+06,      /* K = 66 */
(PID.TID 0000.0001)                -1.650000000000000E+06,      /* K = 67 */
(PID.TID 0000.0001)                -1.675000000000000E+06,      /* K = 68 */
(PID.TID 0000.0001)                -1.700000000000000E+06,      /* K = 69 */
(PID.TID 0000.0001)                -1.725000000000000E+06,      /* K = 70 */
(PID.TID 0000.0001)                -1.750000000000000E+06,      /* K = 71 */
(PID.TID 0000.0001)                -1.775000000000000E+06,      /* K = 72 */
(PID.TID 0000.0001)                -1.800000000000000E+06,      /* K = 73 */
(PID.TID 0000.0001)                -1.825000000000000E+06,      /* K = 74 */
(PID.TID 0000.0001)                -1.850000000000000E+06,      /* K = 75 */
(PID.TID 0000.0001)                -1.875000000000000E+06,      /* K = 76 */
(PID.TID 0000.0001)                -1.900000000000000E+06,      /* K = 77 */
(PID.TID 0000.0001)                -1.925000000000000E+06,      /* K = 78 */
(PID.TID 0000.0001)                -1.950000000000000E+06,      /* K = 79 */
(PID.TID 0000.0001)                -1.975000000000000E+06,      /* K = 80 */
(PID.TID 0000.0001)                -2.000000000000000E+06,      /* K = 81 */
(PID.TID 0000.0001)                -2.025000000000000E+06,      /* K = 82 */
(PID.TID 0000.0001)                -2.050000000000000E+06,      /* K = 83 */
(PID.TID 0000.0001)                -2.075000000000000E+06,      /* K = 84 */
(PID.TID 0000.0001)                -2.100000000000000E+06,      /* K = 85 */
(PID.TID 0000.0001)                -2.125000000000000E+06,      /* K = 86 */
(PID.TID 0000.0001)                -2.150000000000000E+06,      /* K = 87 */
(PID.TID 0000.0001)                -2.175000000000000E+06,      /* K = 88 */
(PID.TID 0000.0001)                -2.200000000000000E+06,      /* K = 89 */
(PID.TID 0000.0001)                -2.225000000000000E+06,      /* K = 90 */
(PID.TID 0000.0001)                -2.250000000000000E+06,      /* K = 91 */
(PID.TID 0000.0001)                -2.275000000000000E+06,      /* K = 92 */
(PID.TID 0000.0001)                -2.300000000000000E+06,      /* K = 93 */
(PID.TID 0000.0001)                -2.325000000000000E+06,      /* K = 94 */
(PID.TID 0000.0001)                -2.350000000000000E+06,      /* K = 95 */
(PID.TID 0000.0001)                -2.375000000000000E+06,      /* K = 96 */
(PID.TID 0000.0001)                -2.400000000000000E+06,      /* K = 97 */
(PID.TID 0000.0001)                -2.425000000000000E+06,      /* K = 98 */
(PID.TID 0000.0001)                -2.450000000000000E+06,      /* K = 99 */
(PID.TID 0000.0001)                -2.475000000000000E+06,      /* K =100 */
(PID.TID 0000.0001)                -2.500000000000000E+06,      /* K =101 */
(PID.TID 0000.0001)                -2.525000000000000E+06,      /* K =102 */
(PID.TID 0000.0001)                -2.550000000000000E+06,      /* K =103 */
(PID.TID 0000.0001)                -2.575000000000000E+06,      /* K =104 */
(PID.TID 0000.0001)                -2.600000000000000E+06,      /* K =105 */
(PID.TID 0000.0001)                -2.625000000000000E+06,      /* K =106 */
(PID.TID 0000.0001)                -2.650000000000000E+06,      /* K =107 */
(PID.TID 0000.0001)                -2.675000000000000E+06,      /* K =108 */
(PID.TID 0000.0001)                -2.700000000000000E+06,      /* K =109 */
(PID.TID 0000.0001)                -2.725000000000000E+06,      /* K =110 */
(PID.TID 0000.0001)                -2.750000000000000E+06,      /* K =111 */
(PID.TID 0000.0001)                -2.775000000000000E+06,      /* K =112 */
(PID.TID 0000.0001)                -2.800000000000000E+06,      /* K =113 */
(PID.TID 0000.0001)                -2.825000000000000E+06,      /* K =114 */
(PID.TID 0000.0001)                -2.850000000000000E+06,      /* K =115 */
(PID.TID 0000.0001)                -2.875000000000000E+06,      /* K =116 */
(PID.TID 0000.0001)                -2.900000000000000E+06,      /* K =117 */
(PID.TID 0000.0001)                -2.925000000000000E+06,      /* K =118 */
(PID.TID 0000.0001)                -2.950000000000000E+06,      /* K =119 */
(PID.TID 0000.0001)                -2.975000000000000E+06,      /* K =120 */
(PID.TID 0000.0001)                -3.000000000000000E+06       /* K =121 */
(PID.TID 0000.0001)     ;
(PID.TID 0000.0001) deepFacC = /* deep-model grid factor @ cell-Center (-) */
(PID.TID 0000.0001)                 9.980376766091051E-01,      /* K =  1 */
(PID.TID 0000.0001)                 9.941130298273155E-01,      /* K =  2 */
(PID.TID 0000.0001)                 9.901883830455259E-01,      /* K =  3 */
(PID.TID 0000.0001)                 9.862637362637363E-01,      /* K =  4 */
(PID.TID 0000.0001)                 9.823390894819466E-01,      /* K =  5 */
(PID.TID 0000.0001)                 9.784144427001570E-01,      /* K =  6 */
(PID.TID 0000.0001)                 9.744897959183674E-01,      /* K =  7 */
(PID.TID 0000.0001)                 9.705651491365778E-01,      /* K =  8 */
(PID.TID 0000.0001)                 9.666405023547880E-01,      /* K =  9 */
(PID.TID 0000.0001)                 9.627158555729984E-01,      /* K = 10 */
(PID.TID 0000.0001)                 9.587912087912088E-01,      /* K = 11 */
(PID.TID 0000.0001)                 9.548665620094192E-01,      /* K = 12 */
(PID.TID 0000.0001)                 9.509419152276295E-01,      /* K = 13 */
(PID.TID 0000.0001)                 9.470172684458399E-01,      /* K = 14 */
(PID.TID 0000.0001)                 9.430926216640503E-01,      /* K = 15 */
(PID.TID 0000.0001)                 9.391679748822606E-01,      /* K = 16 */
(PID.TID 0000.0001)                 9.352433281004709E-01,      /* K = 17 */
(PID.TID 0000.0001)                 9.313186813186813E-01,      /* K = 18 */
(PID.TID 0000.0001)                 9.273940345368917E-01,      /* K = 19 */
(PID.TID 0000.0001)                 9.234693877551020E-01,      /* K = 20 */
(PID.TID 0000.0001)                 9.195447409733124E-01,      /* K = 21 */
(PID.TID 0000.0001)                 9.156200941915228E-01,      /* K = 22 */
(PID.TID 0000.0001)                 9.116954474097332E-01,      /* K = 23 */
(PID.TID 0000.0001)                 9.077708006279435E-01,      /* K = 24 */
(PID.TID 0000.0001)                 9.038461538461539E-01,      /* K = 25 */
(PID.TID 0000.0001)                 8.999215070643642E-01,      /* K = 26 */
(PID.TID 0000.0001)                 8.959968602825745E-01,      /* K = 27 */
(PID.TID 0000.0001)                 8.920722135007849E-01,      /* K = 28 */
(PID.TID 0000.0001)                 8.881475667189953E-01,      /* K = 29 */
(PID.TID 0000.0001)                 8.842229199372057E-01,      /* K = 30 */
(PID.TID 0000.0001)                 8.802982731554160E-01,      /* K = 31 */
(PID.TID 0000.0001)                 8.763736263736264E-01,      /* K = 32 */
(PID.TID 0000.0001)                 8.724489795918368E-01,      /* K = 33 */
(PID.TID 0000.0001)                 8.685243328100472E-01,      /* K = 34 */
(PID.TID 0000.0001)                 8.645996860282574E-01,      /* K = 35 */
(PID.TID 0000.0001)                 8.606750392464678E-01,      /* K = 36 */
(PID.TID 0000.0001)                 8.567503924646782E-01,      /* K = 37 */
(PID.TID 0000.0001)                 8.528257456828886E-01,      /* K = 38 */
(PID.TID 0000.0001)                 8.489010989010989E-01,      /* K = 39 */
(PID.TID 0000.0001)                 8.449764521193093E-01,      /* K = 40 */
(PID.TID 0000.0001)                 8.410518053375197E-01,      /* K = 41 */
(PID.TID 0000.0001)                 8.371271585557299E-01,      /* K = 42 */
(PID.TID 0000.0001)                 8.332025117739403E-01,      /* K = 43 */
(PID.TID 0000.0001)                 8.292778649921507E-01,      /* K = 44 */
(PID.TID 0000.0001)                 8.253532182103611E-01,      /* K = 45 */
(PID.TID 0000.0001)                 8.214285714285714E-01,      /* K = 46 */
(PID.TID 0000.0001)                 8.175039246467818E-01,      /* K = 47 */
(PID.TID 0000.0001)                 8.135792778649922E-01,      /* K = 48 */
(PID.TID 0000.0001)                 8.096546310832026E-01,      /* K = 49 */
(PID.TID 0000.0001)                 8.057299843014128E-01,      /* K = 50 */
(PID.TID 0000.0001)                 8.018053375196232E-01,      /* K = 51 */
(PID.TID 0000.0001)                 7.978806907378336E-01,      /* K = 52 */
(PID.TID 0000.0001)                 7.939560439560439E-01,      /* K = 53 */
(PID.TID 0000.0001)                 7.900313971742543E-01,      /* K = 54 */
(PID.TID 0000.0001)                 7.861067503924647E-01,      /* K = 55 */
(PID.TID 0000.0001)                 7.821821036106751E-01,      /* K = 56 */
(PID.TID 0000.0001)                 7.782574568288854E-01,      /* K = 57 */
(PID.TID 0000.0001)                 7.743328100470958E-01,      /* K = 58 */
(PID.TID 0000.0001)                 7.704081632653061E-01,      /* K = 59 */
(PID.TID 0000.0001)                 7.664835164835165E-01,      /* K = 60 */
(PID.TID 0000.0001)                 7.625588697017268E-01,      /* K = 61 */
(PID.TID 0000.0001)                 7.586342229199372E-01,      /* K = 62 */
(PID.TID 0000.0001)                 7.547095761381476E-01,      /* K = 63 */
(PID.TID 0000.0001)                 7.507849293563580E-01,      /* K = 64 */
(PID.TID 0000.0001)                 7.468602825745683E-01,      /* K = 65 */
(PID.TID 0000.0001)                 7.429356357927787E-01,      /* K = 66 */
(PID.TID 0000.0001)                 7.390109890109891E-01,      /* K = 67 */
(PID.TID 0000.0001)                 7.350863422291993E-01,      /* K = 68 */
(PID.TID 0000.0001)                 7.311616954474097E-01,      /* K = 69 */
(PID.TID 0000.0001)                 7.272370486656201E-01,      /* K = 70 */
(PID.TID 0000.0001)                 7.233124018838305E-01,      /* K = 71 */
(PID.TID 0000.0001)                 7.193877551020408E-01,      /* K = 72 */
(PID.TID 0000.0001)                 7.154631083202512E-01,      /* K = 73 */
(PID.TID 0000.0001)                 7.115384615384616E-01,      /* K = 74 */
(PID.TID 0000.0001)                 7.076138147566720E-01,      /* K = 75 */
(PID.TID 0000.0001)                 7.036891679748822E-01,      /* K = 76 */
(PID.TID 0000.0001)                 6.997645211930926E-01,      /* K = 77 */
(PID.TID 0000.0001)                 6.958398744113030E-01,      /* K = 78 */
(PID.TID 0000.0001)                 6.919152276295133E-01,      /* K = 79 */
(PID.TID 0000.0001)                 6.879905808477237E-01,      /* K = 80 */
(PID.TID 0000.0001)                 6.840659340659341E-01,      /* K = 81 */
(PID.TID 0000.0001)                 6.801412872841445E-01,      /* K = 82 */
(PID.TID 0000.0001)                 6.762166405023547E-01,      /* K = 83 */
(PID.TID 0000.0001)                 6.722919937205651E-01,      /* K = 84 */
(PID.TID 0000.0001)                 6.683673469387755E-01,      /* K = 85 */
(PID.TID 0000.0001)                 6.644427001569859E-01,      /* K = 86 */
(PID.TID 0000.0001)                 6.605180533751962E-01,      /* K = 87 */
(PID.TID 0000.0001)                 6.565934065934066E-01,      /* K = 88 */
(PID.TID 0000.0001)                 6.526687598116170E-01,      /* K = 89 */
(PID.TID 0000.0001)                 6.487441130298274E-01,      /* K = 90 */
(PID.TID 0000.0001)                 6.448194662480377E-01,      /* K = 91 */
(PID.TID 0000.0001)                 6.408948194662480E-01,      /* K = 92 */
(PID.TID 0000.0001)                 6.369701726844584E-01,      /* K = 93 */
(PID.TID 0000.0001)                 6.330455259026687E-01,      /* K = 94 */
(PID.TID 0000.0001)                 6.291208791208791E-01,      /* K = 95 */
(PID.TID 0000.0001)                 6.251962323390895E-01,      /* K = 96 */
(PID.TID 0000.0001)                 6.212715855572999E-01,      /* K = 97 */
(PID.TID 0000.0001)                 6.173469387755102E-01,      /* K = 98 */
(PID.TID 0000.0001)                 6.134222919937206E-01,      /* K = 99 */
(PID.TID 0000.0001)                 6.094976452119309E-01,      /* K =100 */
(PID.TID 0000.0001)                 6.055729984301413E-01,      /* K =101 */
(PID.TID 0000.0001)                 6.016483516483516E-01,      /* K =102 */
(PID.TID 0000.0001)                 5.977237048665620E-01,      /* K =103 */
(PID.TID 0000.0001)                 5.937990580847724E-01,      /* K =104 */
(PID.TID 0000.0001)                 5.898744113029828E-01,      /* K =105 */
(PID.TID 0000.0001)                 5.859497645211931E-01,      /* K =106 */
(PID.TID 0000.0001)                 5.820251177394035E-01,      /* K =107 */
(PID.TID 0000.0001)                 5.781004709576139E-01,      /* K =108 */
(PID.TID 0000.0001)                 5.741758241758241E-01,      /* K =109 */
(PID.TID 0000.0001)                 5.702511773940345E-01,      /* K =110 */
(PID.TID 0000.0001)                 5.663265306122449E-01,      /* K =111 */
(PID.TID 0000.0001)                 5.624018838304553E-01,      /* K =112 */
(PID.TID 0000.0001)                 5.584772370486656E-01,      /* K =113 */
(PID.TID 0000.0001)                 5.545525902668760E-01,      /* K =114 */
(PID.TID 0000.0001)                 5.506279434850864E-01,      /* K =115 */
(PID.TID 0000.0001)                 5.467032967032968E-01,      /* K =116 */
(PID.TID 0000.0001)                 5.427786499215070E-01,      /* K =117 */
(PID.TID 0000.0001)                 5.388540031397174E-01,      /* K =118 */
(PID.TID 0000.0001)                 5.349293563579278E-01,      /* K =119 */
(PID.TID 0000.0001)                 5.310047095761381E-01       /* K =120 */
(PID.TID 0000.0001)     ;
(PID.TID 0000.0001) deepFacF = /* deep-model grid factor @ W-Interface (-) */
(PID.TID 0000.0001)                 1.000000000000000E+00,      /* K =  1 */
(PID.TID 0000.0001)                 9.960753532182104E-01,      /* K =  2 */
(PID.TID 0000.0001)                 9.921507064364208E-01,      /* K =  3 */
(PID.TID 0000.0001)                 9.882260596546311E-01,      /* K =  4 */
(PID.TID 0000.0001)                 9.843014128728415E-01,      /* K =  5 */
(PID.TID 0000.0001)                 9.803767660910518E-01,      /* K =  6 */
(PID.TID 0000.0001)                 9.764521193092621E-01,      /* K =  7 */
(PID.TID 0000.0001)                 9.725274725274725E-01,      /* K =  8 */
(PID.TID 0000.0001)                 9.686028257456829E-01,      /* K =  9 */
(PID.TID 0000.0001)                 9.646781789638933E-01,      /* K = 10 */
(PID.TID 0000.0001)                 9.607535321821036E-01,      /* K = 11 */
(PID.TID 0000.0001)                 9.568288854003140E-01,      /* K = 12 */
(PID.TID 0000.0001)                 9.529042386185244E-01,      /* K = 13 */
(PID.TID 0000.0001)                 9.489795918367347E-01,      /* K = 14 */
(PID.TID 0000.0001)                 9.450549450549450E-01,      /* K = 15 */
(PID.TID 0000.0001)                 9.411302982731554E-01,      /* K = 16 */
(PID.TID 0000.0001)                 9.372056514913658E-01,      /* K = 17 */
(PID.TID 0000.0001)                 9.332810047095762E-01,      /* K = 18 */
(PID.TID 0000.0001)                 9.293563579277865E-01,      /* K = 19 */
(PID.TID 0000.0001)                 9.254317111459969E-01,      /* K = 20 */
(PID.TID 0000.0001)                 9.215070643642073E-01,      /* K = 21 */
(PID.TID 0000.0001)                 9.175824175824175E-01,      /* K = 22 */
(PID.TID 0000.0001)                 9.136577708006279E-01,      /* K = 23 */
(PID.TID 0000.0001)                 9.097331240188383E-01,      /* K = 24 */
(PID.TID 0000.0001)                 9.058084772370487E-01,      /* K = 25 */
(PID.TID 0000.0001)                 9.018838304552590E-01,      /* K = 26 */
(PID.TID 0000.0001)                 8.979591836734694E-01,      /* K = 27 */
(PID.TID 0000.0001)                 8.940345368916798E-01,      /* K = 28 */
(PID.TID 0000.0001)                 8.901098901098902E-01,      /* K = 29 */
(PID.TID 0000.0001)                 8.861852433281004E-01,      /* K = 30 */
(PID.TID 0000.0001)                 8.822605965463108E-01,      /* K = 31 */
(PID.TID 0000.0001)                 8.783359497645212E-01,      /* K = 32 */
(PID.TID 0000.0001)                 8.744113029827316E-01,      /* K = 33 */
(PID.TID 0000.0001)                 8.704866562009419E-01,      /* K = 34 */
(PID.TID 0000.0001)                 8.665620094191523E-01,      /* K = 35 */
(PID.TID 0000.0001)                 8.626373626373627E-01,      /* K = 36 */
(PID.TID 0000.0001)                 8.587127158555730E-01,      /* K = 37 */
(PID.TID 0000.0001)                 8.547880690737834E-01,      /* K = 38 */
(PID.TID 0000.0001)                 8.508634222919937E-01,      /* K = 39 */
(PID.TID 0000.0001)                 8.469387755102041E-01,      /* K = 40 */
(PID.TID 0000.0001)                 8.430141287284144E-01,      /* K = 41 */
(PID.TID 0000.0001)                 8.390894819466248E-01,      /* K = 42 */
(PID.TID 0000.0001)                 8.351648351648352E-01,      /* K = 43 */
(PID.TID 0000.0001)                 8.312401883830456E-01,      /* K = 44 */
(PID.TID 0000.0001)                 8.273155416012559E-01,      /* K = 45 */
(PID.TID 0000.0001)                 8.233908948194663E-01,      /* K = 46 */
(PID.TID 0000.0001)                 8.194662480376766E-01,      /* K = 47 */
(PID.TID 0000.0001)                 8.155416012558869E-01,      /* K = 48 */
(PID.TID 0000.0001)                 8.116169544740973E-01,      /* K = 49 */
(PID.TID 0000.0001)                 8.076923076923077E-01,      /* K = 50 */
(PID.TID 0000.0001)                 8.037676609105181E-01,      /* K = 51 */
(PID.TID 0000.0001)                 7.998430141287284E-01,      /* K = 52 */
(PID.TID 0000.0001)                 7.959183673469388E-01,      /* K = 53 */
(PID.TID 0000.0001)                 7.919937205651492E-01,      /* K = 54 */
(PID.TID 0000.0001)                 7.880690737833596E-01,      /* K = 55 */
(PID.TID 0000.0001)                 7.841444270015698E-01,      /* K = 56 */
(PID.TID 0000.0001)                 7.802197802197802E-01,      /* K = 57 */
(PID.TID 0000.0001)                 7.762951334379906E-01,      /* K = 58 */
(PID.TID 0000.0001)                 7.723704866562010E-01,      /* K = 59 */
(PID.TID 0000.0001)                 7.684458398744113E-01,      /* K = 60 */
(PID.TID 0000.0001)                 7.645211930926217E-01,      /* K = 61 */
(PID.TID 0000.0001)                 7.605965463108321E-01,      /* K = 62 */
(PID.TID 0000.0001)                 7.566718995290423E-01,      /* K = 63 */
(PID.TID 0000.0001)                 7.527472527472527E-01,      /* K = 64 */
(PID.TID 0000.0001)                 7.488226059654631E-01,      /* K = 65 */
(PID.TID 0000.0001)                 7.448979591836735E-01,      /* K = 66 */
(PID.TID 0000.0001)                 7.409733124018838E-01,      /* K = 67 */
(PID.TID 0000.0001)                 7.370486656200942E-01,      /* K = 68 */
(PID.TID 0000.0001)                 7.331240188383046E-01,      /* K = 69 */
(PID.TID 0000.0001)                 7.291993720565150E-01,      /* K = 70 */
(PID.TID 0000.0001)                 7.252747252747253E-01,      /* K = 71 */
(PID.TID 0000.0001)                 7.213500784929356E-01,      /* K = 72 */
(PID.TID 0000.0001)                 7.174254317111460E-01,      /* K = 73 */
(PID.TID 0000.0001)                 7.135007849293563E-01,      /* K = 74 */
(PID.TID 0000.0001)                 7.095761381475667E-01,      /* K = 75 */
(PID.TID 0000.0001)                 7.056514913657771E-01,      /* K = 76 */
(PID.TID 0000.0001)                 7.017268445839875E-01,      /* K = 77 */
(PID.TID 0000.0001)                 6.978021978021978E-01,      /* K = 78 */
(PID.TID 0000.0001)                 6.938775510204082E-01,      /* K = 79 */
(PID.TID 0000.0001)                 6.899529042386185E-01,      /* K = 80 */
(PID.TID 0000.0001)                 6.860282574568289E-01,      /* K = 81 */
(PID.TID 0000.0001)                 6.821036106750392E-01,      /* K = 82 */
(PID.TID 0000.0001)                 6.781789638932496E-01,      /* K = 83 */
(PID.TID 0000.0001)                 6.742543171114600E-01,      /* K = 84 */
(PID.TID 0000.0001)                 6.703296703296704E-01,      /* K = 85 */
(PID.TID 0000.0001)                 6.664050235478807E-01,      /* K = 86 */
(PID.TID 0000.0001)                 6.624803767660911E-01,      /* K = 87 */
(PID.TID 0000.0001)                 6.585557299843015E-01,      /* K = 88 */
(PID.TID 0000.0001)                 6.546310832025117E-01,      /* K = 89 */
(PID.TID 0000.0001)                 6.507064364207221E-01,      /* K = 90 */
(PID.TID 0000.0001)                 6.467817896389325E-01,      /* K = 91 */
(PID.TID 0000.0001)                 6.428571428571429E-01,      /* K = 92 */
(PID.TID 0000.0001)                 6.389324960753532E-01,      /* K = 93 */
(PID.TID 0000.0001)                 6.350078492935636E-01,      /* K = 94 */
(PID.TID 0000.0001)                 6.310832025117740E-01,      /* K = 95 */
(PID.TID 0000.0001)                 6.271585557299844E-01,      /* K = 96 */
(PID.TID 0000.0001)                 6.232339089481946E-01,      /* K = 97 */
(PID.TID 0000.0001)                 6.193092621664050E-01,      /* K = 98 */
(PID.TID 0000.0001)                 6.153846153846154E-01,      /* K = 99 */
(PID.TID 0000.0001)                 6.114599686028257E-01,      /* K =100 */
(PID.TID 0000.0001)                 6.075353218210361E-01,      /* K =101 */
(PID.TID 0000.0001)                 6.036106750392465E-01,      /* K =102 */
(PID.TID 0000.0001)                 5.996860282574569E-01,      /* K =103 */
(PID.TID 0000.0001)                 5.957613814756672E-01,      /* K =104 */
(PID.TID 0000.0001)                 5.918367346938775E-01,      /* K =105 */
(PID.TID 0000.0001)                 5.879120879120879E-01,      /* K =106 */
(PID.TID 0000.0001)                 5.839874411302983E-01,      /* K =107 */
(PID.TID 0000.0001)                 5.800627943485086E-01,      /* K =108 */
(PID.TID 0000.0001)                 5.761381475667190E-01,      /* K =109 */
(PID.TID 0000.0001)                 5.722135007849294E-01,      /* K =110 */
(PID.TID 0000.0001)                 5.682888540031398E-01,      /* K =111 */
(PID.TID 0000.0001)                 5.643642072213501E-01,      /* K =112 */
(PID.TID 0000.0001)                 5.604395604395604E-01,      /* K =113 */
(PID.TID 0000.0001)                 5.565149136577708E-01,      /* K =114 */
(PID.TID 0000.0001)                 5.525902668759811E-01,      /* K =115 */
(PID.TID 0000.0001)                 5.486656200941915E-01,      /* K =116 */
(PID.TID 0000.0001)                 5.447409733124019E-01,      /* K =117 */
(PID.TID 0000.0001)                 5.408163265306123E-01,      /* K =118 */
(PID.TID 0000.0001)                 5.368916797488226E-01,      /* K =119 */
(PID.TID 0000.0001)                 5.329670329670330E-01,      /* K =120 */
(PID.TID 0000.0001)                 5.290423861852434E-01       /* K =121 */
(PID.TID 0000.0001)     ;
(PID.TID 0000.0001) dBdrRef = /* Vertical gradient of reference boyancy [(m/s/r)^2)] */
(PID.TID 0000.0001)   120 @  0.000000000000000E+00              /* K =  1:120 */
(PID.TID 0000.0001)     ;
(PID.TID 0000.0001) dxF =  /* dxF(:,1,:,1) ( units: m ) */
(PID.TID 0000.0001)                 2.026048527919801E+05       /* I =  1 */
(PID.TID 0000.0001)     ;
(PID.TID 0000.0001) dxF =  /* dxF(1,:,1,:) ( units: m ) */
(PID.TID 0000.0001)                 2.026048527919801E+05,      /* J =  1 */
(PID.TID 0000.0001)                 2.216522321591896E+05,      /* J =  2 */
(PID.TID 0000.0001)                 2.406320941092900E+05,      /* J =  3 */
(PID.TID 0000.0001)                 2.595386571924693E+05,      /* J =  4 */
(PID.TID 0000.0001)                 2.783661622864603E+05,      /* J =  5 */
(PID.TID 0000.0001)                 2.971088743508253E+05,      /* J =  6 */
(PID.TID 0000.0001)                 3.157610841739048E+05,      /* J =  7 */
(PID.TID 0000.0001)                 3.343171101118984E+05,      /* J =  8 */
(PID.TID 0000.0001)                 3.527712998195495E+05,      /* J =  9 */
(PID.TID 0000.0001)                 3.711180319719032E+05,      /* J = 10 */
(PID.TID 0000.0001)                 3.893517179766173E+05,      /* J = 11 */
(PID.TID 0000.0001)                 4.074668036763009E+05,      /* J = 12 */
(PID.TID 0000.0001)                 4.254577710403652E+05,      /* J = 13 */
(PID.TID 0000.0001)                 4.433191398458684E+05,      /* J = 14 */
(PID.TID 0000.0001)                 4.610454693468459E+05,      /* J = 15 */
(PID.TID 0000.0001)                 4.786313599316124E+05,      /* J = 16 */
(PID.TID 0000.0001)                 4.960714547675375E+05,      /* J = 17 */
(PID.TID 0000.0001)                 5.133604414327884E+05,      /* J = 18 */
(PID.TID 0000.0001)                 5.304930535345448E+05,      /* J = 19 */
(PID.TID 0000.0001)                 5.474640723131929E+05,      /* J = 20 */
(PID.TID 0000.0001)                 5.642683282320108E+05,      /* J = 21 */
(PID.TID 0000.0001)                 5.809007025518593E+05,      /* J = 22 */
(PID.TID 0000.0001)                 5.973561288903989E+05,      /* J = 23 */
(PID.TID 0000.0001)                 6.136295947653597E+05,      /* J = 24 */
(PID.TID 0000.0001)                 6.297161431213918E+05,      /* J = 25 */
(PID.TID 0000.0001)                 6.456108738400317E+05,      /* J = 26 */
(PID.TID 0000.0001)                 6.613089452323271E+05,      /* J = 27 */
(PID.TID 0000.0001)                 6.768055755136610E+05,      /* J = 28 */
(PID.TID 0000.0001)                 6.920960442603305E+05,      /* J = 29 */
(PID.TID 0000.0001)                 7.071756938474337E+05,      /* J = 30 */
(PID.TID 0000.0001)                 7.220399308676260E+05,      /* J = 31 */
(PID.TID 0000.0001)                 7.366842275303181E+05,      /* J = 32 */
(PID.TID 0000.0001)                 7.511041230408842E+05,      /* J = 33 */
(PID.TID 0000.0001)                 7.652952249594630E+05,      /* J = 34 */
(PID.TID 0000.0001)                 7.792532105389378E+05,      /* J = 35 */
(PID.TID 0000.0001)                 7.929738280416871E+05,      /* J = 36 */
(PID.TID 0000.0001)                 8.064528980347051E+05,      /* J = 37 */
(PID.TID 0000.0001)                 8.196863146626968E+05,      /* J = 38 */
(PID.TID 0000.0001)                 8.326700468987628E+05,      /* J = 39 */
(PID.TID 0000.0001)                 8.454001397722876E+05,      /* J = 40 */
(PID.TID 0000.0001)                 8.578727155736628E+05,      /* J = 41 */
(PID.TID 0000.0001)                 8.700839750354744E+05,      /* J = 42 */
(PID.TID 0000.0001)                 8.820301984897978E+05,      /* J = 43 */
(PID.TID 0000.0001)                 8.937077470012422E+05,      /* J = 44 */
(PID.TID 0000.0001)                 9.051130634754093E+05,      /* J = 45 */
(PID.TID 0000.0001)                 9.162426737424143E+05,      /* J = 46 */
(PID.TID 0000.0001)                 9.270931876151556E+05,      /* J = 47 */
(PID.TID 0000.0001)                 9.376612999219958E+05,      /* J = 48 */
(PID.TID 0000.0001)                 9.479437915135506E+05,      /* J = 49 */
(PID.TID 0000.0001)                 9.579375302432729E+05,      /* J = 50 */
(PID.TID 0000.0001)                 9.676394719215338E+05,      /* J = 51 */
(PID.TID 0000.0001)                 9.770466612429133E+05,      /* J = 52 */
(PID.TID 0000.0001)                 9.861562326864147E+05,      /* J = 53 */
(PID.TID 0000.0001)                 9.949654113883299E+05,      /* J = 54 */
(PID.TID 0000.0001)                 1.003471513987490E+06,      /* J = 55 */
(PID.TID 0000.0001)                 1.011671949442642E+06,      /* J = 56 */
(PID.TID 0000.0001)                 1.019564219821708E+06,      /* J = 57 */
(PID.TID 0000.0001)                 1.027145921062676E+06,      /* J = 58 */
(PID.TID 0000.0001)                 1.034414743705903E+06,      /* J = 59 */
(PID.TID 0000.0001)                 1.041368473597596E+06,      /* J = 60 */
(PID.TID 0000.0001)                 1.048004992564268E+06,      /* J = 61 */
(PID.TID 0000.0001)                 1.054322279057952E+06,      /* J = 62 */
(PID.TID 0000.0001)                 1.060318408771987E+06,      /* J = 63 */
(PID.TID 0000.0001)                 1.065991555227174E+06,      /* J = 64 */
(PID.TID 0000.0001)                 1.071339990328147E+06,      /* J = 65 */
(PID.TID 0000.0001)                 1.076362084889763E+06,      /* J = 66 */
(PID.TID 0000.0001)                 1.081056309133368E+06,      /* J = 67 */
(PID.TID 0000.0001)                 1.085421233152783E+06,      /* J = 68 */
(PID.TID 0000.0001)                 1.089455527349868E+06,      /* J = 69 */
(PID.TID 0000.0001)                 1.093157962839529E+06,      /* J = 70 */
(PID.TID 0000.0001)                 1.096527411824051E+06,      /* J = 71 */
(PID.TID 0000.0001)                 1.099562847936631E+06,      /* J = 72 */
(PID.TID 0000.0001)                 1.102263346554026E+06,      /* J = 73 */
(PID.TID 0000.0001)                 1.104628085078195E+06,      /* J = 74 */
(PID.TID 0000.0001)                 1.106656343186877E+06,      /* J = 75 */
(PID.TID 0000.0001)                 1.108347503053004E+06,      /* J = 76 */
(PID.TID 0000.0001)                 1.109701049532897E+06,      /* J = 77 */
(PID.TID 0000.0001)                 1.110716570323187E+06,      /* J = 78 */
(PID.TID 0000.0001)                 1.111393756086404E+06,      /* J = 79 */
(PID.TID 0000.0001)     2 @  1.111732400545204E+06,             /* J = 80: 81 */
(PID.TID 0000.0001)                 1.111393756086404E+06,      /* J = 82 */
(PID.TID 0000.0001)                 1.110716570323187E+06,      /* J = 83 */
(PID.TID 0000.0001)                 1.109701049532897E+06,      /* J = 84 */
(PID.TID 0000.0001)                 1.108347503053004E+06,      /* J = 85 */
(PID.TID 0000.0001)                 1.106656343186877E+06,      /* J = 86 */
(PID.TID 0000.0001)                 1.104628085078195E+06,      /* J = 87 */
(PID.TID 0000.0001)                 1.102263346554026E+06,      /* J = 88 */
(PID.TID 0000.0001)                 1.099562847936631E+06,      /* J = 89 */
(PID.TID 0000.0001)                 1.096527411824051E+06,      /* J = 90 */
(PID.TID 0000.0001)                 1.093157962839529E+06,      /* J = 91 */
(PID.TID 0000.0001)                 1.089455527349868E+06,      /* J = 92 */
(PID.TID 0000.0001)                 1.085421233152783E+06,      /* J = 93 */
(PID.TID 0000.0001)                 1.081056309133368E+06,      /* J = 94 */
(PID.TID 0000.0001)                 1.076362084889763E+06,      /* J = 95 */
(PID.TID 0000.0001)                 1.071339990328147E+06,      /* J = 96 */
(PID.TID 0000.0001)                 1.065991555227174E+06,      /* J = 97 */
(PID.TID 0000.0001)                 1.060318408771987E+06,      /* J = 98 */
(PID.TID 0000.0001)                 1.054322279057952E+06,      /* J = 99 */
(PID.TID 0000.0001)                 1.048004992564268E+06,      /* J =100 */
(PID.TID 0000.0001)                 1.041368473597596E+06,      /* J =101 */
(PID.TID 0000.0001)                 1.034414743705903E+06,      /* J =102 */
(PID.TID 0000.0001)                 1.027145921062676E+06,      /* J =103 */
(PID.TID 0000.0001)                 1.019564219821708E+06,      /* J =104 */
(PID.TID 0000.0001)                 1.011671949442642E+06,      /* J =105 */
(PID.TID 0000.0001)                 1.003471513987490E+06,      /* J =106 */
(PID.TID 0000.0001)                 9.949654113883299E+05,      /* J =107 */
(PID.TID 0000.0001)                 9.861562326864147E+05,      /* J =108 */
(PID.TID 0000.0001)                 9.770466612429133E+05,      /* J =109 */
(PID.TID 0000.0001)                 9.676394719215338E+05,      /* J =110 */
(PID.TID 0000.0001)                 9.579375302432729E+05,      /* J =111 */
(PID.TID 0000.0001)                 9.479437915135506E+05,      /* J =112 */
(PID.TID 0000.0001)                 9.376612999219958E+05,      /* J =113 */
(PID.TID 0000.0001)                 9.270931876151556E+05,      /* J =114 */
(PID.TID 0000.0001)                 9.162426737424143E+05,      /* J =115 */
(PID.TID 0000.0001)                 9.051130634754093E+05,      /* J =116 */
(PID.TID 0000.0001)                 8.937077470012422E+05,      /* J =117 */
(PID.TID 0000.0001)                 8.820301984897978E+05,      /* J =118 */
(PID.TID 0000.0001)                 8.700839750354744E+05,      /* J =119 */
(PID.TID 0000.0001)                 8.578727155736628E+05,      /* J =120 */
(PID.TID 0000.0001)                 8.454001397722876E+05,      /* J =121 */
(PID.TID 0000.0001)                 8.326700468987628E+05,      /* J =122 */
(PID.TID 0000.0001)                 8.196863146626968E+05,      /* J =123 */
(PID.TID 0000.0001)                 8.064528980347051E+05,      /* J =124 */
(PID.TID 0000.0001)                 7.929738280416871E+05,      /* J =125 */
(PID.TID 0000.0001)                 7.792532105389378E+05,      /* J =126 */
(PID.TID 0000.0001)                 7.652952249594630E+05,      /* J =127 */
(PID.TID 0000.0001)                 7.511041230408842E+05,      /* J =128 */
(PID.TID 0000.0001)                 7.366842275303181E+05,      /* J =129 */
(PID.TID 0000.0001)                 7.220399308676260E+05,      /* J =130 */
(PID.TID 0000.0001)                 7.071756938474337E+05,      /* J =131 */
(PID.TID 0000.0001)                 6.920960442603305E+05,      /* J =132 */
(PID.TID 0000.0001)                 6.768055755136610E+05,      /* J =133 */
(PID.TID 0000.0001)                 6.613089452323271E+05,      /* J =134 */
(PID.TID 0000.0001)                 6.456108738400317E+05,      /* J =135 */
(PID.TID 0000.0001)                 6.297161431213918E+05,      /* J =136 */
(PID.TID 0000.0001)                 6.136295947653597E+05,      /* J =137 */
(PID.TID 0000.0001)                 5.973561288903989E+05,      /* J =138 */
(PID.TID 0000.0001)                 5.809007025518593E+05,      /* J =139 */
(PID.TID 0000.0001)                 5.642683282320108E+05,      /* J =140 */
(PID.TID 0000.0001)                 5.474640723131929E+05,      /* J =141 */
(PID.TID 0000.0001)                 5.304930535345448E+05,      /* J =142 */
(PID.TID 0000.0001)                 5.133604414327884E+05,      /* J =143 */
(PID.TID 0000.0001)                 4.960714547675375E+05,      /* J =144 */
(PID.TID 0000.0001)                 4.786313599316124E+05,      /* J =145 */
(PID.TID 0000.0001)                 4.610454693468459E+05,      /* J =146 */
(PID.TID 0000.0001)                 4.433191398458684E+05,      /* J =147 */
(PID.TID 0000.0001)                 4.254577710403652E+05,      /* J =148 */
(PID.TID 0000.0001)                 4.074668036763009E+05,      /* J =149 */
(PID.TID 0000.0001)                 3.893517179766173E+05,      /* J =150 */
(PID.TID 0000.0001)                 3.711180319719032E+05,      /* J =151 */
(PID.TID 0000.0001)                 3.527712998195495E+05,      /* J =152 */
(PID.TID 0000.0001)                 3.343171101118984E+05,      /* J =153 */
(PID.TID 0000.0001)                 3.157610841739048E+05,      /* J =154 */
(PID.TID 0000.0001)                 2.971088743508253E+05,      /* J =155 */
(PID.TID 0000.0001)                 2.783661622864603E+05,      /* J =156 */
(PID.TID 0000.0001)                 2.595386571924693E+05,      /* J =157 */
(PID.TID 0000.0001)                 2.406320941092900E+05,      /* J =158 */
(PID.TID 0000.0001)                 2.216522321591896E+05,      /* J =159 */
(PID.TID 0000.0001)                 2.026048527919801E+05       /* J =160 */
(PID.TID 0000.0001)     ;
(PID.TID 0000.0001) dyF =  /* dyF(:,1,:,1) ( units: m ) */
(PID.TID 0000.0001)                 1.111774733520388E+05       /* I =  1 */
(PID.TID 0000.0001)     ;
(PID.TID 0000.0001) dyF =  /* dyF(1,:,1,:) ( units: m ) */
(PID.TID 0000.0001)   160 @  1.111774733520388E+05              /* J =  1:160 */
(PID.TID 0000.0001)     ;
(PID.TID 0000.0001) dxG =  /* dxG(:,1,:,1) ( units: m ) */
(PID.TID 0000.0001)                 1.930576564519526E+05       /* I =  1 */
(PID.TID 0000.0001)     ;
(PID.TID 0000.0001) dxG =  /* dxG(1,:,1,:) ( units: m ) */
(PID.TID 0000.0001)                 1.930576564519526E+05,      /* J =  1 */
(PID.TID 0000.0001)                 2.121366199880512E+05,      /* J =  2 */
(PID.TID 0000.0001)                 2.311509646546878E+05,      /* J =  3 */
(PID.TID 0000.0001)                 2.500948984982807E+05,      /* J =  4 */
(PID.TID 0000.0001)                 2.689626510130676E+05,      /* J =  5 */
(PID.TID 0000.0001)                 2.877484748988562E+05,      /* J =  6 */
(PID.TID 0000.0001)                 3.064466478117086E+05,      /* J =  7 */
(PID.TID 0000.0001)                 3.250514741070222E+05,      /* J =  8 */
(PID.TID 0000.0001)                 3.435572865744784E+05,      /* J =  9 */
(PID.TID 0000.0001)                 3.619584481643299E+05,      /* J = 10 */
(PID.TID 0000.0001)                 3.802493537045004E+05,      /* J = 11 */
(PID.TID 0000.0001)                 3.984244316079742E+05,      /* J = 12 */
(PID.TID 0000.0001)                 4.164781455699558E+05,      /* J = 13 */
(PID.TID 0000.0001)                 4.344049962542827E+05,      /* J = 14 */
(PID.TID 0000.0001)                 4.521995229685750E+05,      /* J = 15 */
(PID.TID 0000.0001)                 4.698563053276157E+05,      /* J = 16 */
(PID.TID 0000.0001)                 4.873699649044534E+05,      /* J = 17 */
(PID.TID 0000.0001)                 5.047351668687224E+05,      /* J = 18 */
(PID.TID 0000.0001)                 5.219466216116839E+05,      /* J = 19 */
(PID.TID 0000.0001)                 5.389990863574919E+05,      /* J = 20 */
(PID.TID 0000.0001)                 5.558873667601941E+05,      /* J = 21 */
(PID.TID 0000.0001)                 5.726063184859790E+05,      /* J = 22 */
(PID.TID 0000.0001)                 5.891508487801914E+05,      /* J = 23 */
(PID.TID 0000.0001)                 6.055159180186330E+05,      /* J = 24 */
(PID.TID 0000.0001)                 6.216965412426814E+05,      /* J = 25 */
(PID.TID 0000.0001)                 6.376877896777581E+05,      /* J = 26 */
(PID.TID 0000.0001)                 6.534847922346783E+05,      /* J = 27 */
(PID.TID 0000.0001)                 6.690827369934347E+05,      /* J = 28 */
(PID.TID 0000.0001)                 6.844768726689526E+05,      /* J = 29 */
(PID.TID 0000.0001)                 6.996625100583794E+05,      /* J = 30 */
(PID.TID 0000.0001)                 7.146350234694595E+05,      /* J = 31 */
(PID.TID 0000.0001)                 7.293898521295657E+05,      /* J = 32 */
(PID.TID 0000.0001)                 7.439225015749553E+05,      /* J = 33 */
(PID.TID 0000.0001)                 7.582285450198257E+05,      /* J = 34 */
(PID.TID 0000.0001)                 7.723036247047586E+05,      /* J = 35 */
(PID.TID 0000.0001)                 7.861434532241331E+05,      /* J = 36 */
(PID.TID 0000.0001)                 7.997438148321130E+05,      /* J = 37 */
(PID.TID 0000.0001)                 8.131005667268025E+05,      /* J = 38 */
(PID.TID 0000.0001)                 8.262096403121852E+05,      /* J = 39 */
(PID.TID 0000.0001)                 8.390670424374563E+05,      /* J = 40 */
(PID.TID 0000.0001)                 8.516688566133757E+05,      /* J = 41 */
(PID.TID 0000.0001)                 8.640112442052695E+05,      /* J = 42 */
(PID.TID 0000.0001)                 8.760904456023134E+05,      /* J = 43 */
(PID.TID 0000.0001)                 8.879027813627481E+05,      /* J = 44 */
(PID.TID 0000.0001)                 8.994446533346723E+05,      /* J = 45 */
(PID.TID 0000.0001)                 9.107125457520749E+05,      /* J = 46 */
(PID.TID 0000.0001)                 9.217030263057706E+05,      /* J = 47 */
(PID.TID 0000.0001)                 9.324127471889161E+05,      /* J = 48 */
(PID.TID 0000.0001)                 9.428384461167828E+05,      /* J = 49 */
(PID.TID 0000.0001)                 9.529769473204811E+05,      /* J = 50 */
(PID.TID 0000.0001)                 9.628251625143307E+05,      /* J = 51 */
(PID.TID 0000.0001)                 9.723800918365814E+05,      /* J = 52 */
(PID.TID 0000.0001)                 9.816388247632015E+05,      /* J = 53 */
(PID.TID 0000.0001)                 9.905985409944498E+05,      /* J = 54 */
(PID.TID 0000.0001)                 9.992565113139676E+05,      /* J = 55 */
(PID.TID 0000.0001)                 1.007610098420124E+06,      /* J = 56 */
(PID.TID 0000.0001)                 1.015656757729363E+06,      /* J = 57 */
(PID.TID 0000.0001)                 1.023394038151311E+06,      /* J = 58 */
(PID.TID 0000.0001)                 1.030819582835396E+06,      /* J = 59 */
(PID.TID 0000.0001)                 1.037931129888777E+06,      /* J = 60 */
(PID.TID 0000.0001)                 1.044726513065328E+06,      /* J = 61 */
(PID.TID 0000.0001)                 1.051203662425507E+06,      /* J = 62 */
(PID.TID 0000.0001)                 1.057360604966873E+06,      /* J = 63 */
(PID.TID 0000.0001)                 1.063195465225083E+06,      /* J = 64 */
(PID.TID 0000.0001)                 1.068706465845181E+06,      /* J = 65 */
(PID.TID 0000.0001)                 1.073891928122990E+06,      /* J = 66 */
(PID.TID 0000.0001)                 1.078750272516467E+06,      /* J = 67 */
(PID.TID 0000.0001)                 1.083280019126848E+06,      /* J = 68 */
(PID.TID 0000.0001)                 1.087479788149434E+06,      /* J = 69 */
(PID.TID 0000.0001)                 1.091348300293896E+06,      /* J = 70 */
(PID.TID 0000.0001)                 1.094884377173960E+06,      /* J = 71 */
(PID.TID 0000.0001)                 1.098086941666353E+06,      /* J = 72 */
(PID.TID 0000.0001)                 1.100955018238908E+06,      /* J = 73 */
(PID.TID 0000.0001)                 1.103487733247717E+06,      /* J = 74 */
(PID.TID 0000.0001)                 1.105684315203253E+06,      /* J = 75 */
(PID.TID 0000.0001)                 1.107544095005374E+06,      /* J = 76 */
(PID.TID 0000.0001)                 1.109066506147135E+06,      /* J = 77 */
(PID.TID 0000.0001)                 1.110251084887355E+06,      /* J = 78 */
(PID.TID 0000.0001)                 1.111097470391875E+06,      /* J = 79 */
(PID.TID 0000.0001)                 1.111605404843471E+06,      /* J = 80 */
(PID.TID 0000.0001)                 1.111774733520388E+06,      /* J = 81 */
(PID.TID 0000.0001)                 1.111605404843471E+06,      /* J = 82 */
(PID.TID 0000.0001)                 1.111097470391875E+06,      /* J = 83 */
(PID.TID 0000.0001)                 1.110251084887355E+06,      /* J = 84 */
(PID.TID 0000.0001)                 1.109066506147135E+06,      /* J = 85 */
(PID.TID 0000.0001)                 1.107544095005374E+06,      /* J = 86 */
(PID.TID 0000.0001)                 1.105684315203253E+06,      /* J = 87 */
(PID.TID 0000.0001)                 1.103487733247717E+06,      /* J = 88 */
(PID.TID 0000.0001)                 1.100955018238908E+06,      /* J = 89 */
(PID.TID 0000.0001)                 1.098086941666353E+06,      /* J = 90 */
(PID.TID 0000.0001)                 1.094884377173960E+06,      /* J = 91 */
(PID.TID 0000.0001)                 1.091348300293896E+06,      /* J = 92 */
(PID.TID 0000.0001)                 1.087479788149434E+06,      /* J = 93 */
(PID.TID 0000.0001)                 1.083280019126848E+06,      /* J = 94 */
(PID.TID 0000.0001)                 1.078750272516467E+06,      /* J = 95 */
(PID.TID 0000.0001)                 1.073891928122990E+06,      /* J = 96 */
(PID.TID 0000.0001)                 1.068706465845181E+06,      /* J = 97 */
(PID.TID 0000.0001)                 1.063195465225083E+06,      /* J = 98 */
(PID.TID 0000.0001)                 1.057360604966873E+06,      /* J = 99 */
(PID.TID 0000.0001)                 1.051203662425507E+06,      /* J =100 */
(PID.TID 0000.0001)                 1.044726513065328E+06,      /* J =101 */
(PID.TID 0000.0001)                 1.037931129888777E+06,      /* J =102 */
(PID.TID 0000.0001)                 1.030819582835396E+06,      /* J =103 */
(PID.TID 0000.0001)                 1.023394038151311E+06,      /* J =104 */
(PID.TID 0000.0001)                 1.015656757729363E+06,      /* J =105 */
(PID.TID 0000.0001)                 1.007610098420124E+06,      /* J =106 */
(PID.TID 0000.0001)                 9.992565113139676E+05,      /* J =107 */
(PID.TID 0000.0001)                 9.905985409944498E+05,      /* J =108 */
(PID.TID 0000.0001)                 9.816388247632015E+05,      /* J =109 */
(PID.TID 0000.0001)                 9.723800918365814E+05,      /* J =110 */
(PID.TID 0000.0001)                 9.628251625143307E+05,      /* J =111 */
(PID.TID 0000.0001)                 9.529769473204811E+05,      /* J =112 */
(PID.TID 0000.0001)                 9.428384461167828E+05,      /* J =113 */
(PID.TID 0000.0001)                 9.324127471889161E+05,      /* J =114 */
(PID.TID 0000.0001)                 9.217030263057706E+05,      /* J =115 */
(PID.TID 0000.0001)                 9.107125457520749E+05,      /* J =116 */
(PID.TID 0000.0001)                 8.994446533346723E+05,      /* J =117 */
(PID.TID 0000.0001)                 8.879027813627481E+05,      /* J =118 */
(PID.TID 0000.0001)                 8.760904456023134E+05,      /* J =119 */
(PID.TID 0000.0001)                 8.640112442052695E+05,      /* J =120 */
(PID.TID 0000.0001)                 8.516688566133757E+05,      /* J =121 */
(PID.TID 0000.0001)                 8.390670424374563E+05,      /* J =122 */
(PID.TID 0000.0001)                 8.262096403121852E+05,      /* J =123 */
(PID.TID 0000.0001)                 8.131005667268025E+05,      /* J =124 */
(PID.TID 0000.0001)                 7.997438148321130E+05,      /* J =125 */
(PID.TID 0000.0001)                 7.861434532241331E+05,      /* J =126 */
(PID.TID 0000.0001)                 7.723036247047586E+05,      /* J =127 */
(PID.TID 0000.0001)                 7.582285450198257E+05,      /* J =128 */
(PID.TID 0000.0001)                 7.439225015749553E+05,      /* J =129 */
(PID.TID 0000.0001)                 7.293898521295657E+05,      /* J =130 */
(PID.TID 0000.0001)                 7.146350234694595E+05,      /* J =131 */
(PID.TID 0000.0001)                 6.996625100583794E+05,      /* J =132 */
(PID.TID 0000.0001)                 6.844768726689526E+05,      /* J =133 */
(PID.TID 0000.0001)                 6.690827369934347E+05,      /* J =134 */
(PID.TID 0000.0001)                 6.534847922346783E+05,      /* J =135 */
(PID.TID 0000.0001)                 6.376877896777581E+05,      /* J =136 */
(PID.TID 0000.0001)                 6.216965412426814E+05,      /* J =137 */
(PID.TID 0000.0001)                 6.055159180186330E+05,      /* J =138 */
(PID.TID 0000.0001)                 5.891508487801914E+05,      /* J =139 */
(PID.TID 0000.0001)                 5.726063184859790E+05,      /* J =140 */
(PID.TID 0000.0001)                 5.558873667601941E+05,      /* J =141 */
(PID.TID 0000.0001)                 5.389990863574919E+05,      /* J =142 */
(PID.TID 0000.0001)                 5.219466216116839E+05,      /* J =143 */
(PID.TID 0000.0001)                 5.047351668687224E+05,      /* J =144 */
(PID.TID 0000.0001)                 4.873699649044534E+05,      /* J =145 */
(PID.TID 0000.0001)                 4.698563053276157E+05,      /* J =146 */
(PID.TID 0000.0001)                 4.521995229685750E+05,      /* J =147 */
(PID.TID 0000.0001)                 4.344049962542827E+05,      /* J =148 */
(PID.TID 0000.0001)                 4.164781455699558E+05,      /* J =149 */
(PID.TID 0000.0001)                 3.984244316079742E+05,      /* J =150 */
(PID.TID 0000.0001)                 3.802493537045004E+05,      /* J =151 */
(PID.TID 0000.0001)                 3.619584481643299E+05,      /* J =152 */
(PID.TID 0000.0001)                 3.435572865744784E+05,      /* J =153 */
(PID.TID 0000.0001)                 3.250514741070222E+05,      /* J =154 */
(PID.TID 0000.0001)                 3.064466478117086E+05,      /* J =155 */
(PID.TID 0000.0001)                 2.877484748988562E+05,      /* J =156 */
(PID.TID 0000.0001)                 2.689626510130676E+05,      /* J =157 */
(PID.TID 0000.0001)                 2.500948984982807E+05,      /* J =158 */
(PID.TID 0000.0001)                 2.311509646546878E+05,      /* J =159 */
(PID.TID 0000.0001)                 2.121366199880512E+05       /* J =160 */
(PID.TID 0000.0001)     ;
(PID.TID 0000.0001) dyG =  /* dyG(:,1,:,1) ( units: m ) */
(PID.TID 0000.0001)                 1.111774733520388E+05       /* I =  1 */
(PID.TID 0000.0001)     ;
(PID.TID 0000.0001) dyG =  /* dyG(1,:,1,:) ( units: m ) */
(PID.TID 0000.0001)   160 @  1.111774733520388E+05              /* J =  1:160 */
(PID.TID 0000.0001)     ;
(PID.TID 0000.0001) dxC =  /* dxC(:,1,:,1) ( units: m ) */
(PID.TID 0000.0001)                 2.026048527919801E+05       /* I =  1 */
(PID.TID 0000.0001)     ;
(PID.TID 0000.0001) dxC =  /* dxC(1,:,1,:) ( units: m ) */
(PID.TID 0000.0001)                 2.026048527919801E+05,      /* J =  1 */
(PID.TID 0000.0001)                 2.216522321591896E+05,      /* J =  2 */
(PID.TID 0000.0001)                 2.406320941092900E+05,      /* J =  3 */
(PID.TID 0000.0001)                 2.595386571924693E+05,      /* J =  4 */
(PID.TID 0000.0001)                 2.783661622864603E+05,      /* J =  5 */
(PID.TID 0000.0001)                 2.971088743508253E+05,      /* J =  6 */
(PID.TID 0000.0001)                 3.157610841739048E+05,      /* J =  7 */
(PID.TID 0000.0001)                 3.343171101118984E+05,      /* J =  8 */
(PID.TID 0000.0001)                 3.527712998195495E+05,      /* J =  9 */
(PID.TID 0000.0001)                 3.711180319719032E+05,      /* J = 10 */
(PID.TID 0000.0001)                 3.893517179766173E+05,      /* J = 11 */
(PID.TID 0000.0001)                 4.074668036763009E+05,      /* J = 12 */
(PID.TID 0000.0001)                 4.254577710403652E+05,      /* J = 13 */
(PID.TID 0000.0001)                 4.433191398458684E+05,      /* J = 14 */
(PID.TID 0000.0001)                 4.610454693468459E+05,      /* J = 15 */
(PID.TID 0000.0001)                 4.786313599316124E+05,      /* J = 16 */
(PID.TID 0000.0001)                 4.960714547675375E+05,      /* J = 17 */
(PID.TID 0000.0001)                 5.133604414327884E+05,      /* J = 18 */
(PID.TID 0000.0001)                 5.304930535345448E+05,      /* J = 19 */
(PID.TID 0000.0001)                 5.474640723131929E+05,      /* J = 20 */
(PID.TID 0000.0001)                 5.642683282320108E+05,      /* J = 21 */
(PID.TID 0000.0001)                 5.809007025518593E+05,      /* J = 22 */
(PID.TID 0000.0001)                 5.973561288903989E+05,      /* J = 23 */
(PID.TID 0000.0001)                 6.136295947653597E+05,      /* J = 24 */
(PID.TID 0000.0001)                 6.297161431213918E+05,      /* J = 25 */
(PID.TID 0000.0001)                 6.456108738400317E+05,      /* J = 26 */
(PID.TID 0000.0001)                 6.613089452323271E+05,      /* J = 27 */
(PID.TID 0000.0001)                 6.768055755136610E+05,      /* J = 28 */
(PID.TID 0000.0001)                 6.920960442603305E+05,      /* J = 29 */
(PID.TID 0000.0001)                 7.071756938474337E+05,      /* J = 30 */
(PID.TID 0000.0001)                 7.220399308676260E+05,      /* J = 31 */
(PID.TID 0000.0001)                 7.366842275303181E+05,      /* J = 32 */
(PID.TID 0000.0001)                 7.511041230408842E+05,      /* J = 33 */
(PID.TID 0000.0001)                 7.652952249594630E+05,      /* J = 34 */
(PID.TID 0000.0001)                 7.792532105389378E+05,      /* J = 35 */
(PID.TID 0000.0001)                 7.929738280416871E+05,      /* J = 36 */
(PID.TID 0000.0001)                 8.064528980347051E+05,      /* J = 37 */
(PID.TID 0000.0001)                 8.196863146626968E+05,      /* J = 38 */
(PID.TID 0000.0001)                 8.326700468987628E+05,      /* J = 39 */
(PID.TID 0000.0001)                 8.454001397722876E+05,      /* J = 40 */
(PID.TID 0000.0001)                 8.578727155736628E+05,      /* J = 41 */
(PID.TID 0000.0001)                 8.700839750354744E+05,      /* J = 42 */
(PID.TID 0000.0001)                 8.820301984897978E+05,      /* J = 43 */
(PID.TID 0000.0001)                 8.937077470012422E+05,      /* J = 44 */
(PID.TID 0000.0001)                 9.051130634754093E+05,      /* J = 45 */
(PID.TID 0000.0001)                 9.162426737424143E+05,      /* J = 46 */
(PID.TID 0000.0001)                 9.270931876151556E+05,      /* J = 47 */
(PID.TID 0000.0001)                 9.376612999219958E+05,      /* J = 48 */
(PID.TID 0000.0001)                 9.479437915135506E+05,      /* J = 49 */
(PID.TID 0000.0001)                 9.579375302432729E+05,      /* J = 50 */
(PID.TID 0000.0001)                 9.676394719215338E+05,      /* J = 51 */
(PID.TID 0000.0001)                 9.770466612429133E+05,      /* J = 52 */
(PID.TID 0000.0001)                 9.861562326864147E+05,      /* J = 53 */
(PID.TID 0000.0001)                 9.949654113883299E+05,      /* J = 54 */
(PID.TID 0000.0001)                 1.003471513987490E+06,      /* J = 55 */
(PID.TID 0000.0001)                 1.011671949442642E+06,      /* J = 56 */
(PID.TID 0000.0001)                 1.019564219821708E+06,      /* J = 57 */
(PID.TID 0000.0001)                 1.027145921062676E+06,      /* J = 58 */
(PID.TID 0000.0001)                 1.034414743705903E+06,      /* J = 59 */
(PID.TID 0000.0001)                 1.041368473597596E+06,      /* J = 60 */
(PID.TID 0000.0001)                 1.048004992564268E+06,      /* J = 61 */
(PID.TID 0000.0001)                 1.054322279057952E+06,      /* J = 62 */
(PID.TID 0000.0001)                 1.060318408771987E+06,      /* J = 63 */
(PID.TID 0000.0001)                 1.065991555227174E+06,      /* J = 64 */
(PID.TID 0000.0001)                 1.071339990328147E+06,      /* J = 65 */
(PID.TID 0000.0001)                 1.076362084889763E+06,      /* J = 66 */
(PID.TID 0000.0001)                 1.081056309133368E+06,      /* J = 67 */
(PID.TID 0000.0001)                 1.085421233152783E+06,      /* J = 68 */
(PID.TID 0000.0001)                 1.089455527349868E+06,      /* J = 69 */
(PID.TID 0000.0001)                 1.093157962839529E+06,      /* J = 70 */
(PID.TID 0000.0001)                 1.096527411824051E+06,      /* J = 71 */
(PID.TID 0000.0001)                 1.099562847936631E+06,      /* J = 72 */
(PID.TID 0000.0001)                 1.102263346554026E+06,      /* J = 73 */
(PID.TID 0000.0001)                 1.104628085078195E+06,      /* J = 74 */
(PID.TID 0000.0001)                 1.106656343186877E+06,      /* J = 75 */
(PID.TID 0000.0001)                 1.108347503053004E+06,      /* J = 76 */
(PID.TID 0000.0001)                 1.109701049532897E+06,      /* J = 77 */
(PID.TID 0000.0001)                 1.110716570323187E+06,      /* J = 78 */
(PID.TID 0000.0001)                 1.111393756086404E+06,      /* J = 79 */
(PID.TID 0000.0001)     2 @  1.111732400545204E+06,             /* J = 80: 81 */
(PID.TID 0000.0001)                 1.111393756086404E+06,      /* J = 82 */
(PID.TID 0000.0001)                 1.110716570323187E+06,      /* J = 83 */
(PID.TID 0000.0001)                 1.109701049532897E+06,      /* J = 84 */
(PID.TID 0000.0001)                 1.108347503053004E+06,      /* J = 85 */
(PID.TID 0000.0001)                 1.106656343186877E+06,      /* J = 86 */
(PID.TID 0000.0001)                 1.104628085078195E+06,      /* J = 87 */
(PID.TID 0000.0001)                 1.102263346554026E+06,      /* J = 88 */
(PID.TID 0000.0001)                 1.099562847936631E+06,      /* J = 89 */
(PID.TID 0000.0001)                 1.096527411824051E+06,      /* J = 90 */
(PID.TID 0000.0001)                 1.093157962839529E+06,      /* J = 91 */
(PID.TID 0000.0001)                 1.089455527349868E+06,      /* J = 92 */
(PID.TID 0000.0001)                 1.085421233152783E+06,      /* J = 93 */
(PID.TID 0000.0001)                 1.081056309133368E+06,      /* J = 94 */
(PID.TID 0000.0001)                 1.076362084889763E+06,      /* J = 95 */
(PID.TID 0000.0001)                 1.071339990328147E+06,      /* J = 96 */
(PID.TID 0000.0001)                 1.065991555227174E+06,      /* J = 97 */
(PID.TID 0000.0001)                 1.060318408771987E+06,      /* J = 98 */
(PID.TID 0000.0001)                 1.054322279057952E+06,      /* J = 99 */
(PID.TID 0000.0001)                 1.048004992564268E+06,      /* J =100 */
(PID.TID 0000.0001)                 1.041368473597596E+06,      /* J =101 */
(PID.TID 0000.0001)                 1.034414743705903E+06,      /* J =102 */
(PID.TID 0000.0001)                 1.027145921062676E+06,      /* J =103 */
(PID.TID 0000.0001)                 1.019564219821708E+06,      /* J =104 */
(PID.TID 0000.0001)                 1.011671949442642E+06,      /* J =105 */
(PID.TID 0000.0001)                 1.003471513987490E+06,      /* J =106 */
(PID.TID 0000.0001)                 9.949654113883299E+05,      /* J =107 */
(PID.TID 0000.0001)                 9.861562326864147E+05,      /* J =108 */
(PID.TID 0000.0001)                 9.770466612429133E+05,      /* J =109 */
(PID.TID 0000.0001)                 9.676394719215338E+05,      /* J =110 */
(PID.TID 0000.0001)                 9.579375302432729E+05,      /* J =111 */
(PID.TID 0000.0001)                 9.479437915135506E+05,      /* J =112 */
(PID.TID 0000.0001)                 9.376612999219958E+05,      /* J =113 */
(PID.TID 0000.0001)                 9.270931876151556E+05,      /* J =114 */
(PID.TID 0000.0001)                 9.162426737424143E+05,      /* J =115 */
(PID.TID 0000.0001)                 9.051130634754093E+05,      /* J =116 */
(PID.TID 0000.0001)                 8.937077470012422E+05,      /* J =117 */
(PID.TID 0000.0001)                 8.820301984897978E+05,      /* J =118 */
(PID.TID 0000.0001)                 8.700839750354744E+05,      /* J =119 */
(PID.TID 0000.0001)                 8.578727155736628E+05,      /* J =120 */
(PID.TID 0000.0001)                 8.454001397722876E+05,      /* J =121 */
(PID.TID 0000.0001)                 8.326700468987628E+05,      /* J =122 */
(PID.TID 0000.0001)                 8.196863146626968E+05,      /* J =123 */
(PID.TID 0000.0001)                 8.064528980347051E+05,      /* J =124 */
(PID.TID 0000.0001)                 7.929738280416871E+05,      /* J =125 */
(PID.TID 0000.0001)                 7.792532105389378E+05,      /* J =126 */
(PID.TID 0000.0001)                 7.652952249594630E+05,      /* J =127 */
(PID.TID 0000.0001)                 7.511041230408842E+05,      /* J =128 */
(PID.TID 0000.0001)                 7.366842275303181E+05,      /* J =129 */
(PID.TID 0000.0001)                 7.220399308676260E+05,      /* J =130 */
(PID.TID 0000.0001)                 7.071756938474337E+05,      /* J =131 */
(PID.TID 0000.0001)                 6.920960442603305E+05,      /* J =132 */
(PID.TID 0000.0001)                 6.768055755136610E+05,      /* J =133 */
(PID.TID 0000.0001)                 6.613089452323271E+05,      /* J =134 */
(PID.TID 0000.0001)                 6.456108738400317E+05,      /* J =135 */
(PID.TID 0000.0001)                 6.297161431213918E+05,      /* J =136 */
(PID.TID 0000.0001)                 6.136295947653597E+05,      /* J =137 */
(PID.TID 0000.0001)                 5.973561288903989E+05,      /* J =138 */
(PID.TID 0000.0001)                 5.809007025518593E+05,      /* J =139 */
(PID.TID 0000.0001)                 5.642683282320108E+05,      /* J =140 */
(PID.TID 0000.0001)                 5.474640723131929E+05,      /* J =141 */
(PID.TID 0000.0001)                 5.304930535345448E+05,      /* J =142 */
(PID.TID 0000.0001)                 5.133604414327884E+05,      /* J =143 */
(PID.TID 0000.0001)                 4.960714547675375E+05,      /* J =144 */
(PID.TID 0000.0001)                 4.786313599316124E+05,      /* J =145 */
(PID.TID 0000.0001)                 4.610454693468459E+05,      /* J =146 */
(PID.TID 0000.0001)                 4.433191398458684E+05,      /* J =147 */
(PID.TID 0000.0001)                 4.254577710403652E+05,      /* J =148 */
(PID.TID 0000.0001)                 4.074668036763009E+05,      /* J =149 */
(PID.TID 0000.0001)                 3.893517179766173E+05,      /* J =150 */
(PID.TID 0000.0001)                 3.711180319719032E+05,      /* J =151 */
(PID.TID 0000.0001)                 3.527712998195495E+05,      /* J =152 */
(PID.TID 0000.0001)                 3.343171101118984E+05,      /* J =153 */
(PID.TID 0000.0001)                 3.157610841739048E+05,      /* J =154 */
(PID.TID 0000.0001)                 2.971088743508253E+05,      /* J =155 */
(PID.TID 0000.0001)                 2.783661622864603E+05,      /* J =156 */
(PID.TID 0000.0001)                 2.595386571924693E+05,      /* J =157 */
(PID.TID 0000.0001)                 2.406320941092900E+05,      /* J =158 */
(PID.TID 0000.0001)                 2.216522321591896E+05,      /* J =159 */
(PID.TID 0000.0001)                 2.026048527919801E+05       /* J =160 */
(PID.TID 0000.0001)     ;
(PID.TID 0000.0001) dyC =  /* dyC(:,1,:,1) ( units: m ) */
(PID.TID 0000.0001)                 1.111774733520388E+05       /* I =  1 */
(PID.TID 0000.0001)     ;
(PID.TID 0000.0001) dyC =  /* dyC(1,:,1,:) ( units: m ) */
(PID.TID 0000.0001)   160 @  1.111774733520388E+05              /* J =  1:160 */
(PID.TID 0000.0001)     ;
(PID.TID 0000.0001) dxV =  /* dxV(:,1,:,1) ( units: m ) */
(PID.TID 0000.0001)                 1.930576564519526E+05       /* I =  1 */
(PID.TID 0000.0001)     ;
(PID.TID 0000.0001) dxV =  /* dxV(1,:,1,:) ( units: m ) */
(PID.TID 0000.0001)                 1.930576564519526E+05,      /* J =  1 */
(PID.TID 0000.0001)                 2.121366199880512E+05,      /* J =  2 */
(PID.TID 0000.0001)                 2.311509646546878E+05,      /* J =  3 */
(PID.TID 0000.0001)                 2.500948984982807E+05,      /* J =  4 */
(PID.TID 0000.0001)                 2.689626510130676E+05,      /* J =  5 */
(PID.TID 0000.0001)                 2.877484748988562E+05,      /* J =  6 */
(PID.TID 0000.0001)                 3.064466478117086E+05,      /* J =  7 */
(PID.TID 0000.0001)                 3.250514741070222E+05,      /* J =  8 */
(PID.TID 0000.0001)                 3.435572865744784E+05,      /* J =  9 */
(PID.TID 0000.0001)                 3.619584481643299E+05,      /* J = 10 */
(PID.TID 0000.0001)                 3.802493537045004E+05,      /* J = 11 */
(PID.TID 0000.0001)                 3.984244316079742E+05,      /* J = 12 */
(PID.TID 0000.0001)                 4.164781455699558E+05,      /* J = 13 */
(PID.TID 0000.0001)                 4.344049962542827E+05,      /* J = 14 */
(PID.TID 0000.0001)                 4.521995229685750E+05,      /* J = 15 */
(PID.TID 0000.0001)                 4.698563053276157E+05,      /* J = 16 */
(PID.TID 0000.0001)                 4.873699649044534E+05,      /* J = 17 */
(PID.TID 0000.0001)                 5.047351668687224E+05,      /* J = 18 */
(PID.TID 0000.0001)                 5.219466216116839E+05,      /* J = 19 */
(PID.TID 0000.0001)                 5.389990863574919E+05,      /* J = 20 */
(PID.TID 0000.0001)                 5.558873667601941E+05,      /* J = 21 */
(PID.TID 0000.0001)                 5.726063184859790E+05,      /* J = 22 */
(PID.TID 0000.0001)                 5.891508487801914E+05,      /* J = 23 */
(PID.TID 0000.0001)                 6.055159180186330E+05,      /* J = 24 */
(PID.TID 0000.0001)                 6.216965412426814E+05,      /* J = 25 */
(PID.TID 0000.0001)                 6.376877896777581E+05,      /* J = 26 */
(PID.TID 0000.0001)                 6.534847922346783E+05,      /* J = 27 */
(PID.TID 0000.0001)                 6.690827369934347E+05,      /* J = 28 */
(PID.TID 0000.0001)                 6.844768726689526E+05,      /* J = 29 */
(PID.TID 0000.0001)                 6.996625100583794E+05,      /* J = 30 */
(PID.TID 0000.0001)                 7.146350234694595E+05,      /* J = 31 */
(PID.TID 0000.0001)                 7.293898521295657E+05,      /* J = 32 */
(PID.TID 0000.0001)                 7.439225015749553E+05,      /* J = 33 */
(PID.TID 0000.0001)                 7.582285450198257E+05,      /* J = 34 */
(PID.TID 0000.0001)                 7.723036247047586E+05,      /* J = 35 */
(PID.TID 0000.0001)                 7.861434532241331E+05,      /* J = 36 */
(PID.TID 0000.0001)                 7.997438148321130E+05,      /* J = 37 */
(PID.TID 0000.0001)                 8.131005667268025E+05,      /* J = 38 */
(PID.TID 0000.0001)                 8.262096403121852E+05,      /* J = 39 */
(PID.TID 0000.0001)                 8.390670424374563E+05,      /* J = 40 */
(PID.TID 0000.0001)                 8.516688566133757E+05,      /* J = 41 */
(PID.TID 0000.0001)                 8.640112442052695E+05,      /* J = 42 */
(PID.TID 0000.0001)                 8.760904456023134E+05,      /* J = 43 */
(PID.TID 0000.0001)                 8.879027813627481E+05,      /* J = 44 */
(PID.TID 0000.0001)                 8.994446533346723E+05,      /* J = 45 */
(PID.TID 0000.0001)                 9.107125457520749E+05,      /* J = 46 */
(PID.TID 0000.0001)                 9.217030263057706E+05,      /* J = 47 */
(PID.TID 0000.0001)                 9.324127471889161E+05,      /* J = 48 */
(PID.TID 0000.0001)                 9.428384461167828E+05,      /* J = 49 */
(PID.TID 0000.0001)                 9.529769473204811E+05,      /* J = 50 */
(PID.TID 0000.0001)                 9.628251625143307E+05,      /* J = 51 */
(PID.TID 0000.0001)                 9.723800918365814E+05,      /* J = 52 */
(PID.TID 0000.0001)                 9.816388247632015E+05,      /* J = 53 */
(PID.TID 0000.0001)                 9.905985409944498E+05,      /* J = 54 */
(PID.TID 0000.0001)                 9.992565113139676E+05,      /* J = 55 */
(PID.TID 0000.0001)                 1.007610098420124E+06,      /* J = 56 */
(PID.TID 0000.0001)                 1.015656757729363E+06,      /* J = 57 */
(PID.TID 0000.0001)                 1.023394038151311E+06,      /* J = 58 */
(PID.TID 0000.0001)                 1.030819582835396E+06,      /* J = 59 */
(PID.TID 0000.0001)                 1.037931129888777E+06,      /* J = 60 */
(PID.TID 0000.0001)                 1.044726513065328E+06,      /* J = 61 */
(PID.TID 0000.0001)                 1.051203662425507E+06,      /* J = 62 */
(PID.TID 0000.0001)                 1.057360604966873E+06,      /* J = 63 */
(PID.TID 0000.0001)                 1.063195465225083E+06,      /* J = 64 */
(PID.TID 0000.0001)                 1.068706465845181E+06,      /* J = 65 */
(PID.TID 0000.0001)                 1.073891928122990E+06,      /* J = 66 */
(PID.TID 0000.0001)                 1.078750272516467E+06,      /* J = 67 */
(PID.TID 0000.0001)                 1.083280019126848E+06,      /* J = 68 */
(PID.TID 0000.0001)                 1.087479788149434E+06,      /* J = 69 */
(PID.TID 0000.0001)                 1.091348300293896E+06,      /* J = 70 */
(PID.TID 0000.0001)                 1.094884377173960E+06,      /* J = 71 */
(PID.TID 0000.0001)                 1.098086941666353E+06,      /* J = 72 */
(PID.TID 0000.0001)                 1.100955018238908E+06,      /* J = 73 */
(PID.TID 0000.0001)                 1.103487733247717E+06,      /* J = 74 */
(PID.TID 0000.0001)                 1.105684315203253E+06,      /* J = 75 */
(PID.TID 0000.0001)                 1.107544095005374E+06,      /* J = 76 */
(PID.TID 0000.0001)                 1.109066506147135E+06,      /* J = 77 */
(PID.TID 0000.0001)                 1.110251084887355E+06,      /* J = 78 */
(PID.TID 0000.0001)                 1.111097470391875E+06,      /* J = 79 */
(PID.TID 0000.0001)                 1.111605404843471E+06,      /* J = 80 */
(PID.TID 0000.0001)                 1.111774733520388E+06,      /* J = 81 */
(PID.TID 0000.0001)                 1.111605404843471E+06,      /* J = 82 */
(PID.TID 0000.0001)                 1.111097470391875E+06,      /* J = 83 */
(PID.TID 0000.0001)                 1.110251084887355E+06,      /* J = 84 */
(PID.TID 0000.0001)                 1.109066506147135E+06,      /* J = 85 */
(PID.TID 0000.0001)                 1.107544095005374E+06,      /* J = 86 */
(PID.TID 0000.0001)                 1.105684315203253E+06,      /* J = 87 */
(PID.TID 0000.0001)                 1.103487733247717E+06,      /* J = 88 */
(PID.TID 0000.0001)                 1.100955018238908E+06,      /* J = 89 */
(PID.TID 0000.0001)                 1.098086941666353E+06,      /* J = 90 */
(PID.TID 0000.0001)                 1.094884377173960E+06,      /* J = 91 */
(PID.TID 0000.0001)                 1.091348300293896E+06,      /* J = 92 */
(PID.TID 0000.0001)                 1.087479788149434E+06,      /* J = 93 */
(PID.TID 0000.0001)                 1.083280019126848E+06,      /* J = 94 */
(PID.TID 0000.0001)                 1.078750272516467E+06,      /* J = 95 */
(PID.TID 0000.0001)                 1.073891928122990E+06,      /* J = 96 */
(PID.TID 0000.0001)                 1.068706465845181E+06,      /* J = 97 */
(PID.TID 0000.0001)                 1.063195465225083E+06,      /* J = 98 */
(PID.TID 0000.0001)                 1.057360604966873E+06,      /* J = 99 */
(PID.TID 0000.0001)                 1.051203662425507E+06,      /* J =100 */
(PID.TID 0000.0001)                 1.044726513065328E+06,      /* J =101 */
(PID.TID 0000.0001)                 1.037931129888777E+06,      /* J =102 */
(PID.TID 0000.0001)                 1.030819582835396E+06,      /* J =103 */
(PID.TID 0000.0001)                 1.023394038151311E+06,      /* J =104 */
(PID.TID 0000.0001)                 1.015656757729363E+06,      /* J =105 */
(PID.TID 0000.0001)                 1.007610098420124E+06,      /* J =106 */
(PID.TID 0000.0001)                 9.992565113139676E+05,      /* J =107 */
(PID.TID 0000.0001)                 9.905985409944498E+05,      /* J =108 */
(PID.TID 0000.0001)                 9.816388247632015E+05,      /* J =109 */
(PID.TID 0000.0001)                 9.723800918365814E+05,      /* J =110 */
(PID.TID 0000.0001)                 9.628251625143307E+05,      /* J =111 */
(PID.TID 0000.0001)                 9.529769473204811E+05,      /* J =112 */
(PID.TID 0000.0001)                 9.428384461167828E+05,      /* J =113 */
(PID.TID 0000.0001)                 9.324127471889161E+05,      /* J =114 */
(PID.TID 0000.0001)                 9.217030263057706E+05,      /* J =115 */
(PID.TID 0000.0001)                 9.107125457520749E+05,      /* J =116 */
(PID.TID 0000.0001)                 8.994446533346723E+05,      /* J =117 */
(PID.TID 0000.0001)                 8.879027813627481E+05,      /* J =118 */
(PID.TID 0000.0001)                 8.760904456023134E+05,      /* J =119 */
(PID.TID 0000.0001)                 8.640112442052695E+05,      /* J =120 */
(PID.TID 0000.0001)                 8.516688566133757E+05,      /* J =121 */
(PID.TID 0000.0001)                 8.390670424374563E+05,      /* J =122 */
(PID.TID 0000.0001)                 8.262096403121852E+05,      /* J =123 */
(PID.TID 0000.0001)                 8.131005667268025E+05,      /* J =124 */
(PID.TID 0000.0001)                 7.997438148321130E+05,      /* J =125 */
(PID.TID 0000.0001)                 7.861434532241331E+05,      /* J =126 */
(PID.TID 0000.0001)                 7.723036247047586E+05,      /* J =127 */
(PID.TID 0000.0001)                 7.582285450198257E+05,      /* J =128 */
(PID.TID 0000.0001)                 7.439225015749553E+05,      /* J =129 */
(PID.TID 0000.0001)                 7.293898521295657E+05,      /* J =130 */
(PID.TID 0000.0001)                 7.146350234694595E+05,      /* J =131 */
(PID.TID 0000.0001)                 6.996625100583794E+05,      /* J =132 */
(PID.TID 0000.0001)                 6.844768726689526E+05,      /* J =133 */
(PID.TID 0000.0001)                 6.690827369934347E+05,      /* J =134 */
(PID.TID 0000.0001)                 6.534847922346783E+05,      /* J =135 */
(PID.TID 0000.0001)                 6.376877896777581E+05,      /* J =136 */
(PID.TID 0000.0001)                 6.216965412426814E+05,      /* J =137 */
(PID.TID 0000.0001)                 6.055159180186330E+05,      /* J =138 */
(PID.TID 0000.0001)                 5.891508487801914E+05,      /* J =139 */
(PID.TID 0000.0001)                 5.726063184859790E+05,      /* J =140 */
(PID.TID 0000.0001)                 5.558873667601941E+05,      /* J =141 */
(PID.TID 0000.0001)                 5.389990863574919E+05,      /* J =142 */
(PID.TID 0000.0001)                 5.219466216116839E+05,      /* J =143 */
(PID.TID 0000.0001)                 5.047351668687224E+05,      /* J =144 */
(PID.TID 0000.0001)                 4.873699649044534E+05,      /* J =145 */
(PID.TID 0000.0001)                 4.698563053276157E+05,      /* J =146 */
(PID.TID 0000.0001)                 4.521995229685750E+05,      /* J =147 */
(PID.TID 0000.0001)                 4.344049962542827E+05,      /* J =148 */
(PID.TID 0000.0001)                 4.164781455699558E+05,      /* J =149 */
(PID.TID 0000.0001)                 3.984244316079742E+05,      /* J =150 */
(PID.TID 0000.0001)                 3.802493537045004E+05,      /* J =151 */
(PID.TID 0000.0001)                 3.619584481643299E+05,      /* J =152 */
(PID.TID 0000.0001)                 3.435572865744784E+05,      /* J =153 */
(PID.TID 0000.0001)                 3.250514741070222E+05,      /* J =154 */
(PID.TID 0000.0001)                 3.064466478117086E+05,      /* J =155 */
(PID.TID 0000.0001)                 2.877484748988562E+05,      /* J =156 */
(PID.TID 0000.0001)                 2.689626510130676E+05,      /* J =157 */
(PID.TID 0000.0001)                 2.500948984982807E+05,      /* J =158 */
(PID.TID 0000.0001)                 2.311509646546878E+05,      /* J =159 */
(PID.TID 0000.0001)                 2.121366199880512E+05       /* J =160 */
(PID.TID 0000.0001)     ;
(PID.TID 0000.0001) dyU =  /* dyU(:,1,:,1) ( units: m ) */
(PID.TID 0000.0001)                 1.111774733520388E+05       /* I =  1 */
(PID.TID 0000.0001)     ;
(PID.TID 0000.0001) dyU =  /* dyU(1,:,1,:) ( units: m ) */
(PID.TID 0000.0001)   160 @  1.111774733520388E+05              /* J =  1:160 */
(PID.TID 0000.0001)     ;
(PID.TID 0000.0001) rA  =  /* rA (:,1,:,1) ( units: m^2 ) */
(PID.TID 0000.0001)                 2.252480972600775E+10       /* I =  1 */
(PID.TID 0000.0001)     ;
(PID.TID 0000.0001) rA  =  /* rA (1,:,1,:) ( units: m^2 ) */
(PID.TID 0000.0001)                 2.252480972600775E+10,      /* J =  1 */
(PID.TID 0000.0001)                 2.464242236022338E+10,      /* J =  2 */
(PID.TID 0000.0001)                 2.675252867386942E+10,      /* J =  3 */
(PID.TID 0000.0001)                 2.885448590812564E+10,      /* J =  4 */
(PID.TID 0000.0001)                 3.094765378645360E+10,      /* J =  5 */
(PID.TID 0000.0001)                 3.303139470964198E+10,      /* J =  6 */
(PID.TID 0000.0001)                 3.510507395001997E+10,      /* J =  7 */
(PID.TID 0000.0001)                 3.716805984480109E+10,      /* J =  8 */
(PID.TID 0000.0001)                 3.921972398849929E+10,      /* J =  9 */
(PID.TID 0000.0001)                 4.125944142434001E+10,      /* J = 10 */
(PID.TID 0000.0001)                 4.328659083463361E+10,      /* J = 11 */
(PID.TID 0000.0001)                 4.530055473003297E+10,      /* J = 12 */
(PID.TID 0000.0001)                 4.730071963762505E+10,      /* J = 13 */
(PID.TID 0000.0001)                 4.928647628780381E+10,      /* J = 14 */
(PID.TID 0000.0001)                 5.125721979985523E+10,      /* J = 15 */
(PID.TID 0000.0001)                 5.321234986621584E+10,      /* J = 16 */
(PID.TID 0000.0001)                 5.515127093532944E+10,      /* J = 17 */
(PID.TID 0000.0001)                 5.707339239305151E+10,      /* J = 18 */
(PID.TID 0000.0001)                 5.897812874256923E+10,      /* J = 19 */
(PID.TID 0000.0001)                 6.086489978273795E+10,      /* J = 20 */
(PID.TID 0000.0001)                 6.273313078482073E+10,      /* J = 21 */
(PID.TID 0000.0001)                 6.458225266755869E+10,      /* J = 22 */
(PID.TID 0000.0001)                 6.641170217051002E+10,      /* J = 23 */
(PID.TID 0000.0001)                 6.822092202563634E+10,      /* J = 24 */
(PID.TID 0000.0001)                 7.000936112704308E+10,      /* J = 25 */
(PID.TID 0000.0001)                 7.177647469885382E+10,      /* J = 26 */
(PID.TID 0000.0001)                 7.352172446115779E+10,      /* J = 27 */
(PID.TID 0000.0001)                 7.524457879396867E+10,      /* J = 28 */
(PID.TID 0000.0001)                 7.694451289916994E+10,      /* J = 29 */
(PID.TID 0000.0001)                 7.862100896036314E+10,      /* J = 30 */
(PID.TID 0000.0001)                 8.027355630060757E+10,      /* J = 31 */
(PID.TID 0000.0001)                 8.190165153797635E+10,      /* J = 32 */
(PID.TID 0000.0001)                 8.350479873888739E+10,      /* J = 33 */
(PID.TID 0000.0001)                 8.508250956917326E+10,      /* J = 34 */
(PID.TID 0000.0001)                 8.663430344283134E+10,      /* J = 35 */
(PID.TID 0000.0001)                 8.815970766841537E+10,      /* J = 36 */
(PID.TID 0000.0001)                 8.965825759302174E+10,      /* J = 37 */
(PID.TID 0000.0001)                 9.112949674382579E+10,      /* J = 38 */
(PID.TID 0000.0001)                 9.257297696713127E+10,      /* J = 39 */
(PID.TID 0000.0001)                 9.398825856487766E+10,      /* J = 40 */
(PID.TID 0000.0001)                 9.537491042857968E+10,      /* J = 41 */
(PID.TID 0000.0001)                 9.673251017064780E+10,      /* J = 42 */
(PID.TID 0000.0001)                 9.806064425305017E+10,      /* J = 43 */
(PID.TID 0000.0001)                 9.935890811327728E+10,      /* J = 44 */
(PID.TID 0000.0001)                 1.006269062875826E+11,      /* J = 45 */
(PID.TID 0000.0001)                 1.018642525314361E+11,      /* J = 46 */
(PID.TID 0000.0001)                 1.030705699371901E+11,      /* J = 47 */
(PID.TID 0000.0001)                 1.042454910488727E+11,      /* J = 48 */
(PID.TID 0000.0001)                 1.053886579741328E+11,      /* J = 49 */
(PID.TID 0000.0001)                 1.064997224932514E+11,      /* J = 50 */
(PID.TID 0000.0001)                 1.075783461652121E+11,      /* J = 51 */
(PID.TID 0000.0001)                 1.086242004307971E+11,      /* J = 52 */
(PID.TID 0000.0001)                 1.096369667126647E+11,      /* J = 53 */
(PID.TID 0000.0001)                 1.106163365123932E+11,      /* J = 54 */
(PID.TID 0000.0001)                 1.115620115044562E+11,      /* J = 55 */
(PID.TID 0000.0001)                 1.124737036270897E+11,      /* J = 56 */
(PID.TID 0000.0001)                 1.133511351700408E+11,      /* J = 57 */
(PID.TID 0000.0001)                 1.141940388591624E+11,      /* J = 58 */
(PID.TID 0000.0001)                 1.150021579378244E+11,      /* J = 59 */
(PID.TID 0000.0001)                 1.157752462451282E+11,      /* J = 60 */
(PID.TID 0000.0001)                 1.165130682908850E+11,      /* J = 61 */
(PID.TID 0000.0001)                 1.172153993273542E+11,      /* J = 62 */
(PID.TID 0000.0001)                 1.178820254176956E+11,      /* J = 63 */
(PID.TID 0000.0001)                 1.185127435011478E+11,      /* J = 64 */
(PID.TID 0000.0001)                 1.191073614548694E+11,      /* J = 65 */
(PID.TID 0000.0001)                 1.196656981524731E+11,      /* J = 66 */
(PID.TID 0000.0001)                 1.201875835191924E+11,      /* J = 67 */
(PID.TID 0000.0001)                 1.206728585836883E+11,      /* J = 68 */
(PID.TID 0000.0001)                 1.211213755264754E+11,      /* J = 69 */
(PID.TID 0000.0001)                 1.215329977249480E+11,      /* J = 70 */
(PID.TID 0000.0001)                 1.219075997949968E+11,      /* J = 71 */
(PID.TID 0000.0001)                 1.222450676292029E+11,      /* J = 72 */
(PID.TID 0000.0001)                 1.225452984315944E+11,      /* J = 73 */
(PID.TID 0000.0001)                 1.228082007489607E+11,      /* J = 74 */
(PID.TID 0000.0001)                 1.230336944987093E+11,      /* J = 75 */
(PID.TID 0000.0001)                 1.232217109932591E+11,      /* J = 76 */
(PID.TID 0000.0001)                 1.233721929609651E+11,      /* J = 77 */
(PID.TID 0000.0001)                 1.234850945635619E+11,      /* J = 78 */
(PID.TID 0000.0001)                 1.235603814101275E+11,      /* J = 79 */
(PID.TID 0000.0001)     2 @  1.235980305675594E+11,             /* J = 80: 81 */
(PID.TID 0000.0001)                 1.235603814101275E+11,      /* J = 82 */
(PID.TID 0000.0001)                 1.234850945635619E+11,      /* J = 83 */
(PID.TID 0000.0001)                 1.233721929609651E+11,      /* J = 84 */
(PID.TID 0000.0001)                 1.232217109932591E+11,      /* J = 85 */
(PID.TID 0000.0001)                 1.230336944987093E+11,      /* J = 86 */
(PID.TID 0000.0001)                 1.228082007489607E+11,      /* J = 87 */
(PID.TID 0000.0001)                 1.225452984315944E+11,      /* J = 88 */
(PID.TID 0000.0001)                 1.222450676292029E+11,      /* J = 89 */
(PID.TID 0000.0001)                 1.219075997949968E+11,      /* J = 90 */
(PID.TID 0000.0001)                 1.215329977249480E+11,      /* J = 91 */
(PID.TID 0000.0001)                 1.211213755264754E+11,      /* J = 92 */
(PID.TID 0000.0001)                 1.206728585836883E+11,      /* J = 93 */
(PID.TID 0000.0001)                 1.201875835191924E+11,      /* J = 94 */
(PID.TID 0000.0001)                 1.196656981524731E+11,      /* J = 95 */
(PID.TID 0000.0001)                 1.191073614548694E+11,      /* J = 96 */
(PID.TID 0000.0001)                 1.185127435011478E+11,      /* J = 97 */
(PID.TID 0000.0001)                 1.178820254176956E+11,      /* J = 98 */
(PID.TID 0000.0001)                 1.172153993273542E+11,      /* J = 99 */
(PID.TID 0000.0001)                 1.165130682908850E+11,      /* J =100 */
(PID.TID 0000.0001)                 1.157752462451282E+11,      /* J =101 */
(PID.TID 0000.0001)                 1.150021579378244E+11,      /* J =102 */
(PID.TID 0000.0001)                 1.141940388591624E+11,      /* J =103 */
(PID.TID 0000.0001)                 1.133511351700408E+11,      /* J =104 */
(PID.TID 0000.0001)                 1.124737036270897E+11,      /* J =105 */
(PID.TID 0000.0001)                 1.115620115044562E+11,      /* J =106 */
(PID.TID 0000.0001)                 1.106163365123932E+11,      /* J =107 */
(PID.TID 0000.0001)                 1.096369667126647E+11,      /* J =108 */
(PID.TID 0000.0001)                 1.086242004307971E+11,      /* J =109 */
(PID.TID 0000.0001)                 1.075783461652121E+11,      /* J =110 */
(PID.TID 0000.0001)                 1.064997224932514E+11,      /* J =111 */
(PID.TID 0000.0001)                 1.053886579741328E+11,      /* J =112 */
(PID.TID 0000.0001)                 1.042454910488727E+11,      /* J =113 */
(PID.TID 0000.0001)                 1.030705699371901E+11,      /* J =114 */
(PID.TID 0000.0001)                 1.018642525314361E+11,      /* J =115 */
(PID.TID 0000.0001)                 1.006269062875826E+11,      /* J =116 */
(PID.TID 0000.0001)                 9.935890811327728E+10,      /* J =117 */
(PID.TID 0000.0001)                 9.806064425305017E+10,      /* J =118 */
(PID.TID 0000.0001)                 9.673251017064780E+10,      /* J =119 */
(PID.TID 0000.0001)                 9.537491042857968E+10,      /* J =120 */
(PID.TID 0000.0001)                 9.398825856487766E+10,      /* J =121 */
(PID.TID 0000.0001)                 9.257297696713127E+10,      /* J =122 */
(PID.TID 0000.0001)                 9.112949674382579E+10,      /* J =123 */
(PID.TID 0000.0001)                 8.965825759302174E+10,      /* J =124 */
(PID.TID 0000.0001)                 8.815970766841537E+10,      /* J =125 */
(PID.TID 0000.0001)                 8.663430344283134E+10,      /* J =126 */
(PID.TID 0000.0001)                 8.508250956917326E+10,      /* J =127 */
(PID.TID 0000.0001)                 8.350479873888739E+10,      /* J =128 */
(PID.TID 0000.0001)                 8.190165153797635E+10,      /* J =129 */
(PID.TID 0000.0001)                 8.027355630060757E+10,      /* J =130 */
(PID.TID 0000.0001)                 7.862100896036314E+10,      /* J =131 */
(PID.TID 0000.0001)                 7.694451289916994E+10,      /* J =132 */
(PID.TID 0000.0001)                 7.524457879396867E+10,      /* J =133 */
(PID.TID 0000.0001)                 7.352172446115779E+10,      /* J =134 */
(PID.TID 0000.0001)                 7.177647469885382E+10,      /* J =135 */
(PID.TID 0000.0001)                 7.000936112704308E+10,      /* J =136 */
(PID.TID 0000.0001)                 6.822092202563634E+10,      /* J =137 */
(PID.TID 0000.0001)                 6.641170217051002E+10,      /* J =138 */
(PID.TID 0000.0001)                 6.458225266755869E+10,      /* J =139 */
(PID.TID 0000.0001)                 6.273313078482073E+10,      /* J =140 */
(PID.TID 0000.0001)                 6.086489978273795E+10,      /* J =141 */
(PID.TID 0000.0001)                 5.897812874256923E+10,      /* J =142 */
(PID.TID 0000.0001)                 5.707339239305151E+10,      /* J =143 */
(PID.TID 0000.0001)                 5.515127093532944E+10,      /* J =144 */
(PID.TID 0000.0001)                 5.321234986621584E+10,      /* J =145 */
(PID.TID 0000.0001)                 5.125721979985523E+10,      /* J =146 */
(PID.TID 0000.0001)                 4.928647628780381E+10,      /* J =147 */
(PID.TID 0000.0001)                 4.730071963762505E+10,      /* J =148 */
(PID.TID 0000.0001)                 4.530055473003297E+10,      /* J =149 */
(PID.TID 0000.0001)                 4.328659083463361E+10,      /* J =150 */
(PID.TID 0000.0001)                 4.125944142434001E+10,      /* J =151 */
(PID.TID 0000.0001)                 3.921972398849929E+10,      /* J =152 */
(PID.TID 0000.0001)                 3.716805984480109E+10,      /* J =153 */
(PID.TID 0000.0001)                 3.510507395001997E+10,      /* J =154 */
(PID.TID 0000.0001)                 3.303139470964198E+10,      /* J =155 */
(PID.TID 0000.0001)                 3.094765378645360E+10,      /* J =156 */
(PID.TID 0000.0001)                 2.885448590812564E+10,      /* J =157 */
(PID.TID 0000.0001)                 2.675252867386942E+10,      /* J =158 */
(PID.TID 0000.0001)                 2.464242236022338E+10,      /* J =159 */
(PID.TID 0000.0001)                 2.252480972600775E+10       /* J =160 */
(PID.TID 0000.0001)     ;
(PID.TID 0000.0001) rAw =  /* rAw(:,1,:,1) ( units: m^2 ) */
(PID.TID 0000.0001)                 2.252480972600775E+10       /* I =  1 */
(PID.TID 0000.0001)     ;
(PID.TID 0000.0001) rAw =  /* rAw(1,:,1,:) ( units: m^2 ) */
(PID.TID 0000.0001)                 2.252480972600775E+10,      /* J =  1 */
(PID.TID 0000.0001)                 2.464242236022338E+10,      /* J =  2 */
(PID.TID 0000.0001)                 2.675252867386942E+10,      /* J =  3 */
(PID.TID 0000.0001)                 2.885448590812564E+10,      /* J =  4 */
(PID.TID 0000.0001)                 3.094765378645360E+10,      /* J =  5 */
(PID.TID 0000.0001)                 3.303139470964198E+10,      /* J =  6 */
(PID.TID 0000.0001)                 3.510507395001997E+10,      /* J =  7 */
(PID.TID 0000.0001)                 3.716805984480109E+10,      /* J =  8 */
(PID.TID 0000.0001)                 3.921972398849929E+10,      /* J =  9 */
(PID.TID 0000.0001)                 4.125944142434001E+10,      /* J = 10 */
(PID.TID 0000.0001)                 4.328659083463361E+10,      /* J = 11 */
(PID.TID 0000.0001)                 4.530055473003297E+10,      /* J = 12 */
(PID.TID 0000.0001)                 4.730071963762505E+10,      /* J = 13 */
(PID.TID 0000.0001)                 4.928647628780381E+10,      /* J = 14 */
(PID.TID 0000.0001)                 5.125721979985523E+10,      /* J = 15 */
(PID.TID 0000.0001)                 5.321234986621584E+10,      /* J = 16 */
(PID.TID 0000.0001)                 5.515127093532944E+10,      /* J = 17 */
(PID.TID 0000.0001)                 5.707339239305151E+10,      /* J = 18 */
(PID.TID 0000.0001)                 5.897812874256923E+10,      /* J = 19 */
(PID.TID 0000.0001)                 6.086489978273795E+10,      /* J = 20 */
(PID.TID 0000.0001)                 6.273313078482073E+10,      /* J = 21 */
(PID.TID 0000.0001)                 6.458225266755869E+10,      /* J = 22 */
(PID.TID 0000.0001)                 6.641170217051002E+10,      /* J = 23 */
(PID.TID 0000.0001)                 6.822092202563634E+10,      /* J = 24 */
(PID.TID 0000.0001)                 7.000936112704308E+10,      /* J = 25 */
(PID.TID 0000.0001)                 7.177647469885382E+10,      /* J = 26 */
(PID.TID 0000.0001)                 7.352172446115779E+10,      /* J = 27 */
(PID.TID 0000.0001)                 7.524457879396867E+10,      /* J = 28 */
(PID.TID 0000.0001)                 7.694451289916994E+10,      /* J = 29 */
(PID.TID 0000.0001)                 7.862100896036314E+10,      /* J = 30 */
(PID.TID 0000.0001)                 8.027355630060757E+10,      /* J = 31 */
(PID.TID 0000.0001)                 8.190165153797635E+10,      /* J = 32 */
(PID.TID 0000.0001)                 8.350479873888739E+10,      /* J = 33 */
(PID.TID 0000.0001)                 8.508250956917326E+10,      /* J = 34 */
(PID.TID 0000.0001)                 8.663430344283134E+10,      /* J = 35 */
(PID.TID 0000.0001)                 8.815970766841537E+10,      /* J = 36 */
(PID.TID 0000.0001)                 8.965825759302174E+10,      /* J = 37 */
(PID.TID 0000.0001)                 9.112949674382579E+10,      /* J = 38 */
(PID.TID 0000.0001)                 9.257297696713127E+10,      /* J = 39 */
(PID.TID 0000.0001)                 9.398825856487766E+10,      /* J = 40 */
(PID.TID 0000.0001)                 9.537491042857968E+10,      /* J = 41 */
(PID.TID 0000.0001)                 9.673251017064780E+10,      /* J = 42 */
(PID.TID 0000.0001)                 9.806064425305017E+10,      /* J = 43 */
(PID.TID 0000.0001)                 9.935890811327728E+10,      /* J = 44 */
(PID.TID 0000.0001)                 1.006269062875826E+11,      /* J = 45 */
(PID.TID 0000.0001)                 1.018642525314361E+11,      /* J = 46 */
(PID.TID 0000.0001)                 1.030705699371901E+11,      /* J = 47 */
(PID.TID 0000.0001)                 1.042454910488727E+11,      /* J = 48 */
(PID.TID 0000.0001)                 1.053886579741328E+11,      /* J = 49 */
(PID.TID 0000.0001)                 1.064997224932514E+11,      /* J = 50 */
(PID.TID 0000.0001)                 1.075783461652121E+11,      /* J = 51 */
(PID.TID 0000.0001)                 1.086242004307971E+11,      /* J = 52 */
(PID.TID 0000.0001)                 1.096369667126647E+11,      /* J = 53 */
(PID.TID 0000.0001)                 1.106163365123932E+11,      /* J = 54 */
(PID.TID 0000.0001)                 1.115620115044562E+11,      /* J = 55 */
(PID.TID 0000.0001)                 1.124737036270897E+11,      /* J = 56 */
(PID.TID 0000.0001)                 1.133511351700408E+11,      /* J = 57 */
(PID.TID 0000.0001)                 1.141940388591624E+11,      /* J = 58 */
(PID.TID 0000.0001)                 1.150021579378244E+11,      /* J = 59 */
(PID.TID 0000.0001)                 1.157752462451282E+11,      /* J = 60 */
(PID.TID 0000.0001)                 1.165130682908850E+11,      /* J = 61 */
(PID.TID 0000.0001)                 1.172153993273542E+11,      /* J = 62 */
(PID.TID 0000.0001)                 1.178820254176956E+11,      /* J = 63 */
(PID.TID 0000.0001)                 1.185127435011478E+11,      /* J = 64 */
(PID.TID 0000.0001)                 1.191073614548694E+11,      /* J = 65 */
(PID.TID 0000.0001)                 1.196656981524731E+11,      /* J = 66 */
(PID.TID 0000.0001)                 1.201875835191924E+11,      /* J = 67 */
(PID.TID 0000.0001)                 1.206728585836883E+11,      /* J = 68 */
(PID.TID 0000.0001)                 1.211213755264754E+11,      /* J = 69 */
(PID.TID 0000.0001)                 1.215329977249480E+11,      /* J = 70 */
(PID.TID 0000.0001)                 1.219075997949968E+11,      /* J = 71 */
(PID.TID 0000.0001)                 1.222450676292029E+11,      /* J = 72 */
(PID.TID 0000.0001)                 1.225452984315944E+11,      /* J = 73 */
(PID.TID 0000.0001)                 1.228082007489607E+11,      /* J = 74 */
(PID.TID 0000.0001)                 1.230336944987093E+11,      /* J = 75 */
(PID.TID 0000.0001)                 1.232217109932591E+11,      /* J = 76 */
(PID.TID 0000.0001)                 1.233721929609651E+11,      /* J = 77 */
(PID.TID 0000.0001)                 1.234850945635619E+11,      /* J = 78 */
(PID.TID 0000.0001)                 1.235603814101275E+11,      /* J = 79 */
(PID.TID 0000.0001)     2 @  1.235980305675594E+11,             /* J = 80: 81 */
(PID.TID 0000.0001)                 1.235603814101275E+11,      /* J = 82 */
(PID.TID 0000.0001)                 1.234850945635619E+11,      /* J = 83 */
(PID.TID 0000.0001)                 1.233721929609651E+11,      /* J = 84 */
(PID.TID 0000.0001)                 1.232217109932591E+11,      /* J = 85 */
(PID.TID 0000.0001)                 1.230336944987093E+11,      /* J = 86 */
(PID.TID 0000.0001)                 1.228082007489607E+11,      /* J = 87 */
(PID.TID 0000.0001)                 1.225452984315944E+11,      /* J = 88 */
(PID.TID 0000.0001)                 1.222450676292029E+11,      /* J = 89 */
(PID.TID 0000.0001)                 1.219075997949968E+11,      /* J = 90 */
(PID.TID 0000.0001)                 1.215329977249480E+11,      /* J = 91 */
(PID.TID 0000.0001)                 1.211213755264754E+11,      /* J = 92 */
(PID.TID 0000.0001)                 1.206728585836883E+11,      /* J = 93 */
(PID.TID 0000.0001)                 1.201875835191924E+11,      /* J = 94 */
(PID.TID 0000.0001)                 1.196656981524731E+11,      /* J = 95 */
(PID.TID 0000.0001)                 1.191073614548694E+11,      /* J = 96 */
(PID.TID 0000.0001)                 1.185127435011478E+11,      /* J = 97 */
(PID.TID 0000.0001)                 1.178820254176956E+11,      /* J = 98 */
(PID.TID 0000.0001)                 1.172153993273542E+11,      /* J = 99 */
(PID.TID 0000.0001)                 1.165130682908850E+11,      /* J =100 */
(PID.TID 0000.0001)                 1.157752462451282E+11,      /* J =101 */
(PID.TID 0000.0001)                 1.150021579378244E+11,      /* J =102 */
(PID.TID 0000.0001)                 1.141940388591624E+11,      /* J =103 */
(PID.TID 0000.0001)                 1.133511351700408E+11,      /* J =104 */
(PID.TID 0000.0001)                 1.124737036270897E+11,      /* J =105 */
(PID.TID 0000.0001)                 1.115620115044562E+11,      /* J =106 */
(PID.TID 0000.0001)                 1.106163365123932E+11,      /* J =107 */
(PID.TID 0000.0001)                 1.096369667126647E+11,      /* J =108 */
(PID.TID 0000.0001)                 1.086242004307971E+11,      /* J =109 */
(PID.TID 0000.0001)                 1.075783461652121E+11,      /* J =110 */
(PID.TID 0000.0001)                 1.064997224932514E+11,      /* J =111 */
(PID.TID 0000.0001)                 1.053886579741328E+11,      /* J =112 */
(PID.TID 0000.0001)                 1.042454910488727E+11,      /* J =113 */
(PID.TID 0000.0001)                 1.030705699371901E+11,      /* J =114 */
(PID.TID 0000.0001)                 1.018642525314361E+11,      /* J =115 */
(PID.TID 0000.0001)                 1.006269062875826E+11,      /* J =116 */
(PID.TID 0000.0001)                 9.935890811327728E+10,      /* J =117 */
(PID.TID 0000.0001)                 9.806064425305017E+10,      /* J =118 */
(PID.TID 0000.0001)                 9.673251017064780E+10,      /* J =119 */
(PID.TID 0000.0001)                 9.537491042857968E+10,      /* J =120 */
(PID.TID 0000.0001)                 9.398825856487766E+10,      /* J =121 */
(PID.TID 0000.0001)                 9.257297696713127E+10,      /* J =122 */
(PID.TID 0000.0001)                 9.112949674382579E+10,      /* J =123 */
(PID.TID 0000.0001)                 8.965825759302174E+10,      /* J =124 */
(PID.TID 0000.0001)                 8.815970766841537E+10,      /* J =125 */
(PID.TID 0000.0001)                 8.663430344283134E+10,      /* J =126 */
(PID.TID 0000.0001)                 8.508250956917326E+10,      /* J =127 */
(PID.TID 0000.0001)                 8.350479873888739E+10,      /* J =128 */
(PID.TID 0000.0001)                 8.190165153797635E+10,      /* J =129 */
(PID.TID 0000.0001)                 8.027355630060757E+10,      /* J =130 */
(PID.TID 0000.0001)                 7.862100896036314E+10,      /* J =131 */
(PID.TID 0000.0001)                 7.694451289916994E+10,      /* J =132 */
(PID.TID 0000.0001)                 7.524457879396867E+10,      /* J =133 */
(PID.TID 0000.0001)                 7.352172446115779E+10,      /* J =134 */
(PID.TID 0000.0001)                 7.177647469885382E+10,      /* J =135 */
(PID.TID 0000.0001)                 7.000936112704308E+10,      /* J =136 */
(PID.TID 0000.0001)                 6.822092202563634E+10,      /* J =137 */
(PID.TID 0000.0001)                 6.641170217051002E+10,      /* J =138 */
(PID.TID 0000.0001)                 6.458225266755869E+10,      /* J =139 */
(PID.TID 0000.0001)                 6.273313078482073E+10,      /* J =140 */
(PID.TID 0000.0001)                 6.086489978273795E+10,      /* J =141 */
(PID.TID 0000.0001)                 5.897812874256923E+10,      /* J =142 */
(PID.TID 0000.0001)                 5.707339239305151E+10,      /* J =143 */
(PID.TID 0000.0001)                 5.515127093532944E+10,      /* J =144 */
(PID.TID 0000.0001)                 5.321234986621584E+10,      /* J =145 */
(PID.TID 0000.0001)                 5.125721979985523E+10,      /* J =146 */
(PID.TID 0000.0001)                 4.928647628780381E+10,      /* J =147 */
(PID.TID 0000.0001)                 4.730071963762505E+10,      /* J =148 */
(PID.TID 0000.0001)                 4.530055473003297E+10,      /* J =149 */
(PID.TID 0000.0001)                 4.328659083463361E+10,      /* J =150 */
(PID.TID 0000.0001)                 4.125944142434001E+10,      /* J =151 */
(PID.TID 0000.0001)                 3.921972398849929E+10,      /* J =152 */
(PID.TID 0000.0001)                 3.716805984480109E+10,      /* J =153 */
(PID.TID 0000.0001)                 3.510507395001997E+10,      /* J =154 */
(PID.TID 0000.0001)                 3.303139470964198E+10,      /* J =155 */
(PID.TID 0000.0001)                 3.094765378645360E+10,      /* J =156 */
(PID.TID 0000.0001)                 2.885448590812564E+10,      /* J =157 */
(PID.TID 0000.0001)                 2.675252867386942E+10,      /* J =158 */
(PID.TID 0000.0001)                 2.464242236022338E+10,      /* J =159 */
(PID.TID 0000.0001)                 2.252480972600775E+10       /* J =160 */
(PID.TID 0000.0001)     ;
(PID.TID 0000.0001) rAs =  /* rAs(:,1,:,1) ( units: m^2 ) */
(PID.TID 0000.0001)                 2.146339003140313E+10       /* I =  1 */
(PID.TID 0000.0001)     ;
(PID.TID 0000.0001) rAs =  /* rAs(1,:,1,:) ( units: m^2 ) */
(PID.TID 0000.0001)                 2.146339003140313E+10,      /* J =  1 */
(PID.TID 0000.0001)                 2.358451406914463E+10,      /* J =  2 */
(PID.TID 0000.0001)                 2.569845403543146E+10,      /* J =  3 */
(PID.TID 0000.0001)                 2.780456600367350E+10,      /* J =  4 */
(PID.TID 0000.0001)                 2.990220843176115E+10,      /* J =  5 */
(PID.TID 0000.0001)                 3.199074235749183E+10,      /* J =  6 */
(PID.TID 0000.0001)                 3.406953159319860E+10,      /* J =  7 */
(PID.TID 0000.0001)                 3.613794291954374E+10,      /* J =  8 */
(PID.TID 0000.0001)                 3.819534627839939E+10,      /* J =  9 */
(PID.TID 0000.0001)                 4.024111496477148E+10,      /* J = 10 */
(PID.TID 0000.0001)                 4.227462581770209E+10,      /* J = 11 */
(PID.TID 0000.0001)                 4.429525941008306E+10,      /* J = 12 */
(PID.TID 0000.0001)                 4.630240023735217E+10,      /* J = 13 */
(PID.TID 0000.0001)                 4.829543690496597E+10,      /* J = 14 */
(PID.TID 0000.0001)                 5.027376231465073E+10,      /* J = 15 */
(PID.TID 0000.0001)                 5.223677384932224E+10,      /* J = 16 */
(PID.TID 0000.0001)                 5.418387355664783E+10,      /* J = 17 */
(PID.TID 0000.0001)                 5.611446833120007E+10,      /* J = 18 */
(PID.TID 0000.0001)                 5.802797009510403E+10,      /* J = 19 */
(PID.TID 0000.0001)                 5.992379597718761E+10,      /* J = 20 */
(PID.TID 0000.0001)                 6.180136849052223E+10,      /* J = 21 */
(PID.TID 0000.0001)                 6.366011570833057E+10,      /* J = 22 */
(PID.TID 0000.0001)                 6.549947143820459E+10,      /* J = 23 */
(PID.TID 0000.0001)                 6.731887539457177E+10,      /* J = 24 */
(PID.TID 0000.0001)                 6.911777336936082E+10,      /* J = 25 */
(PID.TID 0000.0001)                 7.089561740082285E+10,      /* J = 26 */
(PID.TID 0000.0001)                 7.265186594044339E+10,      /* J = 27 */
(PID.TID 0000.0001)                 7.438598401790305E+10,      /* J = 28 */
(PID.TID 0000.0001)                 7.609744340403865E+10,      /* J = 29 */
(PID.TID 0000.0001)                 7.778572277174043E+10,      /* J = 30 */
(PID.TID 0000.0001)                 7.945030785475937E+10,      /* J = 31 */
(PID.TID 0000.0001)                 8.109069160435303E+10,      /* J = 32 */
(PID.TID 0000.0001)                 8.270637434373946E+10,      /* J = 33 */
(PID.TID 0000.0001)                 8.429686392030849E+10,      /* J = 34 */
(PID.TID 0000.0001)                 8.586167585552390E+10,      /* J = 35 */
(PID.TID 0000.0001)                 8.740033349251320E+10,      /* J = 36 */
(PID.TID 0000.0001)                 8.891236814125529E+10,      /* J = 37 */
(PID.TID 0000.0001)                 9.039731922134654E+10,      /* J = 38 */
(PID.TID 0000.0001)                 9.185473440230582E+10,      /* J = 39 */
(PID.TID 0000.0001)                 9.328416974134933E+10,      /* J = 40 */
(PID.TID 0000.0001)                 9.468518981862512E+10,      /* J = 41 */
(PID.TID 0000.0001)                 9.605736786984653E+10,      /* J = 42 */
(PID.TID 0000.0001)                 9.740028591628539E+10,      /* J = 43 */
(PID.TID 0000.0001)                 9.871353489209756E+10,      /* J = 44 */
(PID.TID 0000.0001)                 9.999671476892084E+10,      /* J = 45 */
(PID.TID 0000.0001)                 1.012494346777366E+11,      /* J = 46 */
(PID.TID 0000.0001)                 1.024713130279239E+11,      /* J = 47 */
(PID.TID 0000.0001)                 1.036619776235002E+11,      /* J = 48 */
(PID.TID 0000.0001)                 1.048210657764984E+11,      /* J = 49 */
(PID.TID 0000.0001)                 1.059482244174344E+11,      /* J = 50 */
(PID.TID 0000.0001)                 1.070431102028693E+11,      /* J = 51 */
(PID.TID 0000.0001)                 1.081053896199886E+11,      /* J = 52 */
(PID.TID 0000.0001)                 1.091347390881877E+11,      /* J = 53 */
(PID.TID 0000.0001)                 1.101308450576488E+11,      /* J = 54 */
(PID.TID 0000.0001)                 1.110934041048438E+11,      /* J = 55 */
(PID.TID 0000.0001)                 1.120221230249629E+11,      /* J = 56 */
(PID.TID 0000.0001)                 1.129167189212255E+11,      /* J = 57 */
(PID.TID 0000.0001)                 1.137769192910560E+11,      /* J = 58 */
(PID.TID 0000.0001)                 1.146024621090888E+11,      /* J = 59 */
(PID.TID 0000.0001)                 1.153930959069846E+11,      /* J = 60 */
(PID.TID 0000.0001)                 1.161485798500283E+11,      /* J = 61 */
(PID.TID 0000.0001)                 1.168686838104932E+11,      /* J = 62 */
(PID.TID 0000.0001)                 1.175531884377377E+11,      /* J = 63 */
(PID.TID 0000.0001)                 1.182018852250201E+11,      /* J = 64 */
(PID.TID 0000.0001)                 1.188145765730164E+11,      /* J = 65 */
(PID.TID 0000.0001)                 1.193910758500046E+11,      /* J = 66 */
(PID.TID 0000.0001)                 1.199312074487231E+11,      /* J = 67 */
(PID.TID 0000.0001)                 1.204348068398518E+11,      /* J = 68 */
(PID.TID 0000.0001)                 1.209017206221394E+11,      /* J = 69 */
(PID.TID 0000.0001)                 1.213318065691243E+11,      /* J = 70 */
(PID.TID 0000.0001)                 1.217249336724607E+11,      /* J = 71 */
(PID.TID 0000.0001)                 1.220809821818243E+11,      /* J = 72 */
(PID.TID 0000.0001)                 1.223998436413906E+11,      /* J = 73 */
(PID.TID 0000.0001)                 1.226814209228693E+11,      /* J = 74 */
(PID.TID 0000.0001)                 1.229256282550938E+11,      /* J = 75 */
(PID.TID 0000.0001)                 1.231323912501442E+11,      /* J = 76 */
(PID.TID 0000.0001)                 1.233016469260097E+11,      /* J = 77 */
(PID.TID 0000.0001)                 1.234333437257716E+11,      /* J = 78 */
(PID.TID 0000.0001)                 1.235274415333090E+11,      /* J = 79 */
(PID.TID 0000.0001)                 1.235839116855182E+11,      /* J = 80 */
(PID.TID 0000.0001)                 1.236027369810437E+11,      /* J = 81 */
(PID.TID 0000.0001)                 1.235839116855182E+11,      /* J = 82 */
(PID.TID 0000.0001)                 1.235274415333090E+11,      /* J = 83 */
(PID.TID 0000.0001)                 1.234333437257716E+11,      /* J = 84 */
(PID.TID 0000.0001)                 1.233016469260097E+11,      /* J = 85 */
(PID.TID 0000.0001)                 1.231323912501442E+11,      /* J = 86 */
(PID.TID 0000.0001)                 1.229256282550938E+11,      /* J = 87 */
(PID.TID 0000.0001)                 1.226814209228693E+11,      /* J = 88 */
(PID.TID 0000.0001)                 1.223998436413906E+11,      /* J = 89 */
(PID.TID 0000.0001)                 1.220809821818243E+11,      /* J = 90 */
(PID.TID 0000.0001)                 1.217249336724607E+11,      /* J = 91 */
(PID.TID 0000.0001)                 1.213318065691243E+11,      /* J = 92 */
(PID.TID 0000.0001)                 1.209017206221394E+11,      /* J = 93 */
(PID.TID 0000.0001)                 1.204348068398518E+11,      /* J = 94 */
(PID.TID 0000.0001)                 1.199312074487231E+11,      /* J = 95 */
(PID.TID 0000.0001)                 1.193910758500046E+11,      /* J = 96 */
(PID.TID 0000.0001)                 1.188145765730164E+11,      /* J = 97 */
(PID.TID 0000.0001)                 1.182018852250201E+11,      /* J = 98 */
(PID.TID 0000.0001)                 1.175531884377377E+11,      /* J = 99 */
(PID.TID 0000.0001)                 1.168686838104932E+11,      /* J =100 */
(PID.TID 0000.0001)                 1.161485798500283E+11,      /* J =101 */
(PID.TID 0000.0001)                 1.153930959069846E+11,      /* J =102 */
(PID.TID 0000.0001)                 1.146024621090888E+11,      /* J =103 */
(PID.TID 0000.0001)                 1.137769192910560E+11,      /* J =104 */
(PID.TID 0000.0001)                 1.129167189212255E+11,      /* J =105 */
(PID.TID 0000.0001)                 1.120221230249629E+11,      /* J =106 */
(PID.TID 0000.0001)                 1.110934041048438E+11,      /* J =107 */
(PID.TID 0000.0001)                 1.101308450576488E+11,      /* J =108 */
(PID.TID 0000.0001)                 1.091347390881877E+11,      /* J =109 */
(PID.TID 0000.0001)                 1.081053896199886E+11,      /* J =110 */
(PID.TID 0000.0001)                 1.070431102028693E+11,      /* J =111 */
(PID.TID 0000.0001)                 1.059482244174344E+11,      /* J =112 */
(PID.TID 0000.0001)                 1.048210657764984E+11,      /* J =113 */
(PID.TID 0000.0001)                 1.036619776235002E+11,      /* J =114 */
(PID.TID 0000.0001)                 1.024713130279239E+11,      /* J =115 */
(PID.TID 0000.0001)                 1.012494346777366E+11,      /* J =116 */
(PID.TID 0000.0001)                 9.999671476892084E+10,      /* J =117 */
(PID.TID 0000.0001)                 9.871353489209756E+10,      /* J =118 */
(PID.TID 0000.0001)                 9.740028591628539E+10,      /* J =119 */
(PID.TID 0000.0001)                 9.605736786984653E+10,      /* J =120 */
(PID.TID 0000.0001)                 9.468518981862512E+10,      /* J =121 */
(PID.TID 0000.0001)                 9.328416974134933E+10,      /* J =122 */
(PID.TID 0000.0001)                 9.185473440230582E+10,      /* J =123 */
(PID.TID 0000.0001)                 9.039731922134654E+10,      /* J =124 */
(PID.TID 0000.0001)                 8.891236814125529E+10,      /* J =125 */
(PID.TID 0000.0001)                 8.740033349251320E+10,      /* J =126 */
(PID.TID 0000.0001)                 8.586167585552390E+10,      /* J =127 */
(PID.TID 0000.0001)                 8.429686392030849E+10,      /* J =128 */
(PID.TID 0000.0001)                 8.270637434373946E+10,      /* J =129 */
(PID.TID 0000.0001)                 8.109069160435303E+10,      /* J =130 */
(PID.TID 0000.0001)                 7.945030785475937E+10,      /* J =131 */
(PID.TID 0000.0001)                 7.778572277174043E+10,      /* J =132 */
(PID.TID 0000.0001)                 7.609744340403865E+10,      /* J =133 */
(PID.TID 0000.0001)                 7.438598401790305E+10,      /* J =134 */
(PID.TID 0000.0001)                 7.265186594044339E+10,      /* J =135 */
(PID.TID 0000.0001)                 7.089561740082285E+10,      /* J =136 */
(PID.TID 0000.0001)                 6.911777336936082E+10,      /* J =137 */
(PID.TID 0000.0001)                 6.731887539457177E+10,      /* J =138 */
(PID.TID 0000.0001)                 6.549947143820459E+10,      /* J =139 */
(PID.TID 0000.0001)                 6.366011570833057E+10,      /* J =140 */
(PID.TID 0000.0001)                 6.180136849052223E+10,      /* J =141 */
(PID.TID 0000.0001)                 5.992379597718761E+10,      /* J =142 */
(PID.TID 0000.0001)                 5.802797009510403E+10,      /* J =143 */
(PID.TID 0000.0001)                 5.611446833120007E+10,      /* J =144 */
(PID.TID 0000.0001)                 5.418387355664783E+10,      /* J =145 */
(PID.TID 0000.0001)                 5.223677384932224E+10,      /* J =146 */
(PID.TID 0000.0001)                 5.027376231465073E+10,      /* J =147 */
(PID.TID 0000.0001)                 4.829543690496597E+10,      /* J =148 */
(PID.TID 0000.0001)                 4.630240023735217E+10,      /* J =149 */
(PID.TID 0000.0001)                 4.429525941008306E+10,      /* J =150 */
(PID.TID 0000.0001)                 4.227462581770209E+10,      /* J =151 */
(PID.TID 0000.0001)                 4.024111496477148E+10,      /* J =152 */
(PID.TID 0000.0001)                 3.819534627839939E+10,      /* J =153 */
(PID.TID 0000.0001)                 3.613794291954374E+10,      /* J =154 */
(PID.TID 0000.0001)                 3.406953159319860E+10,      /* J =155 */
(PID.TID 0000.0001)                 3.199074235749183E+10,      /* J =156 */
(PID.TID 0000.0001)                 2.990220843176115E+10,      /* J =157 */
(PID.TID 0000.0001)                 2.780456600367350E+10,      /* J =158 */
(PID.TID 0000.0001)                 2.569845403543146E+10,      /* J =159 */
(PID.TID 0000.0001)                 2.358451406914463E+10       /* J =160 */
(PID.TID 0000.0001)     ;
(PID.TID 0000.0001) globalArea = /* Integrated horizontal Area (m^2) */
(PID.TID 0000.0001)                 1.390377734574423E+13
(PID.TID 0000.0001)     ;
(PID.TID 0000.0001) // =======================================================
(PID.TID 0000.0001) // End of Model config. summary
(PID.TID 0000.0001) // =======================================================
(PID.TID 0000.0001) 
(PID.TID 0000.0001)  MDSREADFIELD: opening global file: init_temp.bin
(PID.TID 0000.0001) // =======================================================
(PID.TID 0000.0001) // Field Initial Temperature at iteration          1
(PID.TID 0000.0001) // CMIN =          1.157898580190919E+04
(PID.TID 0000.0001) // CMAX =          1.157898678213048E+04
(PID.TID 0000.0001) // CINT =          3.630449235195691E-05
(PID.TID 0000.0001) // SYMBOLS (CMIN->CMAX): -abcdefghijklmnopqrstuvwxyz+
(PID.TID 0000.0001) //                  0.0: .
(PID.TID 0000.0001) // RANGE I (Lo:Hi:Step):(   1:   1:   1)
(PID.TID 0000.0001) // RANGE J (Lo:Hi:Step):( 160:   1:  -1)
(PID.TID 0000.0001) // RANGE K (Lo:Hi:Step):(   1:   1:   1)
(PID.TID 0000.0001) // =======================================================
(PID.TID 0000.0001) K =   1
(PID.TID 0000.0001) 
(PID.TID 0000.0001) |--J--|1
(PID.TID 0000.0001)    160 .
(PID.TID 0000.0001)    159 a
(PID.TID 0000.0001)    158 b
(PID.TID 0000.0001)    157 s
(PID.TID 0000.0001)    156 j
(PID.TID 0000.0001)    155 -
(PID.TID 0000.0001)    154 h
(PID.TID 0000.0001)    153 -
(PID.TID 0000.0001)    152 a
(PID.TID 0000.0001)    151 l
(PID.TID 0000.0001)    150 p
(PID.TID 0000.0001)    149 j
(PID.TID 0000.0001)    148 q
(PID.TID 0000.0001)    147 p
(PID.TID 0000.0001)    146 e
(PID.TID 0000.0001)    145 c
(PID.TID 0000.0001)    144 q
(PID.TID 0000.0001)    143 w
(PID.TID 0000.0001)    142 f
(PID.TID 0000.0001)    141 s
(PID.TID 0000.0001)    140 y
(PID.TID 0000.0001)    139 l
(PID.TID 0000.0001)    138 g
(PID.TID 0000.0001)    137 t
(PID.TID 0000.0001)    136 k
(PID.TID 0000.0001)    135 t
(PID.TID 0000.0001)    134 z
(PID.TID 0000.0001)    133 i
(PID.TID 0000.0001)    132 q
(PID.TID 0000.0001)    131 f
(PID.TID 0000.0001)    130 m
(PID.TID 0000.0001)    129 l
(PID.TID 0000.0001)    128 u
(PID.TID 0000.0001)    127 +
(PID.TID 0000.0001)    126 z
(PID.TID 0000.0001)    125 u
(PID.TID 0000.0001)    124 -
(PID.TID 0000.0001)    123 x
(PID.TID 0000.0001)    122 h
(PID.TID 0000.0001)    121 k
(PID.TID 0000.0001)    120 a
(PID.TID 0000.0001)    119 p
(PID.TID 0000.0001)    118 a
(PID.TID 0000.0001)    117 v
(PID.TID 0000.0001)    116 o
(PID.TID 0000.0001)    115 l
(PID.TID 0000.0001)    114 r
(PID.TID 0000.0001)    113 u
(PID.TID 0000.0001)    112 j
(PID.TID 0000.0001)    111 e
(PID.TID 0000.0001)    110 q
(PID.TID 0000.0001)    109 n
(PID.TID 0000.0001)    108 u
(PID.TID 0000.0001)    107 p
(PID.TID 0000.0001)    106 f
(PID.TID 0000.0001)    105 l
(PID.TID 0000.0001)    104 i
(PID.TID 0000.0001)    103 n
(PID.TID 0000.0001)    102 k
(PID.TID 0000.0001)    101 p
(PID.TID 0000.0001)    100 +
(PID.TID 0000.0001)     99 b
(PID.TID 0000.0001)     98 m
(PID.TID 0000.0001)     97 h
(PID.TID 0000.0001)     96 r
(PID.TID 0000.0001)     95 h
(PID.TID 0000.0001)     94 e
(PID.TID 0000.0001)     93 x
(PID.TID 0000.0001)     92 -
(PID.TID 0000.0001)     91 c
(PID.TID 0000.0001)     90 t
(PID.TID 0000.0001)     89 x
(PID.TID 0000.0001)     88 g
(PID.TID 0000.0001)     87 g
(PID.TID 0000.0001)     86 +
(PID.TID 0000.0001)     85 d
(PID.TID 0000.0001)     84 x
(PID.TID 0000.0001)     83 n
(PID.TID 0000.0001)     82 z
(PID.TID 0000.0001)     81 v
(PID.TID 0000.0001)     80 q
(PID.TID 0000.0001)     79 s
(PID.TID 0000.0001)     78 l
(PID.TID 0000.0001)     77 o
(PID.TID 0000.0001)     76 s
(PID.TID 0000.0001)     75 j
(PID.TID 0000.0001)     74 o
(PID.TID 0000.0001)     73 w
(PID.TID 0000.0001)     72 h
(PID.TID 0000.0001)     71 t
(PID.TID 0000.0001)     70 n
(PID.TID 0000.0001)     69 i
(PID.TID 0000.0001)     68 h
(PID.TID 0000.0001)     67 i
(PID.TID 0000.0001)     66 r
(PID.TID 0000.0001)     65 v
(PID.TID 0000.0001)     64 q
(PID.TID 0000.0001)     63 v
(PID.TID 0000.0001)     62 y
(PID.TID 0000.0001)     61 m
(PID.TID 0000.0001)     60 p
(PID.TID 0000.0001)     59 w
(PID.TID 0000.0001)     58 w
(PID.TID 0000.0001)     57 j
(PID.TID 0000.0001)     56 s
(PID.TID 0000.0001)     55 d
(PID.TID 0000.0001)     54 o
(PID.TID 0000.0001)     53 h
(PID.TID 0000.0001)     52 s
(PID.TID 0000.0001)     51 e
(PID.TID 0000.0001)     50 e
(PID.TID 0000.0001)     49 h
(PID.TID 0000.0001)     48 l
(PID.TID 0000.0001)     47 s
(PID.TID 0000.0001)     46 n
(PID.TID 0000.0001)     45 w
(PID.TID 0000.0001)     44 j
(PID.TID 0000.0001)     43 r
(PID.TID 0000.0001)     42 -
(PID.TID 0000.0001)     41 w
(PID.TID 0000.0001)     40 r
(PID.TID 0000.0001)     39 e
(PID.TID 0000.0001)     38 n
(PID.TID 0000.0001)     37 w
(PID.TID 0000.0001)     36 k
(PID.TID 0000.0001)     35 m
(PID.TID 0000.0001)     34 y
(PID.TID 0000.0001)     33 l
(PID.TID 0000.0001)     32 t
(PID.TID 0000.0001)     31 -
(PID.TID 0000.0001)     30 e
(PID.TID 0000.0001)     29 g
(PID.TID 0000.0001)     28 p
(PID.TID 0000.0001)     27 e
(PID.TID 0000.0001)     26 e
(PID.TID 0000.0001)     25 d
(PID.TID 0000.0001)     24 -
(PID.TID 0000.0001)     23 v
(PID.TID 0000.0001)     22 i
(PID.TID 0000.0001)     21 a
(PID.TID 0000.0001)     20 x
(PID.TID 0000.0001)     19 k
(PID.TID 0000.0001)     18 y
(PID.TID 0000.0001)     17 y
(PID.TID 0000.0001)     16 k
(PID.TID 0000.0001)     15 e
(PID.TID 0000.0001)     14 t
(PID.TID 0000.0001)     13 y
(PID.TID 0000.0001)     12 v
(PID.TID 0000.0001)     11 q
(PID.TID 0000.0001)     10 l
(PID.TID 0000.0001)      9 v
(PID.TID 0000.0001)      8 -
(PID.TID 0000.0001)      7 l
(PID.TID 0000.0001)      6 u
(PID.TID 0000.0001)      5 x
(PID.TID 0000.0001)      4 m
(PID.TID 0000.0001)      3 p
(PID.TID 0000.0001)      2 f
(PID.TID 0000.0001)      1 .
(PID.TID 0000.0001) // =======================================================
(PID.TID 0000.0001) // END OF FIELD                                          =
(PID.TID 0000.0001) // =======================================================
(PID.TID 0000.0001) 
(PID.TID 0000.0001) // =======================================================
(PID.TID 0000.0001) // Field Initial Salinity at iteration          1
(PID.TID 0000.0001) // CMIN =          1.000000000000000E+32
(PID.TID 0000.0001) // CMAX =         -1.000000000000000E+32
(PID.TID 0000.0001) // CINT =          0.000000000000000E+00
(PID.TID 0000.0001) // SYMBOLS (CMIN->CMAX): -abcdefghijklmnopqrstuvwxyz+
(PID.TID 0000.0001) //                  0.0: .
(PID.TID 0000.0001) // RANGE I (Lo:Hi:Step):(   1:   1:   1)
(PID.TID 0000.0001) // RANGE J (Lo:Hi:Step):( 160:   1:  -1)
(PID.TID 0000.0001) // RANGE K (Lo:Hi:Step):(   1:   1:   1)
(PID.TID 0000.0001) // =======================================================
(PID.TID 0000.0001) // =======================================================
(PID.TID 0000.0001) // END OF FIELD                                          =
(PID.TID 0000.0001) // =======================================================
(PID.TID 0000.0001) 
(PID.TID 0000.0001) Start initial hydrostatic pressure computation
(PID.TID 0000.0001) Pressure is predetermined for buoyancyRelation OCEANIC
(PID.TID 0000.0001) 
(PID.TID 0000.0001)  write diagnostics summary to file ioUnit:      6
Iter.Nb:         0 ; Time(s):  0.0000000000000E+00
------------------------------------------------------------------------
2D/3D diagnostics: Number of lists:     3
------------------------------------------------------------------------
listId=   1 ; file name: Rho
 nFlds, nActive,       freq     &   phase        , nLev                 
   1  |   1  |     86400.000000         0.000000 | 120
 levels:   1   2   3   4   5   6   7   8   9  10  11  12  13  14  15  16  17  18  19  20  21  22  23  24  25  26  27  28  29  30  31  32  33  34  35  36  37  38  39  40  41  42  43  44  45  46  47  48  49  50
 levels:  51  52  53  54  55  56  57  58  59  60  61  62  63  64  65  66  67  68  69  70  71  72  73  74  75  76  77  78  79  80  81  82  83  84  85  86  87  88  89  90  91  92  93  94  95  96  97  98  99 100
 levels: 101 102 103 104 105 106 107 108 109 110 111 112 113 114 115 116 117 118 119 120
 diag#| name   | ipt  | iMate| kLev| count | mate.C|                    
   60 |RHOAnoma|    1 |    0 | 120 |     0 |
------------------------------------------------------------------------
listId=   2 ; file name: P0
 nFlds, nActive,       freq     &   phase        , nLev                 
   1  |   1  |     86400.000000         0.000000 | 120
 levels:   1   2   3   4   5   6   7   8   9  10  11  12  13  14  15  16  17  18  19  20  21  22  23  24  25  26  27  28  29  30  31  32  33  34  35  36  37  38  39  40  41  42  43  44  45  46  47  48  49  50
 levels:  51  52  53  54  55  56  57  58  59  60  61  62  63  64  65  66  67  68  69  70  71  72  73  74  75  76  77  78  79  80  81  82  83  84  85  86  87  88  89  90  91  92  93  94  95  96  97  98  99 100
 levels: 101 102 103 104 105 106 107 108 109 110 111 112 113 114 115 116 117 118 119 120
 diag#| name   | ipt  | iMate| kLev| count | mate.C|                    
   65 |PHIHYD  |  121 |    0 | 120 |     0 |
------------------------------------------------------------------------
listId=   3 ; file name: N2
 nFlds, nActive,       freq     &   phase        , nLev                 
   1  |   1  |     86400.000000         0.000000 | 120
 levels:   1   2   3   4   5   6   7   8   9  10  11  12  13  14  15  16  17  18  19  20  21  22  23  24  25  26  27  28  29  30  31  32  33  34  35  36  37  38  39  40  41  42  43  44  45  46  47  48  49  50
 levels:  51  52  53  54  55  56  57  58  59  60  61  62  63  64  65  66  67  68  69  70  71  72  73  74  75  76  77  78  79  80  81  82  83  84  85  86  87  88  89  90  91  92  93  94  95  96  97  98  99 100
 levels: 101 102 103 104 105 106 107 108 109 110 111 112 113 114 115 116 117 118 119 120
 diag#| name   | ipt  | iMate| kLev| count | mate.C|                    
   69 |DRHODR  |  241 |    0 | 120 |     0 |
------------------------------------------------------------------------
Global & Regional Statistics diagnostics: Number of lists:     1
------------------------------------------------------------------------
listId=   1 ; file name: dynStDiag
 nFlds, nActive,       freq     &   phase        |                      
   5  |   5  |      1800.000000         0.000000 |
 Regions:   0
 diag#| name   | ipt  | iMate|    Volume   |   mate-Vol. |              
   23 |ETAN    |    1 |    0 | 0.00000E+00 |
   30 |UVEL    |    2 |    0 | 0.00000E+00 |
   31 |VVEL    |  122 |    0 | 0.00000E+00 |
   32 |WVEL    |  242 |    0 | 0.00000E+00 |
   26 |THETA   |  362 |    0 | 0.00000E+00 |
------------------------------------------------------------------------
(PID.TID 0000.0001) // =======================================================
(PID.TID 0000.0001) // Model current state
(PID.TID 0000.0001) // =======================================================
(PID.TID 0000.0001) 
(PID.TID 0000.0001) // =======================================================
(PID.TID 0000.0001) // Begin MONITOR dynamic field statistics
(PID.TID 0000.0001) // =======================================================
(PID.TID 0000.0001) %MON time_tsnumber                =                     0
(PID.TID 0000.0001) %MON time_secondsf                =   0.0000000000000E+00
(PID.TID 0000.0001) %MON dynstat_eta_max              =   0.0000000000000E+00
(PID.TID 0000.0001) %MON dynstat_eta_min              =   0.0000000000000E+00
(PID.TID 0000.0001) %MON dynstat_eta_mean             =   0.0000000000000E+00
(PID.TID 0000.0001) %MON dynstat_eta_sd               =   0.0000000000000E+00
(PID.TID 0000.0001) %MON dynstat_eta_del2             =   0.0000000000000E+00
(PID.TID 0000.0001) %MON dynstat_uvel_max             =   0.0000000000000E+00
(PID.TID 0000.0001) %MON dynstat_uvel_min             =   0.0000000000000E+00
(PID.TID 0000.0001) %MON dynstat_uvel_mean            =   0.0000000000000E+00
(PID.TID 0000.0001) %MON dynstat_uvel_sd              =   0.0000000000000E+00
(PID.TID 0000.0001) %MON dynstat_uvel_del2            =   0.0000000000000E+00
(PID.TID 0000.0001) %MON dynstat_vvel_max             =   0.0000000000000E+00
(PID.TID 0000.0001) %MON dynstat_vvel_min             =   0.0000000000000E+00
(PID.TID 0000.0001) %MON dynstat_vvel_mean            =   0.0000000000000E+00
(PID.TID 0000.0001) %MON dynstat_vvel_sd              =   0.0000000000000E+00
(PID.TID 0000.0001) %MON dynstat_vvel_del2            =   0.0000000000000E+00
(PID.TID 0000.0001) %MON dynstat_wvel_max             =   0.0000000000000E+00
(PID.TID 0000.0001) %MON dynstat_wvel_min             =   0.0000000000000E+00
(PID.TID 0000.0001) %MON dynstat_wvel_mean            =   0.0000000000000E+00
(PID.TID 0000.0001) %MON dynstat_wvel_sd              =   0.0000000000000E+00
(PID.TID 0000.0001) %MON dynstat_wvel_del2            =   0.0000000000000E+00
(PID.TID 0000.0001) %MON dynstat_theta_max            =   1.1578986791979E+04
(PID.TID 0000.0001) %MON dynstat_theta_min            =   1.1578985792063E+04
(PID.TID 0000.0001) %MON dynstat_theta_mean           =   1.1578986295155E+04
(PID.TID 0000.0001) %MON dynstat_theta_sd             =   2.8868810531702E-04
(PID.TID 0000.0001) %MON dynstat_theta_del2           =   1.4446080486156E-04
(PID.TID 0000.0001) %MON dynstat_salt_max             =   0.0000000000000E+00
(PID.TID 0000.0001) %MON dynstat_salt_min             =   0.0000000000000E+00
(PID.TID 0000.0001) %MON dynstat_salt_mean            =   0.0000000000000E+00
(PID.TID 0000.0001) %MON dynstat_salt_sd              =   0.0000000000000E+00
(PID.TID 0000.0001) %MON dynstat_salt_del2            =   0.0000000000000E+00
(PID.TID 0000.0001) %MON extforcing_qnet_max          =   0.0000000000000E+00
(PID.TID 0000.0001) %MON extforcing_qnet_min          =   0.0000000000000E+00
(PID.TID 0000.0001) %MON extforcing_qnet_mean         =   0.0000000000000E+00
(PID.TID 0000.0001) %MON extforcing_qnet_sd           =   0.0000000000000E+00
(PID.TID 0000.0001) %MON extforcing_qnet_del2         =   0.0000000000000E+00
(PID.TID 0000.0001) %MON extforcing_qsw_max           =   0.0000000000000E+00
(PID.TID 0000.0001) %MON extforcing_qsw_min           =   0.0000000000000E+00
(PID.TID 0000.0001) %MON extforcing_qsw_mean          =   0.0000000000000E+00
(PID.TID 0000.0001) %MON extforcing_qsw_sd            =   0.0000000000000E+00
(PID.TID 0000.0001) %MON extforcing_qsw_del2          =   0.0000000000000E+00
(PID.TID 0000.0001) %MON extforcing_empmr_max         =   0.0000000000000E+00
(PID.TID 0000.0001) %MON extforcing_empmr_min         =   0.0000000000000E+00
(PID.TID 0000.0001) %MON extforcing_empmr_mean        =   0.0000000000000E+00
(PID.TID 0000.0001) %MON extforcing_empmr_sd          =   0.0000000000000E+00
(PID.TID 0000.0001) %MON extforcing_empmr_del2        =   0.0000000000000E+00
(PID.TID 0000.0001) %MON extforcing_fu_max            =   0.0000000000000E+00
(PID.TID 0000.0001) %MON extforcing_fu_min            =   0.0000000000000E+00
(PID.TID 0000.0001) %MON extforcing_fu_mean           =   0.0000000000000E+00
(PID.TID 0000.0001) %MON extforcing_fu_sd             =   0.0000000000000E+00
(PID.TID 0000.0001) %MON extforcing_fu_del2           =   0.0000000000000E+00
(PID.TID 0000.0001) %MON extforcing_fv_max            =   0.0000000000000E+00
(PID.TID 0000.0001) %MON extforcing_fv_min            =   0.0000000000000E+00
(PID.TID 0000.0001) %MON extforcing_fv_mean           =   0.0000000000000E+00
(PID.TID 0000.0001) %MON extforcing_fv_sd             =   0.0000000000000E+00
(PID.TID 0000.0001) %MON extforcing_fv_del2           =   0.0000000000000E+00
(PID.TID 0000.0001) %MON advcfl_uvel_max              =   0.0000000000000E+00
(PID.TID 0000.0001) %MON advcfl_vvel_max              =   0.0000000000000E+00
(PID.TID 0000.0001) %MON advcfl_wvel_max              =   0.0000000000000E+00
(PID.TID 0000.0001) %MON advcfl_W_hf_max              =   0.0000000000000E+00
(PID.TID 0000.0001) %MON pe_b_mean                    =   0.0000000000000E+00
(PID.TID 0000.0001) %MON ke_max                       =   0.0000000000000E+00
(PID.TID 0000.0001) %MON ke_mean                      =   0.0000000000000E+00
(PID.TID 0000.0001) %MON ke_vol                       =   4.1711332037233E+19
(PID.TID 0000.0001) %MON vort_r_min                   =   0.0000000000000E+00
(PID.TID 0000.0001) %MON vort_r_max                   =   0.0000000000000E+00
(PID.TID 0000.0001) %MON vort_a_mean                  =   2.3934612167700E-20
(PID.TID 0000.0001) %MON vort_a_sd                    =   8.2567010691386E-05
(PID.TID 0000.0001) %MON vort_p_mean                  =   2.3995565412335E-20
(PID.TID 0000.0001) %MON vort_p_sd                    =   8.3918501551279E-05
(PID.TID 0000.0001) %MON surfExpan_theta_mean         =   0.0000000000000E+00
(PID.TID 0000.0001) %MON surfExpan_salt_mean          =   0.0000000000000E+00
(PID.TID 0000.0001) // =======================================================
(PID.TID 0000.0001) // End MONITOR dynamic field statistics
(PID.TID 0000.0001) // =======================================================
 cg2d: Sum(rhs),rhsMax =   2.08166817117217E-15  6.23431179295025E-01
(PID.TID 0000.0001)                    cg2d_init_res =    3.46474024101614E+00
(PID.TID 0000.0001)                       cg2d_iters =   109
(PID.TID 0000.0001)                         cg2d_res =    5.02778995776704E-14
 cg3d: Sum(rhs),rhsMax =  -2.26959943894212E-13  3.77126369864455E-02
(PID.TID 0000.0001)                    cg3d_init_res =    2.04417951952824E+01
(PID.TID 0000.0001)                       cg3d_iters =    40
(PID.TID 0000.0001)                         cg3d_res =    5.98248527627647E-03
(PID.TID 0000.0001) // =======================================================
(PID.TID 0000.0001) // Begin MONITOR dynamic field statistics
(PID.TID 0000.0001) // =======================================================
(PID.TID 0000.0001) %MON time_tsnumber                =                     1
(PID.TID 0000.0001) %MON time_secondsf                =   3.0000000000000E+02
(PID.TID 0000.0001) %MON dynstat_eta_max              =   2.4282644539665E-02
(PID.TID 0000.0001) %MON dynstat_eta_min              =  -1.8640707590678E-02
(PID.TID 0000.0001) %MON dynstat_eta_mean             =  -2.7915075906966E-16
(PID.TID 0000.0001) %MON dynstat_eta_sd               =   8.8787568536613E-03
(PID.TID 0000.0001) %MON dynstat_eta_del2             =   4.4055835620944E-03
(PID.TID 0000.0001) %MON dynstat_uvel_max             =   0.0000000000000E+00
(PID.TID 0000.0001) %MON dynstat_uvel_min             =   0.0000000000000E+00
(PID.TID 0000.0001) %MON dynstat_uvel_mean            =   0.0000000000000E+00
(PID.TID 0000.0001) %MON dynstat_uvel_sd              =   0.0000000000000E+00
(PID.TID 0000.0001) %MON dynstat_uvel_del2            =   0.0000000000000E+00
(PID.TID 0000.0001) %MON dynstat_vvel_max             =   1.1170656648111E-04
(PID.TID 0000.0001) %MON dynstat_vvel_min             =  -9.0413375750595E-05
(PID.TID 0000.0001) %MON dynstat_vvel_mean            =   2.5307921372170E-08
(PID.TID 0000.0001) %MON dynstat_vvel_sd              =   2.3522729977520E-05
(PID.TID 0000.0001) %MON dynstat_vvel_del2            =   1.2476425684155E-05
(PID.TID 0000.0001) %MON dynstat_wvel_max             =   1.2444993877763E-04
(PID.TID 0000.0001) %MON dynstat_wvel_min             =  -1.3712195763397E-04
(PID.TID 0000.0001) %MON dynstat_wvel_mean            =   6.7004533057469E-22
(PID.TID 0000.0001) %MON dynstat_wvel_sd              =   3.4382124386073E-05
(PID.TID 0000.0001) %MON dynstat_wvel_del2            =   1.9482980080744E-05
(PID.TID 0000.0001) %MON dynstat_theta_max            =   1.1578986784969E+04
(PID.TID 0000.0001) %MON dynstat_theta_min            =   1.1578985802768E+04
(PID.TID 0000.0001) %MON dynstat_theta_mean           =   1.1578986295155E+04
(PID.TID 0000.0001) %MON dynstat_theta_sd             =   2.6263331430526E-04
(PID.TID 0000.0001) %MON dynstat_theta_del2           =   1.3079814415139E-04
(PID.TID 0000.0001) %MON dynstat_salt_max             =   0.0000000000000E+00
(PID.TID 0000.0001) %MON dynstat_salt_min             =   0.0000000000000E+00
(PID.TID 0000.0001) %MON dynstat_salt_mean            =   0.0000000000000E+00
(PID.TID 0000.0001) %MON dynstat_salt_sd              =   0.0000000000000E+00
(PID.TID 0000.0001) %MON dynstat_salt_del2            =   0.0000000000000E+00
(PID.TID 0000.0001) %MON extforcing_qnet_max          =   0.0000000000000E+00
(PID.TID 0000.0001) %MON extforcing_qnet_min          =   0.0000000000000E+00
(PID.TID 0000.0001) %MON extforcing_qnet_mean         =   0.0000000000000E+00
(PID.TID 0000.0001) %MON extforcing_qnet_sd           =   0.0000000000000E+00
(PID.TID 0000.0001) %MON extforcing_qnet_del2         =   0.0000000000000E+00
(PID.TID 0000.0001) %MON extforcing_qsw_max           =   0.0000000000000E+00
(PID.TID 0000.0001) %MON extforcing_qsw_min           =   0.0000000000000E+00
(PID.TID 0000.0001) %MON extforcing_qsw_mean          =   0.0000000000000E+00
(PID.TID 0000.0001) %MON extforcing_qsw_sd            =   0.0000000000000E+00
(PID.TID 0000.0001) %MON extforcing_qsw_del2          =   0.0000000000000E+00
(PID.TID 0000.0001) %MON extforcing_empmr_max         =   0.0000000000000E+00
(PID.TID 0000.0001) %MON extforcing_empmr_min         =   0.0000000000000E+00
(PID.TID 0000.0001) %MON extforcing_empmr_mean        =   0.0000000000000E+00
(PID.TID 0000.0001) %MON extforcing_empmr_sd          =   0.0000000000000E+00
(PID.TID 0000.0001) %MON extforcing_empmr_del2        =   0.0000000000000E+00
(PID.TID 0000.0001) %MON extforcing_fu_max            =   0.0000000000000E+00
(PID.TID 0000.0001) %MON extforcing_fu_min            =   0.0000000000000E+00
(PID.TID 0000.0001) %MON extforcing_fu_mean           =   0.0000000000000E+00
(PID.TID 0000.0001) %MON extforcing_fu_sd             =   0.0000000000000E+00
(PID.TID 0000.0001) %MON extforcing_fu_del2           =   0.0000000000000E+00
(PID.TID 0000.0001) %MON extforcing_fv_max            =   0.0000000000000E+00
(PID.TID 0000.0001) %MON extforcing_fv_min            =   0.0000000000000E+00
(PID.TID 0000.0001) %MON extforcing_fv_mean           =   0.0000000000000E+00
(PID.TID 0000.0001) %MON extforcing_fv_sd             =   0.0000000000000E+00
(PID.TID 0000.0001) %MON extforcing_fv_del2           =   0.0000000000000E+00
(PID.TID 0000.0001) %MON advcfl_uvel_max              =   0.0000000000000E+00
(PID.TID 0000.0001) %MON advcfl_vvel_max              =   3.0142769874089E-07
(PID.TID 0000.0001) %MON advcfl_wvel_max              =   1.6454634916076E-06
(PID.TID 0000.0001) %MON advcfl_W_hf_max              =   1.6454634916076E-06
(PID.TID 0000.0001) %MON pe_b_mean                    =   1.2889084854062E-10
(PID.TID 0000.0001) %MON ke_max                       =   3.3813550687075E-09
(PID.TID 0000.0001) %MON ke_mean                      =   2.7618341541965E-10
(PID.TID 0000.0001) %MON ke_vol                       =   4.1711332037233E+19
(PID.TID 0000.0001) %MON vort_r_min                   =   0.0000000000000E+00
(PID.TID 0000.0001) %MON vort_r_max                   =   0.0000000000000E+00
(PID.TID 0000.0001) %MON vort_a_mean                  =   2.3934612167700E-20
(PID.TID 0000.0001) %MON vort_a_sd                    =   8.2567010691386E-05
(PID.TID 0000.0001) %MON vort_p_mean                  =   2.3995565412335E-20
(PID.TID 0000.0001) %MON vort_p_sd                    =   8.3918501551279E-05
(PID.TID 0000.0001) %MON surfExpan_theta_mean         =   8.3042728570188E-10
(PID.TID 0000.0001) %MON surfExpan_salt_mean          =   0.0000000000000E+00
(PID.TID 0000.0001) // =======================================================
(PID.TID 0000.0001) // End MONITOR dynamic field statistics
(PID.TID 0000.0001) // =======================================================
 cg2d: Sum(rhs),rhsMax =   1.13792396575219E-05  6.16046629521305E-01
(PID.TID 0000.0001)                    cg2d_init_res =    4.08326453962306E-02
(PID.TID 0000.0001)                       cg2d_iters =   103
(PID.TID 0000.0001)                         cg2d_res =    5.64538327940905E-14
 cg3d: Sum(rhs),rhsMax =  -2.98502542128709E-14  3.44044724258725E-02
(PID.TID 0000.0001)                    cg3d_init_res =    1.00160644254310E+00
(PID.TID 0000.0001)                       cg3d_iters =    40
(PID.TID 0000.0001)                         cg3d_res =    1.66462703893670E-03
(PID.TID 0000.0001) // =======================================================
(PID.TID 0000.0001) // Begin MONITOR dynamic field statistics
(PID.TID 0000.0001) // =======================================================
(PID.TID 0000.0001) %MON time_tsnumber                =                     2
(PID.TID 0000.0001) %MON time_secondsf                =   6.0000000000000E+02
(PID.TID 0000.0001) %MON dynstat_eta_max              =   2.4611961201397E-02
(PID.TID 0000.0001) %MON dynstat_eta_min              =  -1.9058583697354E-02
(PID.TID 0000.0001) %MON dynstat_eta_mean             =  -1.3613123664533E-06
(PID.TID 0000.0001) %MON dynstat_eta_sd               =   8.8948724253779E-03
(PID.TID 0000.0001) %MON dynstat_eta_del2             =   4.3605842872350E-03
(PID.TID 0000.0001) %MON dynstat_uvel_max             =   8.3222116234689E-06
(PID.TID 0000.0001) %MON dynstat_uvel_min             =  -8.5576145740870E-06
(PID.TID 0000.0001) %MON dynstat_uvel_mean            =  -1.0877882299042E-08
(PID.TID 0000.0001) %MON dynstat_uvel_sd              =   1.9743452516565E-06
(PID.TID 0000.0001) %MON dynstat_uvel_del2            =   9.5884864005767E-07
(PID.TID 0000.0001) %MON dynstat_vvel_max             =   2.2447977555964E-04
(PID.TID 0000.0001) %MON dynstat_vvel_min             =  -1.6921839342041E-04
(PID.TID 0000.0001) %MON dynstat_vvel_mean            =  -2.7475824257966E-08
(PID.TID 0000.0001) %MON dynstat_vvel_sd              =   3.9640267294024E-05
(PID.TID 0000.0001) %MON dynstat_vvel_del2            =   1.9314417142183E-05
(PID.TID 0000.0001) %MON dynstat_wvel_max             =   2.2564635116425E-04
(PID.TID 0000.0001) %MON dynstat_wvel_min             =  -2.5585700999067E-04
(PID.TID 0000.0001) %MON dynstat_wvel_mean            =  -1.2695595737205E-21
(PID.TID 0000.0001) %MON dynstat_wvel_sd              =   6.0583053037293E-05
(PID.TID 0000.0001) %MON dynstat_wvel_del2            =   3.2631563630901E-05
(PID.TID 0000.0001) %MON dynstat_theta_max            =   1.1578986782030E+04
(PID.TID 0000.0001) %MON dynstat_theta_min            =   1.1578985810102E+04
(PID.TID 0000.0001) %MON dynstat_theta_mean           =   1.1578986295155E+04
(PID.TID 0000.0001) %MON dynstat_theta_sd             =   2.4079537972875E-04
(PID.TID 0000.0001) %MON dynstat_theta_del2           =   1.1925336169835E-04
(PID.TID 0000.0001) %MON dynstat_salt_max             =   0.0000000000000E+00
(PID.TID 0000.0001) %MON dynstat_salt_min             =   0.0000000000000E+00
(PID.TID 0000.0001) %MON dynstat_salt_mean            =   0.0000000000000E+00
(PID.TID 0000.0001) %MON dynstat_salt_sd              =   0.0000000000000E+00
(PID.TID 0000.0001) %MON dynstat_salt_del2            =   0.0000000000000E+00
(PID.TID 0000.0001) %MON extforcing_qnet_max          =   0.0000000000000E+00
(PID.TID 0000.0001) %MON extforcing_qnet_min          =   0.0000000000000E+00
(PID.TID 0000.0001) %MON extforcing_qnet_mean         =   0.0000000000000E+00
(PID.TID 0000.0001) %MON extforcing_qnet_sd           =   0.0000000000000E+00
(PID.TID 0000.0001) %MON extforcing_qnet_del2         =   0.0000000000000E+00
(PID.TID 0000.0001) %MON extforcing_qsw_max           =   0.0000000000000E+00
(PID.TID 0000.0001) %MON extforcing_qsw_min           =   0.0000000000000E+00
(PID.TID 0000.0001) %MON extforcing_qsw_mean          =   0.0000000000000E+00
(PID.TID 0000.0001) %MON extforcing_qsw_sd            =   0.0000000000000E+00
(PID.TID 0000.0001) %MON extforcing_qsw_del2          =   0.0000000000000E+00
(PID.TID 0000.0001) %MON extforcing_empmr_max         =   0.0000000000000E+00
(PID.TID 0000.0001) %MON extforcing_empmr_min         =   0.0000000000000E+00
(PID.TID 0000.0001) %MON extforcing_empmr_mean        =   0.0000000000000E+00
(PID.TID 0000.0001) %MON extforcing_empmr_sd          =   0.0000000000000E+00
(PID.TID 0000.0001) %MON extforcing_empmr_del2        =   0.0000000000000E+00
(PID.TID 0000.0001) %MON extforcing_fu_max            =   0.0000000000000E+00
(PID.TID 0000.0001) %MON extforcing_fu_min            =   0.0000000000000E+00
(PID.TID 0000.0001) %MON extforcing_fu_mean           =   0.0000000000000E+00
(PID.TID 0000.0001) %MON extforcing_fu_sd             =   0.0000000000000E+00
(PID.TID 0000.0001) %MON extforcing_fu_del2           =   0.0000000000000E+00
(PID.TID 0000.0001) %MON extforcing_fv_max            =   0.0000000000000E+00
(PID.TID 0000.0001) %MON extforcing_fv_min            =   0.0000000000000E+00
(PID.TID 0000.0001) %MON extforcing_fv_mean           =   0.0000000000000E+00
(PID.TID 0000.0001) %MON extforcing_fv_sd             =   0.0000000000000E+00
(PID.TID 0000.0001) %MON extforcing_fv_del2           =   0.0000000000000E+00
(PID.TID 0000.0001) %MON advcfl_uvel_max              =   3.6236363406672E-09
(PID.TID 0000.0001) %MON advcfl_vvel_max              =   6.0573361345108E-07
(PID.TID 0000.0001) %MON advcfl_wvel_max              =   3.0702841198881E-06
(PID.TID 0000.0001) %MON advcfl_W_hf_max              =   3.0702841198881E-06
(PID.TID 0000.0001) %MON pe_b_mean                    =   1.2935916821316E-10
(PID.TID 0000.0001) %MON ke_max                       =   1.3128749165236E-08
(PID.TID 0000.0001) %MON ke_mean                      =   7.8627219966764E-10
(PID.TID 0000.0001) %MON ke_vol                       =   4.1711332037233E+19
(PID.TID 0000.0001) %MON vort_r_min                   =  -1.2795898335774E-10
(PID.TID 0000.0001) %MON vort_r_max                   =   1.0104142613085E-10
(PID.TID 0000.0001) %MON vort_a_mean                  =   8.0779316065989E-20
(PID.TID 0000.0001) %MON vort_a_sd                    =   8.2567010687062E-05
(PID.TID 0000.0001) %MON vort_p_mean                  =   8.0985033266629E-20
(PID.TID 0000.0001) %MON vort_p_sd                    =   8.3918501564463E-05
(PID.TID 0000.0001) %MON surfExpan_theta_mean         =   1.4917975691467E-10
(PID.TID 0000.0001) %MON surfExpan_salt_mean          =   0.0000000000000E+00
(PID.TID 0000.0001) // =======================================================
(PID.TID 0000.0001) // End MONITOR dynamic field statistics
(PID.TID 0000.0001) // =======================================================
 cg2d: Sum(rhs),rhsMax =   1.57135533858654E-05  6.08508512892741E-01
(PID.TID 0000.0001)                    cg2d_init_res =    4.11822285666503E-02
(PID.TID 0000.0001)                       cg2d_iters =   101
(PID.TID 0000.0001)                         cg2d_res =    7.28830451768589E-14
 cg3d: Sum(rhs),rhsMax =   5.22490037346834E-14  3.35247526960101E-02
(PID.TID 0000.0001)                    cg3d_init_res =    6.16493230211031E-01
(PID.TID 0000.0001)                       cg3d_iters =    40
(PID.TID 0000.0001)                         cg3d_res =    1.54666526597756E-03
(PID.TID 0000.0001) // =======================================================
(PID.TID 0000.0001) // Begin MONITOR dynamic field statistics
(PID.TID 0000.0001) // =======================================================
(PID.TID 0000.0001) %MON time_tsnumber                =                     3
(PID.TID 0000.0001) %MON time_secondsf                =   9.0000000000000E+02
(PID.TID 0000.0001) %MON dynstat_eta_max              =   2.4894349596453E-02
(PID.TID 0000.0001) %MON dynstat_eta_min              =  -1.9390856323626E-02
(PID.TID 0000.0001) %MON dynstat_eta_mean             =  -1.8568294835530E-06
(PID.TID 0000.0001) %MON dynstat_eta_sd               =   8.8944028158650E-03
(PID.TID 0000.0001) %MON dynstat_eta_del2             =   4.3149338583288E-03
(PID.TID 0000.0001) %MON dynstat_uvel_max             =   1.9926644522029E-05
(PID.TID 0000.0001) %MON dynstat_uvel_min             =  -2.0328621176150E-05
(PID.TID 0000.0001) %MON dynstat_uvel_mean            =  -2.5819449417680E-08
(PID.TID 0000.0001) %MON dynstat_uvel_sd              =   4.3964350256744E-06
(PID.TID 0000.0001) %MON dynstat_uvel_del2            =   1.9708341427775E-06
(PID.TID 0000.0001) %MON dynstat_vvel_max             =   3.1835434661271E-04
(PID.TID 0000.0001) %MON dynstat_vvel_min             =  -2.4502591208454E-04
(PID.TID 0000.0001) %MON dynstat_vvel_mean            =  -1.1325181220224E-07
(PID.TID 0000.0001) %MON dynstat_vvel_sd              =   5.3640430663819E-05
(PID.TID 0000.0001) %MON dynstat_vvel_del2            =   2.4965101069293E-05
(PID.TID 0000.0001) %MON dynstat_wvel_max             =   3.1628975177407E-04
(PID.TID 0000.0001) %MON dynstat_wvel_min             =  -3.6560761587228E-04
(PID.TID 0000.0001) %MON dynstat_wvel_mean            =  -4.7020724952610E-23
(PID.TID 0000.0001) %MON dynstat_wvel_sd              =   8.4150106825791E-05
(PID.TID 0000.0001) %MON dynstat_wvel_del2            =   4.3966760233941E-05
(PID.TID 0000.0001) %MON dynstat_theta_max            =   1.1578986778296E+04
(PID.TID 0000.0001) %MON dynstat_theta_min            =   1.1578985813898E+04
(PID.TID 0000.0001) %MON dynstat_theta_mean           =   1.1578986295155E+04
(PID.TID 0000.0001) %MON dynstat_theta_sd             =   2.2244856274667E-04
(PID.TID 0000.0001) %MON dynstat_theta_del2           =   1.0946176837104E-04
(PID.TID 0000.0001) %MON dynstat_salt_max             =   0.0000000000000E+00
(PID.TID 0000.0001) %MON dynstat_salt_min             =   0.0000000000000E+00
(PID.TID 0000.0001) %MON dynstat_salt_mean            =   0.0000000000000E+00
(PID.TID 0000.0001) %MON dynstat_salt_sd              =   0.0000000000000E+00
(PID.TID 0000.0001) %MON dynstat_salt_del2            =   0.0000000000000E+00
(PID.TID 0000.0001) %MON extforcing_qnet_max          =   0.0000000000000E+00
(PID.TID 0000.0001) %MON extforcing_qnet_min          =   0.0000000000000E+00
(PID.TID 0000.0001) %MON extforcing_qnet_mean         =   0.0000000000000E+00
(PID.TID 0000.0001) %MON extforcing_qnet_sd           =   0.0000000000000E+00
(PID.TID 0000.0001) %MON extforcing_qnet_del2         =   0.0000000000000E+00
(PID.TID 0000.0001) %MON extforcing_qsw_max           =   0.0000000000000E+00
(PID.TID 0000.0001) %MON extforcing_qsw_min           =   0.0000000000000E+00
(PID.TID 0000.0001) %MON extforcing_qsw_mean          =   0.0000000000000E+00
(PID.TID 0000.0001) %MON extforcing_qsw_sd            =   0.0000000000000E+00
(PID.TID 0000.0001) %MON extforcing_qsw_del2          =   0.0000000000000E+00
(PID.TID 0000.0001) %MON extforcing_empmr_max         =   0.0000000000000E+00
(PID.TID 0000.0001) %MON extforcing_empmr_min         =   0.0000000000000E+00
(PID.TID 0000.0001) %MON extforcing_empmr_mean        =   0.0000000000000E+00
(PID.TID 0000.0001) %MON extforcing_empmr_sd          =   0.0000000000000E+00
(PID.TID 0000.0001) %MON extforcing_empmr_del2        =   0.0000000000000E+00
(PID.TID 0000.0001) %MON extforcing_fu_max            =   0.0000000000000E+00
(PID.TID 0000.0001) %MON extforcing_fu_min            =   0.0000000000000E+00
(PID.TID 0000.0001) %MON extforcing_fu_mean           =   0.0000000000000E+00
(PID.TID 0000.0001) %MON extforcing_fu_sd             =   0.0000000000000E+00
(PID.TID 0000.0001) %MON extforcing_fu_del2           =   0.0000000000000E+00
(PID.TID 0000.0001) %MON extforcing_fv_max            =   0.0000000000000E+00
(PID.TID 0000.0001) %MON extforcing_fv_min            =   0.0000000000000E+00
(PID.TID 0000.0001) %MON extforcing_fv_mean           =   0.0000000000000E+00
(PID.TID 0000.0001) %MON extforcing_fv_sd             =   0.0000000000000E+00
(PID.TID 0000.0001) %MON extforcing_fv_del2           =   0.0000000000000E+00
(PID.TID 0000.0001) %MON advcfl_uvel_max              =   8.6118427109638E-09
(PID.TID 0000.0001) %MON advcfl_vvel_max              =   8.5904366329136E-07
(PID.TID 0000.0001) %MON advcfl_wvel_max              =   4.3872913904673E-06
(PID.TID 0000.0001) %MON advcfl_W_hf_max              =   4.3872913904673E-06
(PID.TID 0000.0001) %MON pe_b_mean                    =   1.2934551200935E-10
(PID.TID 0000.0001) %MON ke_max                       =   2.6596039158149E-08
(PID.TID 0000.0001) %MON ke_mean                      =   1.4458421978955E-09
(PID.TID 0000.0001) %MON ke_vol                       =   4.1711332037233E+19
(PID.TID 0000.0001) %MON vort_r_min                   =  -2.9262291782551E-10
(PID.TID 0000.0001) %MON vort_r_max                   =   2.2242209749114E-10
(PID.TID 0000.0001) %MON vort_a_mean                  =  -8.0779316065989E-20
(PID.TID 0000.0001) %MON vort_a_sd                    =   8.2567010682150E-05
(PID.TID 0000.0001) %MON vort_p_mean                  =  -8.0985033266629E-20
(PID.TID 0000.0001) %MON vort_p_sd                    =   8.3918501589150E-05
(PID.TID 0000.0001) %MON surfExpan_theta_mean         =  -2.4175268610394E-11
(PID.TID 0000.0001) %MON surfExpan_salt_mean          =   0.0000000000000E+00
(PID.TID 0000.0001) // =======================================================
(PID.TID 0000.0001) // End MONITOR dynamic field statistics
(PID.TID 0000.0001) // =======================================================
 cg2d: Sum(rhs),rhsMax =   1.86219045082425E-05  6.01097327869222E-01
(PID.TID 0000.0001)                    cg2d_init_res =    4.09926645159242E-02
(PID.TID 0000.0001)                       cg2d_iters =   101
(PID.TID 0000.0001)                         cg2d_res =    8.19563293222933E-14
 cg3d: Sum(rhs),rhsMax =  -1.00787433954252E-15  3.26418130702526E-02
(PID.TID 0000.0001)                    cg3d_init_res =    4.01617211930569E-01
(PID.TID 0000.0001)                       cg3d_iters =    40
(PID.TID 0000.0001)                         cg3d_res =    9.61195726026676E-04
(PID.TID 0000.0001) // =======================================================
(PID.TID 0000.0001) // Begin MONITOR dynamic field statistics
(PID.TID 0000.0001) // =======================================================
(PID.TID 0000.0001) %MON time_tsnumber                =                     4
(PID.TID 0000.0001) %MON time_secondsf                =   1.2000000000000E+03
(PID.TID 0000.0001) %MON dynstat_eta_max              =   2.4964699057635E-02
(PID.TID 0000.0001) %MON dynstat_eta_min              =  -1.9526923608204E-02
(PID.TID 0000.0001) %MON dynstat_eta_mean             =  -2.1737012364268E-06
(PID.TID 0000.0001) %MON dynstat_eta_sd               =   8.8672376491076E-03
(PID.TID 0000.0001) %MON dynstat_eta_del2             =   4.2700257253812E-03
(PID.TID 0000.0001) %MON dynstat_uvel_max             =   3.4731643280056E-05
(PID.TID 0000.0001) %MON dynstat_uvel_min             =  -3.5087024904753E-05
(PID.TID 0000.0001) %MON dynstat_uvel_mean            =  -4.0375458338168E-08
(PID.TID 0000.0001) %MON dynstat_uvel_sd              =   7.3946853193864E-06
(PID.TID 0000.0001) %MON dynstat_uvel_del2            =   3.1535352470286E-06
(PID.TID 0000.0001) %MON dynstat_vvel_max             =   3.9786928847651E-04
(PID.TID 0000.0001) %MON dynstat_vvel_min             =  -3.1048913314097E-04
(PID.TID 0000.0001) %MON dynstat_vvel_mean            =  -1.8711538623091E-07
(PID.TID 0000.0001) %MON dynstat_vvel_sd              =   6.5534452335062E-05
(PID.TID 0000.0001) %MON dynstat_vvel_del2            =   2.9150354742975E-05
(PID.TID 0000.0001) %MON dynstat_wvel_max             =   3.9616598725929E-04
(PID.TID 0000.0001) %MON dynstat_wvel_min             =  -4.6621073099600E-04
(PID.TID 0000.0001) %MON dynstat_wvel_mean            =  -7.7113988922280E-21
(PID.TID 0000.0001) %MON dynstat_wvel_sd              =   1.0500826892880E-04
(PID.TID 0000.0001) %MON dynstat_wvel_del2            =   5.3263505217359E-05
(PID.TID 0000.0001) %MON dynstat_theta_max            =   1.1578986773892E+04
(PID.TID 0000.0001) %MON dynstat_theta_min            =   1.1578985818062E+04
(PID.TID 0000.0001) %MON dynstat_theta_mean           =   1.1578986295155E+04
(PID.TID 0000.0001) %MON dynstat_theta_sd             =   2.0698305712962E-04
(PID.TID 0000.0001) %MON dynstat_theta_del2           =   1.0116902365127E-04
(PID.TID 0000.0001) %MON dynstat_salt_max             =   0.0000000000000E+00
(PID.TID 0000.0001) %MON dynstat_salt_min             =   0.0000000000000E+00
(PID.TID 0000.0001) %MON dynstat_salt_mean            =   0.0000000000000E+00
(PID.TID 0000.0001) %MON dynstat_salt_sd              =   0.0000000000000E+00
(PID.TID 0000.0001) %MON dynstat_salt_del2            =   0.0000000000000E+00
(PID.TID 0000.0001) %MON extforcing_qnet_max          =   0.0000000000000E+00
(PID.TID 0000.0001) %MON extforcing_qnet_min          =   0.0000000000000E+00
(PID.TID 0000.0001) %MON extforcing_qnet_mean         =   0.0000000000000E+00
(PID.TID 0000.0001) %MON extforcing_qnet_sd           =   0.0000000000000E+00
(PID.TID 0000.0001) %MON extforcing_qnet_del2         =   0.0000000000000E+00
(PID.TID 0000.0001) %MON extforcing_qsw_max           =   0.0000000000000E+00
(PID.TID 0000.0001) %MON extforcing_qsw_min           =   0.0000000000000E+00
(PID.TID 0000.0001) %MON extforcing_qsw_mean          =   0.0000000000000E+00
(PID.TID 0000.0001) %MON extforcing_qsw_sd            =   0.0000000000000E+00
(PID.TID 0000.0001) %MON extforcing_qsw_del2          =   0.0000000000000E+00
(PID.TID 0000.0001) %MON extforcing_empmr_max         =   0.0000000000000E+00
(PID.TID 0000.0001) %MON extforcing_empmr_min         =   0.0000000000000E+00
(PID.TID 0000.0001) %MON extforcing_empmr_mean        =   0.0000000000000E+00
(PID.TID 0000.0001) %MON extforcing_empmr_sd          =   0.0000000000000E+00
(PID.TID 0000.0001) %MON extforcing_empmr_del2        =   0.0000000000000E+00
(PID.TID 0000.0001) %MON extforcing_fu_max            =   0.0000000000000E+00
(PID.TID 0000.0001) %MON extforcing_fu_min            =   0.0000000000000E+00
(PID.TID 0000.0001) %MON extforcing_fu_mean           =   0.0000000000000E+00
(PID.TID 0000.0001) %MON extforcing_fu_sd             =   0.0000000000000E+00
(PID.TID 0000.0001) %MON extforcing_fu_del2           =   0.0000000000000E+00
(PID.TID 0000.0001) %MON extforcing_fv_max            =   0.0000000000000E+00
(PID.TID 0000.0001) %MON extforcing_fv_min            =   0.0000000000000E+00
(PID.TID 0000.0001) %MON extforcing_fv_mean           =   0.0000000000000E+00
(PID.TID 0000.0001) %MON extforcing_fv_sd             =   0.0000000000000E+00
(PID.TID 0000.0001) %MON extforcing_fv_del2           =   0.0000000000000E+00
(PID.TID 0000.0001) %MON advcfl_uvel_max              =   1.5388233911430E-08
(PID.TID 0000.0001) %MON advcfl_vvel_max              =   1.0736058568718E-06
(PID.TID 0000.0001) %MON advcfl_wvel_max              =   5.5945287719520E-06
(PID.TID 0000.0001) %MON advcfl_W_hf_max              =   5.5945287719520E-06
(PID.TID 0000.0001) %MON pe_b_mean                    =   1.2855662998994E-10
(PID.TID 0000.0001) %MON ke_max                       =   4.1798487947719E-08
(PID.TID 0000.0001) %MON ke_mean                      =   2.1710444547487E-09
(PID.TID 0000.0001) %MON ke_vol                       =   4.1711332037233E+19
(PID.TID 0000.0001) %MON vort_r_min                   =  -4.9286223443260E-10
(PID.TID 0000.0001) %MON vort_r_max                   =   3.6554216782380E-10
(PID.TID 0000.0001) %MON vort_a_mean                  =  -1.7950959125775E-20
(PID.TID 0000.0001) %MON vort_a_sd                    =   8.2567010677941E-05
(PID.TID 0000.0001) %MON vort_p_mean                  =  -1.7996674059251E-20
(PID.TID 0000.0001) %MON vort_p_sd                    =   8.3918501625429E-05
(PID.TID 0000.0001) %MON surfExpan_theta_mean         =  -2.0778461426222E-11
(PID.TID 0000.0001) %MON surfExpan_salt_mean          =   0.0000000000000E+00
(PID.TID 0000.0001) // =======================================================
(PID.TID 0000.0001) // End MONITOR dynamic field statistics
(PID.TID 0000.0001) // =======================================================
 cg2d: Sum(rhs),rhsMax =   2.36861109322861E-05  5.93813126745745E-01
(PID.TID 0000.0001)                    cg2d_init_res =    4.08457366455478E-02
(PID.TID 0000.0001)                       cg2d_iters =   101
(PID.TID 0000.0001)                         cg2d_res =    6.34948307895828E-14
 cg3d: Sum(rhs),rhsMax =   1.34065935436523E-13  3.25858145999939E-02
(PID.TID 0000.0001)                    cg3d_init_res =    4.17728038653857E-01
(PID.TID 0000.0001)                       cg3d_iters =    40
(PID.TID 0000.0001)                         cg3d_res =    8.72051712603869E-04
(PID.TID 0000.0001) // =======================================================
(PID.TID 0000.0001) // Begin MONITOR dynamic field statistics
(PID.TID 0000.0001) // =======================================================
(PID.TID 0000.0001) %MON time_tsnumber                =                     5
(PID.TID 0000.0001) %MON time_secondsf                =   1.5000000000000E+03
(PID.TID 0000.0001) %MON dynstat_eta_max              =   2.4813816954866E-02
(PID.TID 0000.0001) %MON dynstat_eta_min              =  -1.9480978408490E-02
(PID.TID 0000.0001) %MON dynstat_eta_mean             =  -2.7313321234344E-06
(PID.TID 0000.0001) %MON dynstat_eta_sd               =   8.8132281840261E-03
(PID.TID 0000.0001) %MON dynstat_eta_del2             =   4.2258253927350E-03
(PID.TID 0000.0001) %MON dynstat_uvel_max             =   5.2251420776074E-05
(PID.TID 0000.0001) %MON dynstat_uvel_min             =  -5.2332037106801E-05
(PID.TID 0000.0001) %MON dynstat_uvel_mean            =  -5.1518740821663E-08
(PID.TID 0000.0001) %MON dynstat_uvel_sd              =   1.0833568485867E-05
(PID.TID 0000.0001) %MON dynstat_uvel_del2            =   4.4086609154165E-06
(PID.TID 0000.0001) %MON dynstat_vvel_max             =   4.6809092061293E-04
(PID.TID 0000.0001) %MON dynstat_vvel_min             =  -3.6924782005853E-04
(PID.TID 0000.0001) %MON dynstat_vvel_mean            =  -2.3043429971708E-07
(PID.TID 0000.0001) %MON dynstat_vvel_sd              =   7.5961889770313E-05
(PID.TID 0000.0001) %MON dynstat_vvel_del2            =   3.2422450112926E-05
(PID.TID 0000.0001) %MON dynstat_wvel_max             =   4.7206191268204E-04
(PID.TID 0000.0001) %MON dynstat_wvel_min             =  -5.5850705421708E-04
(PID.TID 0000.0001) %MON dynstat_wvel_mean            =   3.7146372712562E-21
(PID.TID 0000.0001) %MON dynstat_wvel_sd              =   1.2368010932219E-04
(PID.TID 0000.0001) %MON dynstat_wvel_del2            =   6.1001780038427E-05
(PID.TID 0000.0001) %MON dynstat_theta_max            =   1.1578986768930E+04
(PID.TID 0000.0001) %MON dynstat_theta_min            =   1.1578985822551E+04
(PID.TID 0000.0001) %MON dynstat_theta_mean           =   1.1578986295155E+04
(PID.TID 0000.0001) %MON dynstat_theta_sd             =   1.9388918538335E-04
(PID.TID 0000.0001) %MON dynstat_theta_del2           =   9.4093567334423E-05
(PID.TID 0000.0001) %MON dynstat_salt_max             =   0.0000000000000E+00
(PID.TID 0000.0001) %MON dynstat_salt_min             =   0.0000000000000E+00
(PID.TID 0000.0001) %MON dynstat_salt_mean            =   0.0000000000000E+00
(PID.TID 0000.0001) %MON dynstat_salt_sd              =   0.0000000000000E+00
(PID.TID 0000.0001) %MON dynstat_salt_del2            =   0.0000000000000E+00
(PID.TID 0000.0001) %MON extforcing_qnet_max          =   0.0000000000000E+00
(PID.TID 0000.0001) %MON extforcing_qnet_min          =   0.0000000000000E+00
(PID.TID 0000.0001) %MON extforcing_qnet_mean         =   0.0000000000000E+00
(PID.TID 0000.0001) %MON extforcing_qnet_sd           =   0.0000000000000E+00
(PID.TID 0000.0001) %MON extforcing_qnet_del2         =   0.0000000000000E+00
(PID.TID 0000.0001) %MON extforcing_qsw_max           =   0.0000000000000E+00
(PID.TID 0000.0001) %MON extforcing_qsw_min           =   0.0000000000000E+00
(PID.TID 0000.0001) %MON extforcing_qsw_mean          =   0.0000000000000E+00
(PID.TID 0000.0001) %MON extforcing_qsw_sd            =   0.0000000000000E+00
(PID.TID 0000.0001) %MON extforcing_qsw_del2          =   0.0000000000000E+00
(PID.TID 0000.0001) %MON extforcing_empmr_max         =   0.0000000000000E+00
(PID.TID 0000.0001) %MON extforcing_empmr_min         =   0.0000000000000E+00
(PID.TID 0000.0001) %MON extforcing_empmr_mean        =   0.0000000000000E+00
(PID.TID 0000.0001) %MON extforcing_empmr_sd          =   0.0000000000000E+00
(PID.TID 0000.0001) %MON extforcing_empmr_del2        =   0.0000000000000E+00
(PID.TID 0000.0001) %MON extforcing_fu_max            =   0.0000000000000E+00
(PID.TID 0000.0001) %MON extforcing_fu_min            =   0.0000000000000E+00
(PID.TID 0000.0001) %MON extforcing_fu_mean           =   0.0000000000000E+00
(PID.TID 0000.0001) %MON extforcing_fu_sd             =   0.0000000000000E+00
(PID.TID 0000.0001) %MON extforcing_fu_del2           =   0.0000000000000E+00
(PID.TID 0000.0001) %MON extforcing_fv_max            =   0.0000000000000E+00
(PID.TID 0000.0001) %MON extforcing_fv_min            =   0.0000000000000E+00
(PID.TID 0000.0001) %MON extforcing_fv_mean           =   0.0000000000000E+00
(PID.TID 0000.0001) %MON extforcing_fv_sd             =   0.0000000000000E+00
(PID.TID 0000.0001) %MON extforcing_fv_del2           =   0.0000000000000E+00
(PID.TID 0000.0001) %MON advcfl_uvel_max              =   2.3738865718569E-08
(PID.TID 0000.0001) %MON advcfl_vvel_max              =   1.2630910916569E-06
(PID.TID 0000.0001) %MON advcfl_wvel_max              =   6.7020846506049E-06
(PID.TID 0000.0001) %MON advcfl_W_hf_max              =   6.7020846506049E-06
(PID.TID 0000.0001) %MON pe_b_mean                    =   1.2699535252116E-10
(PID.TID 0000.0001) %MON ke_max                       =   5.8307438468554E-08
(PID.TID 0000.0001) %MON ke_mean                      =   2.9388488214418E-09
(PID.TID 0000.0001) %MON ke_vol                       =   4.1711332037233E+19
(PID.TID 0000.0001) %MON vort_r_min                   =  -7.1877283437381E-10
(PID.TID 0000.0001) %MON vort_r_max                   =   5.2992797453402E-10
(PID.TID 0000.0001) %MON vort_a_mean                  =  -2.6926438688663E-20
(PID.TID 0000.0001) %MON vort_a_sd                    =   8.2567010675093E-05
(PID.TID 0000.0001) %MON vort_p_mean                  =  -2.6995011088876E-20
(PID.TID 0000.0001) %MON vort_p_sd                    =   8.3918501673039E-05
(PID.TID 0000.0001) %MON surfExpan_theta_mean         =  -5.6505778881091E-12
(PID.TID 0000.0001) %MON surfExpan_salt_mean          =   0.0000000000000E+00
(PID.TID 0000.0001) // =======================================================
(PID.TID 0000.0001) // End MONITOR dynamic field statistics
(PID.TID 0000.0001) // =======================================================
 cg2d: Sum(rhs),rhsMax =   3.06186353976334E-05  5.86626193945688E-01
(PID.TID 0000.0001)                    cg2d_init_res =    4.07706187393943E-02
(PID.TID 0000.0001)                       cg2d_iters =   101
(PID.TID 0000.0001)                         cg2d_res =    6.03396842943561E-14
 cg3d: Sum(rhs),rhsMax =   2.76112032543407E-13  3.27049749279967E-02
(PID.TID 0000.0001)                    cg3d_init_res =    3.85717746521449E-01
(PID.TID 0000.0001)                       cg3d_iters =    40
(PID.TID 0000.0001)                         cg3d_res =    5.77023957439483E-04
(PID.TID 0000.0001) // =======================================================
(PID.TID 0000.0001) // Begin MONITOR dynamic field statistics
(PID.TID 0000.0001) // =======================================================
(PID.TID 0000.0001) %MON time_tsnumber                =                     6
(PID.TID 0000.0001) %MON time_secondsf                =   1.8000000000000E+03
(PID.TID 0000.0001) %MON dynstat_eta_max              =   2.4500609723014E-02
(PID.TID 0000.0001) %MON dynstat_eta_min              =  -1.9306995186161E-02
(PID.TID 0000.0001) %MON dynstat_eta_mean             =  -3.4880141828546E-06
(PID.TID 0000.0001) %MON dynstat_eta_sd               =   8.7412301046557E-03
(PID.TID 0000.0001) %MON dynstat_eta_del2             =   4.1821881661359E-03
(PID.TID 0000.0001) %MON dynstat_uvel_max             =   7.2107128120114E-05
(PID.TID 0000.0001) %MON dynstat_uvel_min             =  -7.1661316484636E-05
(PID.TID 0000.0001) %MON dynstat_uvel_mean            =  -5.7293202208131E-08
(PID.TID 0000.0001) %MON dynstat_uvel_sd              =   1.4647969946565E-05
(PID.TID 0000.0001) %MON dynstat_uvel_del2            =   5.7054532099445E-06
(PID.TID 0000.0001) %MON dynstat_vvel_max             =   5.3131882830054E-04
(PID.TID 0000.0001) %MON dynstat_vvel_min             =  -4.2259071944648E-04
(PID.TID 0000.0001) %MON dynstat_vvel_mean            =  -2.3300249776048E-07
(PID.TID 0000.0001) %MON dynstat_vvel_sd              =   8.5210848647713E-05
(PID.TID 0000.0001) %MON dynstat_vvel_del2            =   3.4954043504893E-05
(PID.TID 0000.0001) %MON dynstat_wvel_max             =   5.4239923359744E-04
(PID.TID 0000.0001) %MON dynstat_wvel_min             =  -6.4313599221508E-04
(PID.TID 0000.0001) %MON dynstat_wvel_mean            =  -4.6080310453558E-21
(PID.TID 0000.0001) %MON dynstat_wvel_sd              =   1.4047682367977E-04
(PID.TID 0000.0001) %MON dynstat_wvel_del2            =   6.7429343312860E-05
(PID.TID 0000.0001) %MON dynstat_theta_max            =   1.1578986763506E+04
(PID.TID 0000.0001) %MON dynstat_theta_min            =   1.1578985827322E+04
(PID.TID 0000.0001) %MON dynstat_theta_mean           =   1.1578986295155E+04
(PID.TID 0000.0001) %MON dynstat_theta_sd             =   1.8274354659917E-04
(PID.TID 0000.0001) %MON dynstat_theta_del2           =   8.8042382843826E-05
(PID.TID 0000.0001) %MON dynstat_salt_max             =   0.0000000000000E+00
(PID.TID 0000.0001) %MON dynstat_salt_min             =   0.0000000000000E+00
(PID.TID 0000.0001) %MON dynstat_salt_mean            =   0.0000000000000E+00
(PID.TID 0000.0001) %MON dynstat_salt_sd              =   0.0000000000000E+00
(PID.TID 0000.0001) %MON dynstat_salt_del2            =   0.0000000000000E+00
(PID.TID 0000.0001) %MON extforcing_qnet_max          =   0.0000000000000E+00
(PID.TID 0000.0001) %MON extforcing_qnet_min          =   0.0000000000000E+00
(PID.TID 0000.0001) %MON extforcing_qnet_mean         =   0.0000000000000E+00
(PID.TID 0000.0001) %MON extforcing_qnet_sd           =   0.0000000000000E+00
(PID.TID 0000.0001) %MON extforcing_qnet_del2         =   0.0000000000000E+00
(PID.TID 0000.0001) %MON extforcing_qsw_max           =   0.0000000000000E+00
(PID.TID 0000.0001) %MON extforcing_qsw_min           =   0.0000000000000E+00
(PID.TID 0000.0001) %MON extforcing_qsw_mean          =   0.0000000000000E+00
(PID.TID 0000.0001) %MON extforcing_qsw_sd            =   0.0000000000000E+00
(PID.TID 0000.0001) %MON extforcing_qsw_del2          =   0.0000000000000E+00
(PID.TID 0000.0001) %MON extforcing_empmr_max         =   0.0000000000000E+00
(PID.TID 0000.0001) %MON extforcing_empmr_min         =   0.0000000000000E+00
(PID.TID 0000.0001) %MON extforcing_empmr_mean        =   0.0000000000000E+00
(PID.TID 0000.0001) %MON extforcing_empmr_sd          =   0.0000000000000E+00
(PID.TID 0000.0001) %MON extforcing_empmr_del2        =   0.0000000000000E+00
(PID.TID 0000.0001) %MON extforcing_fu_max            =   0.0000000000000E+00
(PID.TID 0000.0001) %MON extforcing_fu_min            =   0.0000000000000E+00
(PID.TID 0000.0001) %MON extforcing_fu_mean           =   0.0000000000000E+00
(PID.TID 0000.0001) %MON extforcing_fu_sd             =   0.0000000000000E+00
(PID.TID 0000.0001) %MON extforcing_fu_del2           =   0.0000000000000E+00
(PID.TID 0000.0001) %MON extforcing_fv_max            =   0.0000000000000E+00
(PID.TID 0000.0001) %MON extforcing_fv_min            =   0.0000000000000E+00
(PID.TID 0000.0001) %MON extforcing_fv_mean           =   0.0000000000000E+00
(PID.TID 0000.0001) %MON extforcing_fv_sd             =   0.0000000000000E+00
(PID.TID 0000.0001) %MON extforcing_fv_del2           =   0.0000000000000E+00
(PID.TID 0000.0001) %MON advcfl_uvel_max              =   3.3285451879514E-08
(PID.TID 0000.0001) %MON advcfl_vvel_max              =   1.4337045417955E-06
(PID.TID 0000.0001) %MON advcfl_wvel_max              =   7.7176319065809E-06
(PID.TID 0000.0001) %MON advcfl_W_hf_max              =   7.7176319065809E-06
(PID.TID 0000.0001) %MON pe_b_mean                    =   1.2492890451086E-10
(PID.TID 0000.0001) %MON ke_max                       =   7.5829120423758E-08
(PID.TID 0000.0001) %MON ke_mean                      =   3.7315055382600E-09
(PID.TID 0000.0001) %MON ke_vol                       =   4.1711332037233E+19
(PID.TID 0000.0001) %MON vort_r_min                   =  -9.6313543413185E-10
(PID.TID 0000.0001) %MON vort_r_max                   =   7.1277554944798E-10
(PID.TID 0000.0001) %MON vort_a_mean                  =   5.3852877377326E-20
(PID.TID 0000.0001) %MON vort_a_sd                    =   8.2567010673885E-05
(PID.TID 0000.0001) %MON vort_p_mean                  =   5.3990022177753E-20
(PID.TID 0000.0001) %MON vort_p_sd                    =   8.3918501731090E-05
(PID.TID 0000.0001) %MON surfExpan_theta_mean         =  -4.8317648648189E-12
(PID.TID 0000.0001) %MON surfExpan_salt_mean          =   0.0000000000000E+00
(PID.TID 0000.0001) // =======================================================
(PID.TID 0000.0001) // End MONITOR dynamic field statistics
(PID.TID 0000.0001) // =======================================================
 Compute Stats, Diag. #  23  ETAN      vol(  0 ): 8.342E+13  Parms: SM      M1      
 Compute Stats, Diag. #  30  UVEL      vol(  0 ): 2.503E+20  Parms: UU   031MR      
 Compute Stats, Diag. #  31  VVEL      vol(  0 ): 2.498E+20  Parms: VV   030MR      
 Compute Stats, Diag. #  32  WVEL      vol(  0 ): 2.492E+20  Parms: WM      LR      
 Compute Stats, Diag. #  26  THETA     vol(  0 ): 2.503E+20  Parms: SM      MR      
 cg2d: Sum(rhs),rhsMax =   3.76091120304067E-05  5.79538822006270E-01
(PID.TID 0000.0001)                    cg2d_init_res =    4.07031167358439E-02
(PID.TID 0000.0001)                       cg2d_iters =   101
(PID.TID 0000.0001)                         cg2d_res =    6.14607526870259E-14
 cg3d: Sum(rhs),rhsMax =  -4.94053582766885E-14  3.27762836702197E-02
(PID.TID 0000.0001)                    cg3d_init_res =    3.75996144711186E-01
(PID.TID 0000.0001)                       cg3d_iters =    40
(PID.TID 0000.0001)                         cg3d_res =    5.64741644893716E-04
(PID.TID 0000.0001) // =======================================================
(PID.TID 0000.0001) // Begin MONITOR dynamic field statistics
(PID.TID 0000.0001) // =======================================================
(PID.TID 0000.0001) %MON time_tsnumber                =                     7
(PID.TID 0000.0001) %MON time_secondsf                =   2.1000000000000E+03
(PID.TID 0000.0001) %MON dynstat_eta_max              =   2.4113815768539E-02
(PID.TID 0000.0001) %MON dynstat_eta_min              =  -1.9084070201391E-02
(PID.TID 0000.0001) %MON dynstat_eta_mean             =  -4.2325936210972E-06
(PID.TID 0000.0001) %MON dynstat_eta_sd               =   8.6647542454837E-03
(PID.TID 0000.0001) %MON dynstat_eta_del2             =   4.1390707236248E-03
(PID.TID 0000.0001) %MON dynstat_uvel_max             =   9.3955726206153E-05
(PID.TID 0000.0001) %MON dynstat_uvel_min             =  -9.2736984127419E-05
(PID.TID 0000.0001) %MON dynstat_uvel_mean            =  -5.6670623725727E-08
(PID.TID 0000.0001) %MON dynstat_uvel_sd              =   1.8779227206879E-05
(PID.TID 0000.0001) %MON dynstat_uvel_del2            =   7.0118148023510E-06
(PID.TID 0000.0001) %MON dynstat_vvel_max             =   5.8841955821453E-04
(PID.TID 0000.0001) %MON dynstat_vvel_min             =  -4.7106916159907E-04
(PID.TID 0000.0001) %MON dynstat_vvel_mean            =  -1.9901892680294E-07
(PID.TID 0000.0001) %MON dynstat_vvel_sd              =   9.3515705903051E-05
(PID.TID 0000.0001) %MON dynstat_vvel_del2            =   3.6928812408579E-05
(PID.TID 0000.0001) %MON dynstat_wvel_max             =   6.0680191615248E-04
(PID.TID 0000.0001) %MON dynstat_wvel_min             =  -7.2082332838557E-04
(PID.TID 0000.0001) %MON dynstat_wvel_mean            =  -5.3133419196449E-21
(PID.TID 0000.0001) %MON dynstat_wvel_sd              =   1.5566888613546E-04
(PID.TID 0000.0001) %MON dynstat_wvel_del2            =   7.2772605905839E-05
(PID.TID 0000.0001) %MON dynstat_theta_max            =   1.1578986757707E+04
(PID.TID 0000.0001) %MON dynstat_theta_min            =   1.1578985832338E+04
(PID.TID 0000.0001) %MON dynstat_theta_mean           =   1.1578986295155E+04
(PID.TID 0000.0001) %MON dynstat_theta_sd             =   1.7319663698985E-04
(PID.TID 0000.0001) %MON dynstat_theta_del2           =   8.2827634411002E-05
(PID.TID 0000.0001) %MON dynstat_salt_max             =   0.0000000000000E+00
(PID.TID 0000.0001) %MON dynstat_salt_min             =   0.0000000000000E+00
(PID.TID 0000.0001) %MON dynstat_salt_mean            =   0.0000000000000E+00
(PID.TID 0000.0001) %MON dynstat_salt_sd              =   0.0000000000000E+00
(PID.TID 0000.0001) %MON dynstat_salt_del2            =   0.0000000000000E+00
(PID.TID 0000.0001) %MON extforcing_qnet_max          =   0.0000000000000E+00
(PID.TID 0000.0001) %MON extforcing_qnet_min          =   0.0000000000000E+00
(PID.TID 0000.0001) %MON extforcing_qnet_mean         =   0.0000000000000E+00
(PID.TID 0000.0001) %MON extforcing_qnet_sd           =   0.0000000000000E+00
(PID.TID 0000.0001) %MON extforcing_qnet_del2         =   0.0000000000000E+00
(PID.TID 0000.0001) %MON extforcing_qsw_max           =   0.0000000000000E+00
(PID.TID 0000.0001) %MON extforcing_qsw_min           =   0.0000000000000E+00
(PID.TID 0000.0001) %MON extforcing_qsw_mean          =   0.0000000000000E+00
(PID.TID 0000.0001) %MON extforcing_qsw_sd            =   0.0000000000000E+00
(PID.TID 0000.0001) %MON extforcing_qsw_del2          =   0.0000000000000E+00
(PID.TID 0000.0001) %MON extforcing_empmr_max         =   0.0000000000000E+00
(PID.TID 0000.0001) %MON extforcing_empmr_min         =   0.0000000000000E+00
(PID.TID 0000.0001) %MON extforcing_empmr_mean        =   0.0000000000000E+00
(PID.TID 0000.0001) %MON extforcing_empmr_sd          =   0.0000000000000E+00
(PID.TID 0000.0001) %MON extforcing_empmr_del2        =   0.0000000000000E+00
(PID.TID 0000.0001) %MON extforcing_fu_max            =   0.0000000000000E+00
(PID.TID 0000.0001) %MON extforcing_fu_min            =   0.0000000000000E+00
(PID.TID 0000.0001) %MON extforcing_fu_mean           =   0.0000000000000E+00
(PID.TID 0000.0001) %MON extforcing_fu_sd             =   0.0000000000000E+00
(PID.TID 0000.0001) %MON extforcing_fu_del2           =   0.0000000000000E+00
(PID.TID 0000.0001) %MON extforcing_fv_max            =   0.0000000000000E+00
(PID.TID 0000.0001) %MON extforcing_fv_min            =   0.0000000000000E+00
(PID.TID 0000.0001) %MON extforcing_fv_mean           =   0.0000000000000E+00
(PID.TID 0000.0001) %MON extforcing_fv_sd             =   0.0000000000000E+00
(PID.TID 0000.0001) %MON extforcing_fv_del2           =   0.0000000000000E+00
(PID.TID 0000.0001) %MON advcfl_uvel_max              =   4.3917237691583E-08
(PID.TID 0000.0001) %MON advcfl_vvel_max              =   1.5877844867494E-06
(PID.TID 0000.0001) %MON advcfl_wvel_max              =   8.6498799406269E-06
(PID.TID 0000.0001) %MON advcfl_W_hf_max              =   8.6498799406269E-06
(PID.TID 0000.0001) %MON pe_b_mean                    =   1.2275250392090E-10
(PID.TID 0000.0001) %MON ke_max                       =   9.3968456201693E-08
(PID.TID 0000.0001) %MON ke_mean                      =   4.5414187496799E-09
(PID.TID 0000.0001) %MON ke_vol                       =   4.1711332037233E+19
(PID.TID 0000.0001) %MON vort_r_min                   =  -1.2199441922882E-09
(PID.TID 0000.0001) %MON vort_r_max                   =   9.0809665434049E-10
(PID.TID 0000.0001) %MON vort_a_mean                  =  -9.8730275191764E-20
(PID.TID 0000.0001) %MON vort_a_sd                    =   8.2567010674193E-05
(PID.TID 0000.0001) %MON vort_p_mean                  =  -9.8981707325880E-20
(PID.TID 0000.0001) %MON vort_p_sd                    =   8.3918501798190E-05
(PID.TID 0000.0001) %MON surfExpan_theta_mean         =  -9.9727621211462E-12
(PID.TID 0000.0001) %MON surfExpan_salt_mean          =   0.0000000000000E+00
(PID.TID 0000.0001) // =======================================================
(PID.TID 0000.0001) // End MONITOR dynamic field statistics
(PID.TID 0000.0001) // =======================================================
 cg2d: Sum(rhs),rhsMax =   4.36614687000791E-05  5.72557483005979E-01
(PID.TID 0000.0001)                    cg2d_init_res =    4.06371918437674E-02
(PID.TID 0000.0001)                       cg2d_iters =   101
(PID.TID 0000.0001)                         cg2d_res =    6.24046978931163E-14
 cg3d: Sum(rhs),rhsMax =  -1.47046437526388E-13  3.28025925758096E-02
(PID.TID 0000.0001)                    cg3d_init_res =    3.61717968521394E-01
(PID.TID 0000.0001)                       cg3d_iters =    40
(PID.TID 0000.0001)                         cg3d_res =    5.31994144437986E-04
(PID.TID 0000.0001) // =======================================================
(PID.TID 0000.0001) // Begin MONITOR dynamic field statistics
(PID.TID 0000.0001) // =======================================================
(PID.TID 0000.0001) %MON time_tsnumber                =                     8
(PID.TID 0000.0001) %MON time_secondsf                =   2.4000000000000E+03
(PID.TID 0000.0001) %MON dynstat_eta_max              =   2.3725126437065E-02
(PID.TID 0000.0001) %MON dynstat_eta_min              =  -1.8877170417290E-02
(PID.TID 0000.0001) %MON dynstat_eta_mean             =  -4.8545434816094E-06
(PID.TID 0000.0001) %MON dynstat_eta_sd               =   8.5928546909563E-03
(PID.TID 0000.0001) %MON dynstat_eta_del2             =   4.0964611645600E-03
(PID.TID 0000.0001) %MON dynstat_uvel_max             =   1.1750093998678E-04
(PID.TID 0000.0001) %MON dynstat_uvel_min             =  -1.1526752581391E-04
(PID.TID 0000.0001) %MON dynstat_uvel_mean            =  -5.1063698564729E-08
(PID.TID 0000.0001) %MON dynstat_uvel_sd              =   2.3182078602857E-05
(PID.TID 0000.0001) %MON dynstat_uvel_del2            =   8.3067761973971E-06
(PID.TID 0000.0001) %MON dynstat_vvel_max             =   6.3998944359102E-04
(PID.TID 0000.0001) %MON dynstat_vvel_min             =  -5.1522054402561E-04
(PID.TID 0000.0001) %MON dynstat_vvel_mean            =  -1.4165443777242E-07
(PID.TID 0000.0001) %MON dynstat_vvel_sd              =   1.0103837222672E-04
(PID.TID 0000.0001) %MON dynstat_vvel_del2            =   3.8461367588158E-05
(PID.TID 0000.0001) %MON dynstat_wvel_max             =   6.6571880430706E-04
(PID.TID 0000.0001) %MON dynstat_wvel_min             =  -7.9223811531460E-04
(PID.TID 0000.0001) %MON dynstat_wvel_mean            =  -4.1848445207823E-21
(PID.TID 0000.0001) %MON dynstat_wvel_sd              =   1.6946992713638E-04
(PID.TID 0000.0001) %MON dynstat_wvel_del2            =   7.7207155553299E-05
(PID.TID 0000.0001) %MON dynstat_theta_max            =   1.1578986751607E+04
(PID.TID 0000.0001) %MON dynstat_theta_min            =   1.1578985837561E+04
(PID.TID 0000.0001) %MON dynstat_theta_mean           =   1.1578986295155E+04
(PID.TID 0000.0001) %MON dynstat_theta_sd             =   1.6496170243909E-04
(PID.TID 0000.0001) %MON dynstat_theta_del2           =   7.8300948932370E-05
(PID.TID 0000.0001) %MON dynstat_salt_max             =   0.0000000000000E+00
(PID.TID 0000.0001) %MON dynstat_salt_min             =   0.0000000000000E+00
(PID.TID 0000.0001) %MON dynstat_salt_mean            =   0.0000000000000E+00
(PID.TID 0000.0001) %MON dynstat_salt_sd              =   0.0000000000000E+00
(PID.TID 0000.0001) %MON dynstat_salt_del2            =   0.0000000000000E+00
(PID.TID 0000.0001) %MON extforcing_qnet_max          =   0.0000000000000E+00
(PID.TID 0000.0001) %MON extforcing_qnet_min          =   0.0000000000000E+00
(PID.TID 0000.0001) %MON extforcing_qnet_mean         =   0.0000000000000E+00
(PID.TID 0000.0001) %MON extforcing_qnet_sd           =   0.0000000000000E+00
(PID.TID 0000.0001) %MON extforcing_qnet_del2         =   0.0000000000000E+00
(PID.TID 0000.0001) %MON extforcing_qsw_max           =   0.0000000000000E+00
(PID.TID 0000.0001) %MON extforcing_qsw_min           =   0.0000000000000E+00
(PID.TID 0000.0001) %MON extforcing_qsw_mean          =   0.0000000000000E+00
(PID.TID 0000.0001) %MON extforcing_qsw_sd            =   0.0000000000000E+00
(PID.TID 0000.0001) %MON extforcing_qsw_del2          =   0.0000000000000E+00
(PID.TID 0000.0001) %MON extforcing_empmr_max         =   0.0000000000000E+00
(PID.TID 0000.0001) %MON extforcing_empmr_min         =   0.0000000000000E+00
(PID.TID 0000.0001) %MON extforcing_empmr_mean        =   0.0000000000000E+00
(PID.TID 0000.0001) %MON extforcing_empmr_sd          =   0.0000000000000E+00
(PID.TID 0000.0001) %MON extforcing_empmr_del2        =   0.0000000000000E+00
(PID.TID 0000.0001) %MON extforcing_fu_max            =   0.0000000000000E+00
(PID.TID 0000.0001) %MON extforcing_fu_min            =   0.0000000000000E+00
(PID.TID 0000.0001) %MON extforcing_fu_mean           =   0.0000000000000E+00
(PID.TID 0000.0001) %MON extforcing_fu_sd             =   0.0000000000000E+00
(PID.TID 0000.0001) %MON extforcing_fu_del2           =   0.0000000000000E+00
(PID.TID 0000.0001) %MON extforcing_fv_max            =   0.0000000000000E+00
(PID.TID 0000.0001) %MON extforcing_fv_min            =   0.0000000000000E+00
(PID.TID 0000.0001) %MON extforcing_fv_mean           =   0.0000000000000E+00
(PID.TID 0000.0001) %MON extforcing_fv_sd             =   0.0000000000000E+00
(PID.TID 0000.0001) %MON extforcing_fv_del2           =   0.0000000000000E+00
(PID.TID 0000.0001) %MON advcfl_uvel_max              =   5.5545745758055E-08
(PID.TID 0000.0001) %MON advcfl_vvel_max              =   1.7269400651817E-06
(PID.TID 0000.0001) %MON advcfl_wvel_max              =   9.5068573837752E-06
(PID.TID 0000.0001) %MON advcfl_W_hf_max              =   9.5068573837752E-06
(PID.TID 0000.0001) %MON pe_b_mean                    =   1.2072378162610E-10
(PID.TID 0000.0001) %MON ke_max                       =   1.1237190132106E-07
(PID.TID 0000.0001) %MON ke_mean                      =   5.3643073778219E-09
(PID.TID 0000.0001) %MON ke_vol                       =   4.1711332037233E+19
(PID.TID 0000.0001) %MON vort_r_min                   =  -1.4842189475621E-09
(PID.TID 0000.0001) %MON vort_r_max                   =   1.1122317998911E-09
(PID.TID 0000.0001) %MON vort_a_mean                  =   5.9836530419251E-21
(PID.TID 0000.0001) %MON vort_a_sd                    =   8.2567010675488E-05
(PID.TID 0000.0001) %MON vort_p_mean                  =   5.9988913530836E-21
(PID.TID 0000.0001) %MON vort_p_sd                    =   8.3918501873027E-05
(PID.TID 0000.0001) %MON surfExpan_theta_mean         =  -1.4254438519235E-11
(PID.TID 0000.0001) %MON surfExpan_salt_mean          =   0.0000000000000E+00
(PID.TID 0000.0001) // =======================================================
(PID.TID 0000.0001) // End MONITOR dynamic field statistics
(PID.TID 0000.0001) // =======================================================
 cg2d: Sum(rhs),rhsMax =   4.71218034900633E-05  5.65683649046884E-01
(PID.TID 0000.0001)                    cg2d_init_res =    4.05709013733648E-02
(PID.TID 0000.0001)                       cg2d_iters =   101
(PID.TID 0000.0001)                         cg2d_res =    6.30945453006339E-14
 cg3d: Sum(rhs),rhsMax =   2.81940703422690E-13  3.27889449355400E-02
(PID.TID 0000.0001)                    cg3d_init_res =    3.52054560114383E-01
(PID.TID 0000.0001)                       cg3d_iters =    40
(PID.TID 0000.0001)                         cg3d_res =    4.92606251997501E-04
(PID.TID 0000.0001) // =======================================================
(PID.TID 0000.0001) // Begin MONITOR dynamic field statistics
(PID.TID 0000.0001) // =======================================================
(PID.TID 0000.0001) %MON time_tsnumber                =                     9
(PID.TID 0000.0001) %MON time_secondsf                =   2.7000000000000E+03
(PID.TID 0000.0001) %MON dynstat_eta_max              =   2.3376930066134E-02
(PID.TID 0000.0001) %MON dynstat_eta_min              =  -1.8719529615551E-02
(PID.TID 0000.0001) %MON dynstat_eta_mean             =  -5.1763840379235E-06
(PID.TID 0000.0001) %MON dynstat_eta_sd               =   8.5291967260451E-03
(PID.TID 0000.0001) %MON dynstat_eta_del2             =   4.0543555995551E-03
(PID.TID 0000.0001) %MON dynstat_uvel_max             =   1.4248483066857E-04
(PID.TID 0000.0001) %MON dynstat_uvel_min             =  -1.3899993785237E-04
(PID.TID 0000.0001) %MON dynstat_uvel_mean            =  -4.2859611340155E-08
(PID.TID 0000.0001) %MON dynstat_uvel_sd              =   2.7819661374207E-05
(PID.TID 0000.0001) %MON dynstat_uvel_del2            =   9.5749221050457E-06
(PID.TID 0000.0001) %MON dynstat_vvel_max             =   6.8660074476207E-04
(PID.TID 0000.0001) %MON dynstat_vvel_min             =  -5.5561999110225E-04
(PID.TID 0000.0001) %MON dynstat_vvel_mean            =  -7.5813419613856E-08
(PID.TID 0000.0001) %MON dynstat_vvel_sd              =   1.0790609408188E-04
(PID.TID 0000.0001) %MON dynstat_vvel_del2            =   3.9644857586957E-05
(PID.TID 0000.0001) %MON dynstat_wvel_max             =   7.1954105180036E-04
(PID.TID 0000.0001) %MON dynstat_wvel_min             =  -8.5816618415847E-04
(PID.TID 0000.0001) %MON dynstat_wvel_mean            =   9.5922278903324E-21
(PID.TID 0000.0001) %MON dynstat_wvel_sd              =   1.8205546317702E-04
(PID.TID 0000.0001) %MON dynstat_wvel_del2            =   8.0874178725464E-05
(PID.TID 0000.0001) %MON dynstat_theta_max            =   1.1578986745271E+04
(PID.TID 0000.0001) %MON dynstat_theta_min            =   1.1578985842958E+04
(PID.TID 0000.0001) %MON dynstat_theta_mean           =   1.1578986295156E+04
(PID.TID 0000.0001) %MON dynstat_theta_sd             =   1.5780473714388E-04
(PID.TID 0000.0001) %MON dynstat_theta_del2           =   7.4328632580400E-05
(PID.TID 0000.0001) %MON dynstat_salt_max             =   0.0000000000000E+00
(PID.TID 0000.0001) %MON dynstat_salt_min             =   0.0000000000000E+00
(PID.TID 0000.0001) %MON dynstat_salt_mean            =   0.0000000000000E+00
(PID.TID 0000.0001) %MON dynstat_salt_sd              =   0.0000000000000E+00
(PID.TID 0000.0001) %MON dynstat_salt_del2            =   0.0000000000000E+00
(PID.TID 0000.0001) %MON extforcing_qnet_max          =   0.0000000000000E+00
(PID.TID 0000.0001) %MON extforcing_qnet_min          =   0.0000000000000E+00
(PID.TID 0000.0001) %MON extforcing_qnet_mean         =   0.0000000000000E+00
(PID.TID 0000.0001) %MON extforcing_qnet_sd           =   0.0000000000000E+00
(PID.TID 0000.0001) %MON extforcing_qnet_del2         =   0.0000000000000E+00
(PID.TID 0000.0001) %MON extforcing_qsw_max           =   0.0000000000000E+00
(PID.TID 0000.0001) %MON extforcing_qsw_min           =   0.0000000000000E+00
(PID.TID 0000.0001) %MON extforcing_qsw_mean          =   0.0000000000000E+00
(PID.TID 0000.0001) %MON extforcing_qsw_sd            =   0.0000000000000E+00
(PID.TID 0000.0001) %MON extforcing_qsw_del2          =   0.0000000000000E+00
(PID.TID 0000.0001) %MON extforcing_empmr_max         =   0.0000000000000E+00
(PID.TID 0000.0001) %MON extforcing_empmr_min         =   0.0000000000000E+00
(PID.TID 0000.0001) %MON extforcing_empmr_mean        =   0.0000000000000E+00
(PID.TID 0000.0001) %MON extforcing_empmr_sd          =   0.0000000000000E+00
(PID.TID 0000.0001) %MON extforcing_empmr_del2        =   0.0000000000000E+00
(PID.TID 0000.0001) %MON extforcing_fu_max            =   0.0000000000000E+00
(PID.TID 0000.0001) %MON extforcing_fu_min            =   0.0000000000000E+00
(PID.TID 0000.0001) %MON extforcing_fu_mean           =   0.0000000000000E+00
(PID.TID 0000.0001) %MON extforcing_fu_sd             =   0.0000000000000E+00
(PID.TID 0000.0001) %MON extforcing_fu_del2           =   0.0000000000000E+00
(PID.TID 0000.0001) %MON extforcing_fv_max            =   0.0000000000000E+00
(PID.TID 0000.0001) %MON extforcing_fv_min            =   0.0000000000000E+00
(PID.TID 0000.0001) %MON extforcing_fv_mean           =   0.0000000000000E+00
(PID.TID 0000.0001) %MON extforcing_fv_sd             =   0.0000000000000E+00
(PID.TID 0000.0001) %MON extforcing_fv_del2           =   0.0000000000000E+00
(PID.TID 0000.0001) %MON advcfl_uvel_max              =   6.8079510572721E-08
(PID.TID 0000.0001) %MON advcfl_vvel_max              =   1.8527154577114E-06
(PID.TID 0000.0001) %MON advcfl_wvel_max              =   1.0297994209902E-05
(PID.TID 0000.0001) %MON advcfl_W_hf_max              =   1.0297994209902E-05
(PID.TID 0000.0001) %MON pe_b_mean                    =   1.1894171056398E-10
(PID.TID 0000.0001) %MON ke_max                       =   1.3077647328499E-07
(PID.TID 0000.0001) %MON ke_mean                      =   6.1988147041972E-09
(PID.TID 0000.0001) %MON ke_vol                       =   4.1711332037233E+19
(PID.TID 0000.0001) %MON vort_r_min                   =  -1.7518602326332E-09
(PID.TID 0000.0001) %MON vort_r_max                   =   1.3224941074840E-09
(PID.TID 0000.0001) %MON vort_a_mean                  =   5.9836530419251E-20
(PID.TID 0000.0001) %MON vort_a_sd                    =   8.2567010677152E-05
(PID.TID 0000.0001) %MON vort_p_mean                  =   5.9988913530836E-20
(PID.TID 0000.0001) %MON vort_p_sd                    =   8.3918501954481E-05
(PID.TID 0000.0001) %MON surfExpan_theta_mean         =  -1.5354291874542E-11
(PID.TID 0000.0001) %MON surfExpan_salt_mean          =   0.0000000000000E+00
(PID.TID 0000.0001) // =======================================================
(PID.TID 0000.0001) // End MONITOR dynamic field statistics
(PID.TID 0000.0001) // =======================================================
 cg2d: Sum(rhs),rhsMax =   4.71842400565914E-05  5.58915036233257E-01
(PID.TID 0000.0001)                    cg2d_init_res =    4.05066436992618E-02
(PID.TID 0000.0001)                       cg2d_iters =   101
(PID.TID 0000.0001)                         cg2d_res =    6.37403041102426E-14
 cg3d: Sum(rhs),rhsMax =   3.52756018839884E-14  3.27404827633229E-02
(PID.TID 0000.0001)                    cg3d_init_res =    3.42649981143902E-01
(PID.TID 0000.0001)                       cg3d_iters =    40
(PID.TID 0000.0001)                         cg3d_res =    4.34652578935692E-04
(PID.TID 0000.0001) // =======================================================
(PID.TID 0000.0001) // Begin MONITOR dynamic field statistics
(PID.TID 0000.0001) // =======================================================
(PID.TID 0000.0001) %MON time_tsnumber                =                    10
(PID.TID 0000.0001) %MON time_secondsf                =   3.0000000000000E+03
(PID.TID 0000.0001) %MON dynstat_eta_max              =   2.3122923041006E-02
(PID.TID 0000.0001) %MON dynstat_eta_min              =  -1.8615427318717E-02
(PID.TID 0000.0001) %MON dynstat_eta_mean             =  -5.1212233610977E-06
(PID.TID 0000.0001) %MON dynstat_eta_sd               =   8.4736457450241E-03
(PID.TID 0000.0001) %MON dynstat_eta_del2             =   4.0127481779058E-03
(PID.TID 0000.0001) %MON dynstat_uvel_max             =   1.6868241256828E-04
(PID.TID 0000.0001) %MON dynstat_uvel_min             =  -1.6371222732445E-04
(PID.TID 0000.0001) %MON dynstat_uvel_mean            =  -3.4310223831750E-08
(PID.TID 0000.0001) %MON dynstat_uvel_sd              =   3.2661862226540E-05
(PID.TID 0000.0001) %MON dynstat_uvel_del2            =   1.0806281536956E-05
(PID.TID 0000.0001) %MON dynstat_vvel_max             =   7.2879396286197E-04
(PID.TID 0000.0001) %MON dynstat_vvel_min             =  -5.9278455931256E-04
(PID.TID 0000.0001) %MON dynstat_vvel_mean            =  -1.3026607450839E-08
(PID.TID 0000.0001) %MON dynstat_vvel_sd              =   1.1421631504186E-04
(PID.TID 0000.0001) %MON dynstat_vvel_del2            =   4.0546237451882E-05
(PID.TID 0000.0001) %MON dynstat_wvel_max             =   7.6864424712061E-04
(PID.TID 0000.0001) %MON dynstat_wvel_min             =  -9.1942696216999E-04
(PID.TID 0000.0001) %MON dynstat_wvel_mean            =  -1.8808289981044E-22
(PID.TID 0000.0001) %MON dynstat_wvel_sd              =   1.9356924499804E-04
(PID.TID 0000.0001) %MON dynstat_wvel_del2            =   8.3893816213359E-05
(PID.TID 0000.0001) %MON dynstat_theta_max            =   1.1578986738755E+04
(PID.TID 0000.0001) %MON dynstat_theta_min            =   1.1578985848498E+04
(PID.TID 0000.0001) %MON dynstat_theta_mean           =   1.1578986295156E+04
(PID.TID 0000.0001) %MON dynstat_theta_sd             =   1.5153561432774E-04
(PID.TID 0000.0001) %MON dynstat_theta_del2           =   7.0826052740790E-05
(PID.TID 0000.0001) %MON dynstat_salt_max             =   0.0000000000000E+00
(PID.TID 0000.0001) %MON dynstat_salt_min             =   0.0000000000000E+00
(PID.TID 0000.0001) %MON dynstat_salt_mean            =   0.0000000000000E+00
(PID.TID 0000.0001) %MON dynstat_salt_sd              =   0.0000000000000E+00
(PID.TID 0000.0001) %MON dynstat_salt_del2            =   0.0000000000000E+00
(PID.TID 0000.0001) %MON extforcing_qnet_max          =   0.0000000000000E+00
(PID.TID 0000.0001) %MON extforcing_qnet_min          =   0.0000000000000E+00
(PID.TID 0000.0001) %MON extforcing_qnet_mean         =   0.0000000000000E+00
(PID.TID 0000.0001) %MON extforcing_qnet_sd           =   0.0000000000000E+00
(PID.TID 0000.0001) %MON extforcing_qnet_del2         =   0.0000000000000E+00
(PID.TID 0000.0001) %MON extforcing_qsw_max           =   0.0000000000000E+00
(PID.TID 0000.0001) %MON extforcing_qsw_min           =   0.0000000000000E+00
(PID.TID 0000.0001) %MON extforcing_qsw_mean          =   0.0000000000000E+00
(PID.TID 0000.0001) %MON extforcing_qsw_sd            =   0.0000000000000E+00
(PID.TID 0000.0001) %MON extforcing_qsw_del2          =   0.0000000000000E+00
(PID.TID 0000.0001) %MON extforcing_empmr_max         =   0.0000000000000E+00
(PID.TID 0000.0001) %MON extforcing_empmr_min         =   0.0000000000000E+00
(PID.TID 0000.0001) %MON extforcing_empmr_mean        =   0.0000000000000E+00
(PID.TID 0000.0001) %MON extforcing_empmr_sd          =   0.0000000000000E+00
(PID.TID 0000.0001) %MON extforcing_empmr_del2        =   0.0000000000000E+00
(PID.TID 0000.0001) %MON extforcing_fu_max            =   0.0000000000000E+00
(PID.TID 0000.0001) %MON extforcing_fu_min            =   0.0000000000000E+00
(PID.TID 0000.0001) %MON extforcing_fu_mean           =   0.0000000000000E+00
(PID.TID 0000.0001) %MON extforcing_fu_sd             =   0.0000000000000E+00
(PID.TID 0000.0001) %MON extforcing_fu_del2           =   0.0000000000000E+00
(PID.TID 0000.0001) %MON extforcing_fv_max            =   0.0000000000000E+00
(PID.TID 0000.0001) %MON extforcing_fv_min            =   0.0000000000000E+00
(PID.TID 0000.0001) %MON extforcing_fv_mean           =   0.0000000000000E+00
(PID.TID 0000.0001) %MON extforcing_fv_sd             =   0.0000000000000E+00
(PID.TID 0000.0001) %MON extforcing_fv_del2           =   0.0000000000000E+00
(PID.TID 0000.0001) %MON advcfl_uvel_max              =   8.1424338778456E-08
(PID.TID 0000.0001) %MON advcfl_vvel_max              =   1.9665691463079E-06
(PID.TID 0000.0001) %MON advcfl_wvel_max              =   1.1033123546040E-05
(PID.TID 0000.0001) %MON advcfl_W_hf_max              =   1.1033123546040E-05
(PID.TID 0000.0001) %MON pe_b_mean                    =   1.1739741194792E-10
(PID.TID 0000.0001) %MON ke_max                       =   1.4899542095702E-07
(PID.TID 0000.0001) %MON ke_mean                      =   7.0448594479203E-09
(PID.TID 0000.0001) %MON ke_vol                       =   4.1711332037233E+19
(PID.TID 0000.0001) %MON vort_r_min                   =  -2.0195273820518E-09
(PID.TID 0000.0001) %MON vort_r_max                   =   1.5366084945292E-09
(PID.TID 0000.0001) %MON vort_a_mean                  =  -3.8893744772513E-20
(PID.TID 0000.0001) %MON vort_a_sd                    =   8.2567010678683E-05
(PID.TID 0000.0001) %MON vort_p_mean                  =  -3.8992793795044E-20
(PID.TID 0000.0001) %MON vort_p_sd                    =   8.3918502041676E-05
(PID.TID 0000.0001) %MON surfExpan_theta_mean         =  -1.3480985425589E-11
(PID.TID 0000.0001) %MON surfExpan_salt_mean          =   0.0000000000000E+00
(PID.TID 0000.0001) // =======================================================
(PID.TID 0000.0001) // End MONITOR dynamic field statistics
(PID.TID 0000.0001) // =======================================================
 cg2d: Sum(rhs),rhsMax =   4.52065667287949E-05  5.52247862022035E-01
(PID.TID 0000.0001)                    cg2d_init_res =    4.04433792974437E-02
(PID.TID 0000.0001)                       cg2d_iters =   101
(PID.TID 0000.0001)                         cg2d_res =    6.44252803849835E-14
 cg3d: Sum(rhs),rhsMax =  -3.07548257694190E-13  3.26613072880305E-02
(PID.TID 0000.0001)                    cg3d_init_res =    3.34805582980028E-01
(PID.TID 0000.0001)                       cg3d_iters =    40
(PID.TID 0000.0001)                         cg3d_res =    3.26035846987147E-04
(PID.TID 0000.0001) // =======================================================
(PID.TID 0000.0001) // Begin MONITOR dynamic field statistics
(PID.TID 0000.0001) // =======================================================
(PID.TID 0000.0001) %MON time_tsnumber                =                    11
(PID.TID 0000.0001) %MON time_secondsf                =   3.3000000000000E+03
(PID.TID 0000.0001) %MON dynstat_eta_max              =   2.2985512069117E-02
(PID.TID 0000.0001) %MON dynstat_eta_min              =  -1.8551541953441E-02
(PID.TID 0000.0001) %MON dynstat_eta_mean             =  -4.8480437259483E-06
(PID.TID 0000.0001) %MON dynstat_eta_sd               =   8.4240805666004E-03
(PID.TID 0000.0001) %MON dynstat_eta_del2             =   3.9716341197062E-03
(PID.TID 0000.0001) %MON dynstat_uvel_max             =   1.9589502179143E-04
(PID.TID 0000.0001) %MON dynstat_uvel_min             =  -1.8921013850108E-04
(PID.TID 0000.0001) %MON dynstat_uvel_mean            =  -2.7490881270875E-08
(PID.TID 0000.0001) %MON dynstat_uvel_sd              =   3.7683618578805E-05
(PID.TID 0000.0001) %MON dynstat_uvel_del2            =   1.1993386966248E-05
(PID.TID 0000.0001) %MON dynstat_vvel_max             =   7.6704947857549E-04
(PID.TID 0000.0001) %MON dynstat_vvel_min             =  -6.2713547442532E-04
(PID.TID 0000.0001) %MON dynstat_vvel_mean            =   3.5722818580866E-08
(PID.TID 0000.0001) %MON dynstat_vvel_sd              =   1.2004517899675E-04
(PID.TID 0000.0001) %MON dynstat_vvel_del2            =   4.1217162107467E-05
(PID.TID 0000.0001) %MON dynstat_wvel_max             =   8.1337807330208E-04
(PID.TID 0000.0001) %MON dynstat_wvel_min             =  -9.7597564163624E-04
(PID.TID 0000.0001) %MON dynstat_wvel_mean            =  -1.8338082731518E-21
(PID.TID 0000.0001) %MON dynstat_wvel_sd              =   2.0413100043241E-04
(PID.TID 0000.0001) %MON dynstat_wvel_del2            =   8.6362381550103E-05
(PID.TID 0000.0001) %MON dynstat_theta_max            =   1.1578986732108E+04
(PID.TID 0000.0001) %MON dynstat_theta_min            =   1.1578985854154E+04
(PID.TID 0000.0001) %MON dynstat_theta_mean           =   1.1578986295156E+04
(PID.TID 0000.0001) %MON dynstat_theta_sd             =   1.4600034541456E-04
(PID.TID 0000.0001) %MON dynstat_theta_del2           =   6.7720780311796E-05
(PID.TID 0000.0001) %MON dynstat_salt_max             =   0.0000000000000E+00
(PID.TID 0000.0001) %MON dynstat_salt_min             =   0.0000000000000E+00
(PID.TID 0000.0001) %MON dynstat_salt_mean            =   0.0000000000000E+00
(PID.TID 0000.0001) %MON dynstat_salt_sd              =   0.0000000000000E+00
(PID.TID 0000.0001) %MON dynstat_salt_del2            =   0.0000000000000E+00
(PID.TID 0000.0001) %MON extforcing_qnet_max          =   0.0000000000000E+00
(PID.TID 0000.0001) %MON extforcing_qnet_min          =   0.0000000000000E+00
(PID.TID 0000.0001) %MON extforcing_qnet_mean         =   0.0000000000000E+00
(PID.TID 0000.0001) %MON extforcing_qnet_sd           =   0.0000000000000E+00
(PID.TID 0000.0001) %MON extforcing_qnet_del2         =   0.0000000000000E+00
(PID.TID 0000.0001) %MON extforcing_qsw_max           =   0.0000000000000E+00
(PID.TID 0000.0001) %MON extforcing_qsw_min           =   0.0000000000000E+00
(PID.TID 0000.0001) %MON extforcing_qsw_mean          =   0.0000000000000E+00
(PID.TID 0000.0001) %MON extforcing_qsw_sd            =   0.0000000000000E+00
(PID.TID 0000.0001) %MON extforcing_qsw_del2          =   0.0000000000000E+00
(PID.TID 0000.0001) %MON extforcing_empmr_max         =   0.0000000000000E+00
(PID.TID 0000.0001) %MON extforcing_empmr_min         =   0.0000000000000E+00
(PID.TID 0000.0001) %MON extforcing_empmr_mean        =   0.0000000000000E+00
(PID.TID 0000.0001) %MON extforcing_empmr_sd          =   0.0000000000000E+00
(PID.TID 0000.0001) %MON extforcing_empmr_del2        =   0.0000000000000E+00
(PID.TID 0000.0001) %MON extforcing_fu_max            =   0.0000000000000E+00
(PID.TID 0000.0001) %MON extforcing_fu_min            =   0.0000000000000E+00
(PID.TID 0000.0001) %MON extforcing_fu_mean           =   0.0000000000000E+00
(PID.TID 0000.0001) %MON extforcing_fu_sd             =   0.0000000000000E+00
(PID.TID 0000.0001) %MON extforcing_fu_del2           =   0.0000000000000E+00
(PID.TID 0000.0001) %MON extforcing_fv_max            =   0.0000000000000E+00
(PID.TID 0000.0001) %MON extforcing_fv_min            =   0.0000000000000E+00
(PID.TID 0000.0001) %MON extforcing_fv_mean           =   0.0000000000000E+00
(PID.TID 0000.0001) %MON extforcing_fv_sd             =   0.0000000000000E+00
(PID.TID 0000.0001) %MON extforcing_fv_del2           =   0.0000000000000E+00
(PID.TID 0000.0001) %MON advcfl_uvel_max              =   9.5492256177273E-08
(PID.TID 0000.0001) %MON advcfl_vvel_max              =   2.0697973846194E-06
(PID.TID 0000.0001) %MON advcfl_wvel_max              =   1.1711707699635E-05
(PID.TID 0000.0001) %MON advcfl_W_hf_max              =   1.1711707699635E-05
(PID.TID 0000.0001) %MON pe_b_mean                    =   1.1602803152513E-10
(PID.TID 0000.0001) %MON ke_max                       =   1.6689320250210E-07
(PID.TID 0000.0001) %MON ke_mean                      =   7.9030546994702E-09
(PID.TID 0000.0001) %MON ke_vol                       =   4.1711332037233E+19
(PID.TID 0000.0001) %MON vort_r_min                   =  -2.2845238194408E-09
(PID.TID 0000.0001) %MON vort_r_max                   =   1.7526487656827E-09
(PID.TID 0000.0001) %MON vort_a_mean                  =   5.3852877377326E-20
(PID.TID 0000.0001) %MON vort_a_sd                    =   8.2567010679672E-05
(PID.TID 0000.0001) %MON vort_p_mean                  =   5.3990022177753E-20
(PID.TID 0000.0001) %MON vort_p_sd                    =   8.3918502133909E-05
(PID.TID 0000.0001) %MON surfExpan_theta_mean         =  -1.0178192733328E-11
(PID.TID 0000.0001) %MON surfExpan_salt_mean          =   0.0000000000000E+00
(PID.TID 0000.0001) // =======================================================
(PID.TID 0000.0001) // End MONITOR dynamic field statistics
(PID.TID 0000.0001) // =======================================================
 cg2d: Sum(rhs),rhsMax =   4.26462993144694E-05  5.45678376244066E-01
(PID.TID 0000.0001)                    cg2d_init_res =    4.03817910089151E-02
(PID.TID 0000.0001)                       cg2d_iters =   101
(PID.TID 0000.0001)                         cg2d_res =    6.51622551622878E-14
 cg3d: Sum(rhs),rhsMax =   6.70242941008814E-14  3.25548837883328E-02
(PID.TID 0000.0001)                    cg3d_init_res =    3.27604483431119E-01
(PID.TID 0000.0001)                       cg3d_iters =    40
(PID.TID 0000.0001)                         cg3d_res =    2.21960239476052E-04
(PID.TID 0000.0001) // =======================================================
(PID.TID 0000.0001) // Begin MONITOR dynamic field statistics
(PID.TID 0000.0001) // =======================================================
(PID.TID 0000.0001) %MON time_tsnumber                =                    12
(PID.TID 0000.0001) %MON time_secondsf                =   3.6000000000000E+03
(PID.TID 0000.0001) %MON dynstat_eta_max              =   2.2876014167021E-02
(PID.TID 0000.0001) %MON dynstat_eta_min              =  -1.8502521245105E-02
(PID.TID 0000.0001) %MON dynstat_eta_mean             =  -4.5190698553346E-06
(PID.TID 0000.0001) %MON dynstat_eta_sd               =   8.3777178284693E-03
(PID.TID 0000.0001) %MON dynstat_eta_del2             =   3.9310076194209E-03
(PID.TID 0000.0001) %MON dynstat_uvel_max             =   2.2394661960809E-04
(PID.TID 0000.0001) %MON dynstat_uvel_min             =  -2.1532312471170E-04
(PID.TID 0000.0001) %MON dynstat_uvel_mean            =  -2.3808806851324E-08
(PID.TID 0000.0001) %MON dynstat_uvel_sd              =   4.2863741004422E-05
(PID.TID 0000.0001) %MON dynstat_uvel_del2            =   1.3131352904616E-05
(PID.TID 0000.0001) %MON dynstat_vvel_max             =   8.0180004180240E-04
(PID.TID 0000.0001) %MON dynstat_vvel_min             =  -6.5899206617482E-04
(PID.TID 0000.0001) %MON dynstat_vvel_mean            =   6.3846257349406E-08
(PID.TID 0000.0001) %MON dynstat_vvel_sd              =   1.2545232532778E-04
(PID.TID 0000.0001) %MON dynstat_vvel_del2            =   4.1696753579268E-05
(PID.TID 0000.0001) %MON dynstat_wvel_max             =   8.5407524857774E-04
(PID.TID 0000.0001) %MON dynstat_wvel_min             =  -1.0281617411886E-03
(PID.TID 0000.0001) %MON dynstat_wvel_mean            =   1.3353885886541E-20
(PID.TID 0000.0001) %MON dynstat_wvel_sd              =   2.1384182817234E-04
(PID.TID 0000.0001) %MON dynstat_wvel_del2            =   8.8361214248062E-05
(PID.TID 0000.0001) %MON dynstat_theta_max            =   1.1578986725372E+04
(PID.TID 0000.0001) %MON dynstat_theta_min            =   1.1578985859899E+04
(PID.TID 0000.0001) %MON dynstat_theta_mean           =   1.1578986295156E+04
(PID.TID 0000.0001) %MON dynstat_theta_sd             =   1.4107444099869E-04
(PID.TID 0000.0001) %MON dynstat_theta_del2           =   6.4940812856026E-05
(PID.TID 0000.0001) %MON dynstat_salt_max             =   0.0000000000000E+00
(PID.TID 0000.0001) %MON dynstat_salt_min             =   0.0000000000000E+00
(PID.TID 0000.0001) %MON dynstat_salt_mean            =   0.0000000000000E+00
(PID.TID 0000.0001) %MON dynstat_salt_sd              =   0.0000000000000E+00
(PID.TID 0000.0001) %MON dynstat_salt_del2            =   0.0000000000000E+00
(PID.TID 0000.0001) %MON extforcing_qnet_max          =   0.0000000000000E+00
(PID.TID 0000.0001) %MON extforcing_qnet_min          =   0.0000000000000E+00
(PID.TID 0000.0001) %MON extforcing_qnet_mean         =   0.0000000000000E+00
(PID.TID 0000.0001) %MON extforcing_qnet_sd           =   0.0000000000000E+00
(PID.TID 0000.0001) %MON extforcing_qnet_del2         =   0.0000000000000E+00
(PID.TID 0000.0001) %MON extforcing_qsw_max           =   0.0000000000000E+00
(PID.TID 0000.0001) %MON extforcing_qsw_min           =   0.0000000000000E+00
(PID.TID 0000.0001) %MON extforcing_qsw_mean          =   0.0000000000000E+00
(PID.TID 0000.0001) %MON extforcing_qsw_sd            =   0.0000000000000E+00
(PID.TID 0000.0001) %MON extforcing_qsw_del2          =   0.0000000000000E+00
(PID.TID 0000.0001) %MON extforcing_empmr_max         =   0.0000000000000E+00
(PID.TID 0000.0001) %MON extforcing_empmr_min         =   0.0000000000000E+00
(PID.TID 0000.0001) %MON extforcing_empmr_mean        =   0.0000000000000E+00
(PID.TID 0000.0001) %MON extforcing_empmr_sd          =   0.0000000000000E+00
(PID.TID 0000.0001) %MON extforcing_empmr_del2        =   0.0000000000000E+00
(PID.TID 0000.0001) %MON extforcing_fu_max            =   0.0000000000000E+00
(PID.TID 0000.0001) %MON extforcing_fu_min            =   0.0000000000000E+00
(PID.TID 0000.0001) %MON extforcing_fu_mean           =   0.0000000000000E+00
(PID.TID 0000.0001) %MON extforcing_fu_sd             =   0.0000000000000E+00
(PID.TID 0000.0001) %MON extforcing_fu_del2           =   0.0000000000000E+00
(PID.TID 0000.0001) %MON extforcing_fv_max            =   0.0000000000000E+00
(PID.TID 0000.0001) %MON extforcing_fv_min            =   0.0000000000000E+00
(PID.TID 0000.0001) %MON extforcing_fv_mean           =   0.0000000000000E+00
(PID.TID 0000.0001) %MON extforcing_fv_sd             =   0.0000000000000E+00
(PID.TID 0000.0001) %MON extforcing_fv_del2           =   0.0000000000000E+00
(PID.TID 0000.0001) %MON advcfl_uvel_max              =   1.1020632283279E-07
(PID.TID 0000.0001) %MON advcfl_vvel_max              =   2.1635678999383E-06
(PID.TID 0000.0001) %MON advcfl_wvel_max              =   1.2337940894263E-05
(PID.TID 0000.0001) %MON advcfl_W_hf_max              =   1.2337940894263E-05
(PID.TID 0000.0001) %MON pe_b_mean                    =   1.1475439847195E-10
(PID.TID 0000.0001) %MON ke_max                       =   1.8437871995412E-07
(PID.TID 0000.0001) %MON ke_mean                      =   8.7742589977349E-09
(PID.TID 0000.0001) %MON ke_vol                       =   4.1711332037233E+19
(PID.TID 0000.0001) %MON vort_r_min                   =  -2.5509906931552E-09
(PID.TID 0000.0001) %MON vort_r_max                   =   1.9689977500251E-09
(PID.TID 0000.0001) %MON vort_a_mean                  =   1.1069758127561E-19
(PID.TID 0000.0001) %MON vort_a_sd                    =   8.2567010679897E-05
(PID.TID 0000.0001) %MON vort_p_mean                  =   1.1097949003205E-19
(PID.TID 0000.0001) %MON vort_p_sd                    =   8.3918502230701E-05
(PID.TID 0000.0001) %MON surfExpan_theta_mean         =  -6.9382360031832E-12
(PID.TID 0000.0001) %MON surfExpan_salt_mean          =   0.0000000000000E+00
(PID.TID 0000.0001) // =======================================================
(PID.TID 0000.0001) // End MONITOR dynamic field statistics
(PID.TID 0000.0001) // =======================================================
 Compute Stats, Diag. #  23  ETAN      vol(  0 ): 8.342E+13  Parms: SM      M1      
 Compute Stats, Diag. #  30  UVEL      vol(  0 ): 2.503E+20  Parms: UU   031MR      
 Compute Stats, Diag. #  31  VVEL      vol(  0 ): 2.498E+20  Parms: VV   030MR      
 Compute Stats, Diag. #  32  WVEL      vol(  0 ): 2.492E+20  Parms: WM      LR      
 Compute Stats, Diag. #  26  THETA     vol(  0 ): 2.503E+20  Parms: SM      MR      
 cg2d: Sum(rhs),rhsMax =   4.03525137628036E-05  5.39203509389791E-01
(PID.TID 0000.0001)                    cg2d_init_res =    4.03215155712718E-02
(PID.TID 0000.0001)                       cg2d_iters =   101
(PID.TID 0000.0001)                         cg2d_res =    6.59155926027885E-14
 cg3d: Sum(rhs),rhsMax =  -6.82195185758294E-14  3.24244075262497E-02
(PID.TID 0000.0001)                    cg3d_init_res =    3.21213692208854E-01
(PID.TID 0000.0001)                       cg3d_iters =    40
(PID.TID 0000.0001)                         cg3d_res =    1.66754116331914E-04
(PID.TID 0000.0001) // =======================================================
(PID.TID 0000.0001) // Begin MONITOR dynamic field statistics
(PID.TID 0000.0001) // =======================================================
(PID.TID 0000.0001) %MON time_tsnumber                =                    13
(PID.TID 0000.0001) %MON time_secondsf                =   3.9000000000000E+03
(PID.TID 0000.0001) %MON dynstat_eta_max              =   2.2783893198862E-02
(PID.TID 0000.0001) %MON dynstat_eta_min              =  -1.8445504654643E-02
(PID.TID 0000.0001) %MON dynstat_eta_mean             =  -4.2252680354107E-06
(PID.TID 0000.0001) %MON dynstat_eta_sd               =   8.3324891799496E-03
(PID.TID 0000.0001) %MON dynstat_eta_del2             =   3.8908618100701E-03
(PID.TID 0000.0001) %MON dynstat_uvel_max             =   2.5267877150525E-04
(PID.TID 0000.0001) %MON dynstat_uvel_min             =  -2.4190218443759E-04
(PID.TID 0000.0001) %MON dynstat_uvel_mean            =  -2.3399358182130E-08
(PID.TID 0000.0001) %MON dynstat_uvel_sd              =   4.8184037878865E-05
(PID.TID 0000.0001) %MON dynstat_uvel_del2            =   1.4218414493375E-05
(PID.TID 0000.0001) %MON dynstat_vvel_max             =   8.3344321194082E-04
(PID.TID 0000.0001) %MON dynstat_vvel_min             =  -6.8859548702284E-04
(PID.TID 0000.0001) %MON dynstat_vvel_mean            =   7.0227561647110E-08
(PID.TID 0000.0001) %MON dynstat_vvel_sd              =   1.3048524749721E-04
(PID.TID 0000.0001) %MON dynstat_vvel_del2            =   4.2021297739621E-05
(PID.TID 0000.0001) %MON dynstat_wvel_max             =   8.9104664404751E-04
(PID.TID 0000.0001) %MON dynstat_wvel_min             =  -1.0762794345785E-03
(PID.TID 0000.0001) %MON dynstat_wvel_mean            =  -8.1345854168015E-21
(PID.TID 0000.0001) %MON dynstat_wvel_sd              =   2.2278759027431E-04
(PID.TID 0000.0001) %MON dynstat_wvel_del2            =   8.9960305693932E-05
(PID.TID 0000.0001) %MON dynstat_theta_max            =   1.1578986718582E+04
(PID.TID 0000.0001) %MON dynstat_theta_min            =   1.1578985865712E+04
(PID.TID 0000.0001) %MON dynstat_theta_mean           =   1.1578986295156E+04
(PID.TID 0000.0001) %MON dynstat_theta_sd             =   1.3665731177935E-04
(PID.TID 0000.0001) %MON dynstat_theta_del2           =   6.2438763353204E-05
(PID.TID 0000.0001) %MON dynstat_salt_max             =   0.0000000000000E+00
(PID.TID 0000.0001) %MON dynstat_salt_min             =   0.0000000000000E+00
(PID.TID 0000.0001) %MON dynstat_salt_mean            =   0.0000000000000E+00
(PID.TID 0000.0001) %MON dynstat_salt_sd              =   0.0000000000000E+00
(PID.TID 0000.0001) %MON dynstat_salt_del2            =   0.0000000000000E+00
(PID.TID 0000.0001) %MON extforcing_qnet_max          =   0.0000000000000E+00
(PID.TID 0000.0001) %MON extforcing_qnet_min          =   0.0000000000000E+00
(PID.TID 0000.0001) %MON extforcing_qnet_mean         =   0.0000000000000E+00
(PID.TID 0000.0001) %MON extforcing_qnet_sd           =   0.0000000000000E+00
(PID.TID 0000.0001) %MON extforcing_qnet_del2         =   0.0000000000000E+00
(PID.TID 0000.0001) %MON extforcing_qsw_max           =   0.0000000000000E+00
(PID.TID 0000.0001) %MON extforcing_qsw_min           =   0.0000000000000E+00
(PID.TID 0000.0001) %MON extforcing_qsw_mean          =   0.0000000000000E+00
(PID.TID 0000.0001) %MON extforcing_qsw_sd            =   0.0000000000000E+00
(PID.TID 0000.0001) %MON extforcing_qsw_del2          =   0.0000000000000E+00
(PID.TID 0000.0001) %MON extforcing_empmr_max         =   0.0000000000000E+00
(PID.TID 0000.0001) %MON extforcing_empmr_min         =   0.0000000000000E+00
(PID.TID 0000.0001) %MON extforcing_empmr_mean        =   0.0000000000000E+00
(PID.TID 0000.0001) %MON extforcing_empmr_sd          =   0.0000000000000E+00
(PID.TID 0000.0001) %MON extforcing_empmr_del2        =   0.0000000000000E+00
(PID.TID 0000.0001) %MON extforcing_fu_max            =   0.0000000000000E+00
(PID.TID 0000.0001) %MON extforcing_fu_min            =   0.0000000000000E+00
(PID.TID 0000.0001) %MON extforcing_fu_mean           =   0.0000000000000E+00
(PID.TID 0000.0001) %MON extforcing_fu_sd             =   0.0000000000000E+00
(PID.TID 0000.0001) %MON extforcing_fu_del2           =   0.0000000000000E+00
(PID.TID 0000.0001) %MON extforcing_fv_max            =   0.0000000000000E+00
(PID.TID 0000.0001) %MON extforcing_fv_min            =   0.0000000000000E+00
(PID.TID 0000.0001) %MON extforcing_fv_mean           =   0.0000000000000E+00
(PID.TID 0000.0001) %MON extforcing_fv_sd             =   0.0000000000000E+00
(PID.TID 0000.0001) %MON extforcing_fv_del2           =   0.0000000000000E+00
(PID.TID 0000.0001) %MON advcfl_uvel_max              =   1.2550040153788E-07
(PID.TID 0000.0001) %MON advcfl_vvel_max              =   2.2489534619169E-06
(PID.TID 0000.0001) %MON advcfl_wvel_max              =   1.2915353214942E-05
(PID.TID 0000.0001) %MON advcfl_W_hf_max              =   1.2915353214942E-05
(PID.TID 0000.0001) %MON pe_b_mean                    =   1.1351869384153E-10
(PID.TID 0000.0001) %MON ke_max                       =   2.0140052768915E-07
(PID.TID 0000.0001) %MON ke_mean                      =   9.6594111825691E-09
(PID.TID 0000.0001) %MON ke_vol                       =   4.1711332037233E+19
(PID.TID 0000.0001) %MON vort_r_min                   =  -2.8515716135675E-09
(PID.TID 0000.0001) %MON vort_r_max                   =   2.1842860674655E-09
(PID.TID 0000.0001) %MON vort_a_mean                  =   2.3934612167700E-20
(PID.TID 0000.0001) %MON vort_a_sd                    =   8.2567010679386E-05
(PID.TID 0000.0001) %MON vort_p_mean                  =   2.3995565412335E-20
(PID.TID 0000.0001) %MON vort_p_sd                    =   8.3918502331743E-05
(PID.TID 0000.0001) %MON surfExpan_theta_mean         =  -4.6382936634320E-12
(PID.TID 0000.0001) %MON surfExpan_salt_mean          =   0.0000000000000E+00
(PID.TID 0000.0001) // =======================================================
(PID.TID 0000.0001) // End MONITOR dynamic field statistics
(PID.TID 0000.0001) // =======================================================
 cg2d: Sum(rhs),rhsMax =   3.91275130565416E-05  5.32820864933687E-01
(PID.TID 0000.0001)                    cg2d_init_res =    4.02629102899362E-02
(PID.TID 0000.0001)                       cg2d_iters =   101
(PID.TID 0000.0001)                         cg2d_res =    6.66926632365537E-14
 cg3d: Sum(rhs),rhsMax =  -1.35462821515553E-13  3.22726670075344E-02
(PID.TID 0000.0001)                    cg3d_init_res =    3.15375795815165E-01
(PID.TID 0000.0001)                       cg3d_iters =    40
(PID.TID 0000.0001)                         cg3d_res =    2.00028705970720E-04
(PID.TID 0000.0001) // =======================================================
(PID.TID 0000.0001) // Begin MONITOR dynamic field statistics
(PID.TID 0000.0001) // =======================================================
(PID.TID 0000.0001) %MON time_tsnumber                =                    14
(PID.TID 0000.0001) %MON time_secondsf                =   4.2000000000000E+03
(PID.TID 0000.0001) %MON dynstat_eta_max              =   2.2698570368776E-02
(PID.TID 0000.0001) %MON dynstat_eta_min              =  -1.8369534456104E-02
(PID.TID 0000.0001) %MON dynstat_eta_mean             =  -4.0485026510063E-06
(PID.TID 0000.0001) %MON dynstat_eta_sd               =   8.2873892275660E-03
(PID.TID 0000.0001) %MON dynstat_eta_del2             =   3.8511894326911E-03
(PID.TID 0000.0001) %MON dynstat_uvel_max             =   2.8211172720627E-04
(PID.TID 0000.0001) %MON dynstat_uvel_min             =  -2.6881734554168E-04
(PID.TID 0000.0001) %MON dynstat_uvel_mean            =  -2.5421784500731E-08
(PID.TID 0000.0001) %MON dynstat_uvel_sd              =   5.3628653261606E-05
(PID.TID 0000.0001) %MON dynstat_uvel_del2            =   1.5253683840844E-05
(PID.TID 0000.0001) %MON dynstat_vvel_max             =   8.6233837518276E-04
(PID.TID 0000.0001) %MON dynstat_vvel_min             =  -7.1613695108939E-04
(PID.TID 0000.0001) %MON dynstat_vvel_mean            =   5.8567400754530E-08
(PID.TID 0000.0001) %MON dynstat_vvel_sd              =   1.3518235786638E-04
(PID.TID 0000.0001) %MON dynstat_vvel_del2            =   4.2218241035494E-05
(PID.TID 0000.0001) %MON dynstat_wvel_max             =   9.2457831791380E-04
(PID.TID 0000.0001) %MON dynstat_wvel_min             =  -1.1205824651409E-03
(PID.TID 0000.0001) %MON dynstat_wvel_mean            =  -1.9795725205049E-20
(PID.TID 0000.0001) %MON dynstat_wvel_sd              =   2.3104146799083E-04
(PID.TID 0000.0001) %MON dynstat_wvel_del2            =   9.1219775787811E-05
(PID.TID 0000.0001) %MON dynstat_theta_max            =   1.1578986711770E+04
(PID.TID 0000.0001) %MON dynstat_theta_min            =   1.1578985871570E+04
(PID.TID 0000.0001) %MON dynstat_theta_mean           =   1.1578986295156E+04
(PID.TID 0000.0001) %MON dynstat_theta_sd             =   1.3266761832986E-04
(PID.TID 0000.0001) %MON dynstat_theta_del2           =   6.0164169270403E-05
(PID.TID 0000.0001) %MON dynstat_salt_max             =   0.0000000000000E+00
(PID.TID 0000.0001) %MON dynstat_salt_min             =   0.0000000000000E+00
(PID.TID 0000.0001) %MON dynstat_salt_mean            =   0.0000000000000E+00
(PID.TID 0000.0001) %MON dynstat_salt_sd              =   0.0000000000000E+00
(PID.TID 0000.0001) %MON dynstat_salt_del2            =   0.0000000000000E+00
(PID.TID 0000.0001) %MON extforcing_qnet_max          =   0.0000000000000E+00
(PID.TID 0000.0001) %MON extforcing_qnet_min          =   0.0000000000000E+00
(PID.TID 0000.0001) %MON extforcing_qnet_mean         =   0.0000000000000E+00
(PID.TID 0000.0001) %MON extforcing_qnet_sd           =   0.0000000000000E+00
(PID.TID 0000.0001) %MON extforcing_qnet_del2         =   0.0000000000000E+00
(PID.TID 0000.0001) %MON extforcing_qsw_max           =   0.0000000000000E+00
(PID.TID 0000.0001) %MON extforcing_qsw_min           =   0.0000000000000E+00
(PID.TID 0000.0001) %MON extforcing_qsw_mean          =   0.0000000000000E+00
(PID.TID 0000.0001) %MON extforcing_qsw_sd            =   0.0000000000000E+00
(PID.TID 0000.0001) %MON extforcing_qsw_del2          =   0.0000000000000E+00
(PID.TID 0000.0001) %MON extforcing_empmr_max         =   0.0000000000000E+00
(PID.TID 0000.0001) %MON extforcing_empmr_min         =   0.0000000000000E+00
(PID.TID 0000.0001) %MON extforcing_empmr_mean        =   0.0000000000000E+00
(PID.TID 0000.0001) %MON extforcing_empmr_sd          =   0.0000000000000E+00
(PID.TID 0000.0001) %MON extforcing_empmr_del2        =   0.0000000000000E+00
(PID.TID 0000.0001) %MON extforcing_fu_max            =   0.0000000000000E+00
(PID.TID 0000.0001) %MON extforcing_fu_min            =   0.0000000000000E+00
(PID.TID 0000.0001) %MON extforcing_fu_mean           =   0.0000000000000E+00
(PID.TID 0000.0001) %MON extforcing_fu_sd             =   0.0000000000000E+00
(PID.TID 0000.0001) %MON extforcing_fu_del2           =   0.0000000000000E+00
(PID.TID 0000.0001) %MON extforcing_fv_max            =   0.0000000000000E+00
(PID.TID 0000.0001) %MON extforcing_fv_min            =   0.0000000000000E+00
(PID.TID 0000.0001) %MON extforcing_fv_mean           =   0.0000000000000E+00
(PID.TID 0000.0001) %MON extforcing_fv_sd             =   0.0000000000000E+00
(PID.TID 0000.0001) %MON extforcing_fv_del2           =   0.0000000000000E+00
(PID.TID 0000.0001) %MON advcfl_uvel_max              =   1.4131684154269E-07
(PID.TID 0000.0001) %MON advcfl_vvel_max              =   2.3269238340726E-06
(PID.TID 0000.0001) %MON advcfl_wvel_max              =   1.3446989581691E-05
(PID.TID 0000.0001) %MON advcfl_W_hf_max              =   1.3446989581691E-05
(PID.TID 0000.0001) %MON pe_b_mean                    =   1.1229316784027E-10
(PID.TID 0000.0001) %MON ke_max                       =   2.1883035038994E-07
(PID.TID 0000.0001) %MON ke_mean                      =   1.0559440292226E-08
(PID.TID 0000.0001) %MON ke_vol                       =   4.1711332037233E+19
(PID.TID 0000.0001) %MON vort_r_min                   =  -3.1594603879846E-09
(PID.TID 0000.0001) %MON vort_r_max                   =   2.3973549993354E-09
(PID.TID 0000.0001) %MON vort_a_mean                  =  -5.9836530419251E-20
(PID.TID 0000.0001) %MON vort_a_sd                    =   8.2567010678348E-05
(PID.TID 0000.0001) %MON vort_p_mean                  =  -5.9988913530836E-20
(PID.TID 0000.0001) %MON vort_p_sd                    =   8.3918502436847E-05
(PID.TID 0000.0001) %MON surfExpan_theta_mean         =  -3.4796120509117E-12
(PID.TID 0000.0001) %MON surfExpan_salt_mean          =   0.0000000000000E+00
(PID.TID 0000.0001) // =======================================================
(PID.TID 0000.0001) // End MONITOR dynamic field statistics
(PID.TID 0000.0001) // =======================================================
 cg2d: Sum(rhs),rhsMax =   3.97277430261578E-05  5.26528111534675E-01
(PID.TID 0000.0001)                    cg2d_init_res =    4.02055482615177E-02
(PID.TID 0000.0001)                       cg2d_iters =   101
(PID.TID 0000.0001)                         cg2d_res =    6.74834416367076E-14
 cg3d: Sum(rhs),rhsMax =  -1.49046573694189E-13  3.21021227543669E-02
(PID.TID 0000.0001)                    cg3d_init_res =    3.10075291821463E-01
(PID.TID 0000.0001)                       cg3d_iters =    40
(PID.TID 0000.0001)                         cg3d_res =    2.16611859591363E-04
(PID.TID 0000.0001) // =======================================================
(PID.TID 0000.0001) // Begin MONITOR dynamic field statistics
(PID.TID 0000.0001) // =======================================================
(PID.TID 0000.0001) %MON time_tsnumber                =                    15
(PID.TID 0000.0001) %MON time_secondsf                =   4.5000000000000E+03
(PID.TID 0000.0001) %MON dynstat_eta_max              =   2.2611870982733E-02
(PID.TID 0000.0001) %MON dynstat_eta_min              =  -1.8276512580808E-02
(PID.TID 0000.0001) %MON dynstat_eta_mean             =  -4.0620607677801E-06
(PID.TID 0000.0001) %MON dynstat_eta_sd               =   8.2421881790827E-03
(PID.TID 0000.0001) %MON dynstat_eta_del2             =   3.8119826260678E-03
(PID.TID 0000.0001) %MON dynstat_uvel_max             =   3.1209458304603E-04
(PID.TID 0000.0001) %MON dynstat_uvel_min             =  -2.9623879228831E-04
(PID.TID 0000.0001) %MON dynstat_uvel_mean            =  -2.8661452365374E-08
(PID.TID 0000.0001) %MON dynstat_uvel_sd              =   5.9183560461847E-05
(PID.TID 0000.0001) %MON dynstat_uvel_del2            =   1.6236485867232E-05
(PID.TID 0000.0001) %MON dynstat_vvel_max             =   8.8880082579718E-04
(PID.TID 0000.0001) %MON dynstat_vvel_min             =  -7.4177833507234E-04
(PID.TID 0000.0001) %MON dynstat_vvel_mean            =   3.2932172653861E-08
(PID.TID 0000.0001) %MON dynstat_vvel_sd              =   1.3957531342648E-04
(PID.TID 0000.0001) %MON dynstat_vvel_del2            =   4.2309072983473E-05
(PID.TID 0000.0001) %MON dynstat_wvel_max             =   9.5493002368051E-04
(PID.TID 0000.0001) %MON dynstat_wvel_min             =  -1.1612980320646E-03
(PID.TID 0000.0001) %MON dynstat_wvel_mean            =   1.2319429937584E-20
(PID.TID 0000.0001) %MON dynstat_wvel_sd              =   2.3866606711244E-04
(PID.TID 0000.0001) %MON dynstat_wvel_del2            =   9.2184745963756E-05
(PID.TID 0000.0001) %MON dynstat_theta_max            =   1.1578986704961E+04
(PID.TID 0000.0001) %MON dynstat_theta_min            =   1.1578985877456E+04
(PID.TID 0000.0001) %MON dynstat_theta_mean           =   1.1578986295156E+04
(PID.TID 0000.0001) %MON dynstat_theta_sd             =   1.2903945894923E-04
(PID.TID 0000.0001) %MON dynstat_theta_del2           =   5.8085948450047E-05
(PID.TID 0000.0001) %MON dynstat_salt_max             =   0.0000000000000E+00
(PID.TID 0000.0001) %MON dynstat_salt_min             =   0.0000000000000E+00
(PID.TID 0000.0001) %MON dynstat_salt_mean            =   0.0000000000000E+00
(PID.TID 0000.0001) %MON dynstat_salt_sd              =   0.0000000000000E+00
(PID.TID 0000.0001) %MON dynstat_salt_del2            =   0.0000000000000E+00
(PID.TID 0000.0001) %MON extforcing_qnet_max          =   0.0000000000000E+00
(PID.TID 0000.0001) %MON extforcing_qnet_min          =   0.0000000000000E+00
(PID.TID 0000.0001) %MON extforcing_qnet_mean         =   0.0000000000000E+00
(PID.TID 0000.0001) %MON extforcing_qnet_sd           =   0.0000000000000E+00
(PID.TID 0000.0001) %MON extforcing_qnet_del2         =   0.0000000000000E+00
(PID.TID 0000.0001) %MON extforcing_qsw_max           =   0.0000000000000E+00
(PID.TID 0000.0001) %MON extforcing_qsw_min           =   0.0000000000000E+00
(PID.TID 0000.0001) %MON extforcing_qsw_mean          =   0.0000000000000E+00
(PID.TID 0000.0001) %MON extforcing_qsw_sd            =   0.0000000000000E+00
(PID.TID 0000.0001) %MON extforcing_qsw_del2          =   0.0000000000000E+00
(PID.TID 0000.0001) %MON extforcing_empmr_max         =   0.0000000000000E+00
(PID.TID 0000.0001) %MON extforcing_empmr_min         =   0.0000000000000E+00
(PID.TID 0000.0001) %MON extforcing_empmr_mean        =   0.0000000000000E+00
(PID.TID 0000.0001) %MON extforcing_empmr_sd          =   0.0000000000000E+00
(PID.TID 0000.0001) %MON extforcing_empmr_del2        =   0.0000000000000E+00
(PID.TID 0000.0001) %MON extforcing_fu_max            =   0.0000000000000E+00
(PID.TID 0000.0001) %MON extforcing_fu_min            =   0.0000000000000E+00
(PID.TID 0000.0001) %MON extforcing_fu_mean           =   0.0000000000000E+00
(PID.TID 0000.0001) %MON extforcing_fu_sd             =   0.0000000000000E+00
(PID.TID 0000.0001) %MON extforcing_fu_del2           =   0.0000000000000E+00
(PID.TID 0000.0001) %MON extforcing_fv_max            =   0.0000000000000E+00
(PID.TID 0000.0001) %MON extforcing_fv_min            =   0.0000000000000E+00
(PID.TID 0000.0001) %MON extforcing_fv_mean           =   0.0000000000000E+00
(PID.TID 0000.0001) %MON extforcing_fv_sd             =   0.0000000000000E+00
(PID.TID 0000.0001) %MON extforcing_fv_del2           =   0.0000000000000E+00
(PID.TID 0000.0001) %MON advcfl_uvel_max              =   1.5760409859700E-07
(PID.TID 0000.0001) %MON advcfl_vvel_max              =   2.3983298027906E-06
(PID.TID 0000.0001) %MON advcfl_wvel_max              =   1.3935576384776E-05
(PID.TID 0000.0001) %MON advcfl_W_hf_max              =   1.3935576384776E-05
(PID.TID 0000.0001) %MON pe_b_mean                    =   1.1107157085439E-10
(PID.TID 0000.0001) %MON ke_max                       =   2.3789030687947E-07
(PID.TID 0000.0001) %MON ke_mean                      =   1.1475233966826E-08
(PID.TID 0000.0001) %MON ke_vol                       =   4.1711332037233E+19
(PID.TID 0000.0001) %MON vort_r_min                   =  -3.4703420488846E-09
(PID.TID 0000.0001) %MON vort_r_max                   =   2.6072243478110E-09
(PID.TID 0000.0001) %MON vort_a_mean                  =   1.4959132604813E-20
(PID.TID 0000.0001) %MON vort_a_sd                    =   8.2567010677048E-05
(PID.TID 0000.0001) %MON vort_p_mean                  =   1.4997228382709E-20
(PID.TID 0000.0001) %MON vort_p_sd                    =   8.3918502545888E-05
(PID.TID 0000.0001) %MON surfExpan_theta_mean         =  -3.3660428584184E-12
(PID.TID 0000.0001) %MON surfExpan_salt_mean          =   0.0000000000000E+00
(PID.TID 0000.0001) // =======================================================
(PID.TID 0000.0001) // End MONITOR dynamic field statistics
(PID.TID 0000.0001) // =======================================================
 cg2d: Sum(rhs),rhsMax =   4.18218702688822E-05  5.20323837437672E-01
(PID.TID 0000.0001)                    cg2d_init_res =    4.01486835105727E-02
(PID.TID 0000.0001)                       cg2d_iters =   101
(PID.TID 0000.0001)                         cg2d_res =    6.82969323403126E-14
 cg3d: Sum(rhs),rhsMax =   1.16989751219876E-13  3.19149586064429E-02
(PID.TID 0000.0001)                    cg3d_init_res =    3.05216397256527E-01
(PID.TID 0000.0001)                       cg3d_iters =    40
(PID.TID 0000.0001)                         cg3d_res =    2.08088625554216E-04
(PID.TID 0000.0001) // =======================================================
(PID.TID 0000.0001) // Begin MONITOR dynamic field statistics
(PID.TID 0000.0001) // =======================================================
(PID.TID 0000.0001) %MON time_tsnumber                =                    16
(PID.TID 0000.0001) %MON time_secondsf                =   4.8000000000000E+03
(PID.TID 0000.0001) %MON dynstat_eta_max              =   2.2519191363919E-02
(PID.TID 0000.0001) %MON dynstat_eta_min              =  -1.8174896257690E-02
(PID.TID 0000.0001) %MON dynstat_eta_mean             =  -4.2257921579219E-06
(PID.TID 0000.0001) %MON dynstat_eta_sd               =   8.1968909431383E-03
(PID.TID 0000.0001) %MON dynstat_eta_del2             =   3.7732344784921E-03
(PID.TID 0000.0001) %MON dynstat_uvel_max             =   3.4239764702206E-04
(PID.TID 0000.0001) %MON dynstat_uvel_min             =  -3.2387545625654E-04
(PID.TID 0000.0001) %MON dynstat_uvel_mean            =  -3.1944102183815E-08
(PID.TID 0000.0001) %MON dynstat_uvel_sd              =   6.4836166153939E-05
(PID.TID 0000.0001) %MON dynstat_uvel_del2            =   1.7167990321875E-05
(PID.TID 0000.0001) %MON dynstat_vvel_max             =   9.1309947748625E-04
(PID.TID 0000.0001) %MON dynstat_vvel_min             =  -7.6566211017818E-04
(PID.TID 0000.0001) %MON dynstat_vvel_mean            =  -1.6888145421546E-09
(PID.TID 0000.0001) %MON dynstat_vvel_sd              =   1.4369086025469E-04
(PID.TID 0000.0001) %MON dynstat_vvel_del2            =   4.2310690039033E-05
(PID.TID 0000.0001) %MON dynstat_wvel_max             =   9.8233454312505E-04
(PID.TID 0000.0001) %MON dynstat_wvel_min             =  -1.1986327147380E-03
(PID.TID 0000.0001) %MON dynstat_wvel_mean            =  -7.2882123676546E-21
(PID.TID 0000.0001) %MON dynstat_wvel_sd              =   2.4571533030647E-04
(PID.TID 0000.0001) %MON dynstat_wvel_del2            =   9.2896711521911E-05
(PID.TID 0000.0001) %MON dynstat_theta_max            =   1.1578986698177E+04
(PID.TID 0000.0001) %MON dynstat_theta_min            =   1.1578985883353E+04
(PID.TID 0000.0001) %MON dynstat_theta_mean           =   1.1578986295156E+04
(PID.TID 0000.0001) %MON dynstat_theta_sd             =   1.2571927815885E-04
(PID.TID 0000.0001) %MON dynstat_theta_del2           =   5.6173311888400E-05
(PID.TID 0000.0001) %MON dynstat_salt_max             =   0.0000000000000E+00
(PID.TID 0000.0001) %MON dynstat_salt_min             =   0.0000000000000E+00
(PID.TID 0000.0001) %MON dynstat_salt_mean            =   0.0000000000000E+00
(PID.TID 0000.0001) %MON dynstat_salt_sd              =   0.0000000000000E+00
(PID.TID 0000.0001) %MON dynstat_salt_del2            =   0.0000000000000E+00
(PID.TID 0000.0001) %MON extforcing_qnet_max          =   0.0000000000000E+00
(PID.TID 0000.0001) %MON extforcing_qnet_min          =   0.0000000000000E+00
(PID.TID 0000.0001) %MON extforcing_qnet_mean         =   0.0000000000000E+00
(PID.TID 0000.0001) %MON extforcing_qnet_sd           =   0.0000000000000E+00
(PID.TID 0000.0001) %MON extforcing_qnet_del2         =   0.0000000000000E+00
(PID.TID 0000.0001) %MON extforcing_qsw_max           =   0.0000000000000E+00
(PID.TID 0000.0001) %MON extforcing_qsw_min           =   0.0000000000000E+00
(PID.TID 0000.0001) %MON extforcing_qsw_mean          =   0.0000000000000E+00
(PID.TID 0000.0001) %MON extforcing_qsw_sd            =   0.0000000000000E+00
(PID.TID 0000.0001) %MON extforcing_qsw_del2          =   0.0000000000000E+00
(PID.TID 0000.0001) %MON extforcing_empmr_max         =   0.0000000000000E+00
(PID.TID 0000.0001) %MON extforcing_empmr_min         =   0.0000000000000E+00
(PID.TID 0000.0001) %MON extforcing_empmr_mean        =   0.0000000000000E+00
(PID.TID 0000.0001) %MON extforcing_empmr_sd          =   0.0000000000000E+00
(PID.TID 0000.0001) %MON extforcing_empmr_del2        =   0.0000000000000E+00
(PID.TID 0000.0001) %MON extforcing_fu_max            =   0.0000000000000E+00
(PID.TID 0000.0001) %MON extforcing_fu_min            =   0.0000000000000E+00
(PID.TID 0000.0001) %MON extforcing_fu_mean           =   0.0000000000000E+00
(PID.TID 0000.0001) %MON extforcing_fu_sd             =   0.0000000000000E+00
(PID.TID 0000.0001) %MON extforcing_fu_del2           =   0.0000000000000E+00
(PID.TID 0000.0001) %MON extforcing_fv_max            =   0.0000000000000E+00
(PID.TID 0000.0001) %MON extforcing_fv_min            =   0.0000000000000E+00
(PID.TID 0000.0001) %MON extforcing_fv_mean           =   0.0000000000000E+00
(PID.TID 0000.0001) %MON extforcing_fv_sd             =   0.0000000000000E+00
(PID.TID 0000.0001) %MON extforcing_fv_del2           =   0.0000000000000E+00
(PID.TID 0000.0001) %MON advcfl_uvel_max              =   1.7431431619759E-07
(PID.TID 0000.0001) %MON advcfl_vvel_max              =   2.4638970016749E-06
(PID.TID 0000.0001) %MON advcfl_wvel_max              =   1.4383592576856E-05
(PID.TID 0000.0001) %MON advcfl_W_hf_max              =   1.4383592576856E-05
(PID.TID 0000.0001) %MON pe_b_mean                    =   1.0985407875032E-10
(PID.TID 0000.0001) %MON ke_max                       =   2.5678172089036E-07
(PID.TID 0000.0001) %MON ke_mean                      =   1.2407649323826E-08
(PID.TID 0000.0001) %MON ke_vol                       =   4.1711332037233E+19
(PID.TID 0000.0001) %MON vort_r_min                   =  -3.7807834456390E-09
(PID.TID 0000.0001) %MON vort_r_max                   =   2.8130941343738E-09
(PID.TID 0000.0001) %MON vort_a_mean                  =  -1.1967306083850E-20
(PID.TID 0000.0001) %MON vort_a_sd                    =   8.2567010675733E-05
(PID.TID 0000.0001) %MON vort_p_mean                  =  -1.1997782706167E-20
(PID.TID 0000.0001) %MON vort_p_sd                    =   8.3918502658728E-05
(PID.TID 0000.0001) %MON surfExpan_theta_mean         =  -3.9324114045375E-12
(PID.TID 0000.0001) %MON surfExpan_salt_mean          =   0.0000000000000E+00
(PID.TID 0000.0001) // =======================================================
(PID.TID 0000.0001) // End MONITOR dynamic field statistics
(PID.TID 0000.0001) // =======================================================
 cg2d: Sum(rhs),rhsMax =   4.46166523700442E-05  5.14206221601732E-01
(PID.TID 0000.0001)                    cg2d_init_res =    4.00926595897494E-02
(PID.TID 0000.0001)                       cg2d_iters =   101
(PID.TID 0000.0001)                         cg2d_res =    6.91228243891996E-14
 cg3d: Sum(rhs),rhsMax =  -4.93554849767541E-14  3.17133170465110E-02
(PID.TID 0000.0001)                    cg3d_init_res =    3.00743791297160E-01
(PID.TID 0000.0001)                       cg3d_iters =    40
(PID.TID 0000.0001)                         cg3d_res =    1.90019825597569E-04
(PID.TID 0000.0001) // =======================================================
(PID.TID 0000.0001) // Begin MONITOR dynamic field statistics
(PID.TID 0000.0001) // =======================================================
(PID.TID 0000.0001) %MON time_tsnumber                =                    17
(PID.TID 0000.0001) %MON time_secondsf                =   5.1000000000000E+03
(PID.TID 0000.0001) %MON dynstat_eta_max              =   2.2418962934283E-02
(PID.TID 0000.0001) %MON dynstat_eta_min              =  -1.8075562679856E-02
(PID.TID 0000.0001) %MON dynstat_eta_mean             =  -4.4551801352471E-06
(PID.TID 0000.0001) %MON dynstat_eta_sd               =   8.1515966768705E-03
(PID.TID 0000.0001) %MON dynstat_eta_del2             =   3.7349381618505E-03
(PID.TID 0000.0001) %MON dynstat_uvel_max             =   3.7290799220251E-04
(PID.TID 0000.0001) %MON dynstat_uvel_min             =  -3.5157364095793E-04
(PID.TID 0000.0001) %MON dynstat_uvel_mean            =  -3.4225767941774E-08
(PID.TID 0000.0001) %MON dynstat_uvel_sd              =   7.0575006808183E-05
(PID.TID 0000.0001) %MON dynstat_uvel_del2            =   1.8050195413092E-05
(PID.TID 0000.0001) %MON dynstat_vvel_max             =   9.3546120743382E-04
(PID.TID 0000.0001) %MON dynstat_vvel_min             =  -7.8791937219835E-04
(PID.TID 0000.0001) %MON dynstat_vvel_mean            =  -3.9907730787075E-08
(PID.TID 0000.0001) %MON dynstat_vvel_sd              =   1.4755179060830E-04
(PID.TID 0000.0001) %MON dynstat_vvel_del2            =   4.2239264945157E-05
(PID.TID 0000.0001) %MON dynstat_wvel_max             =   1.0070025879999E-03
(PID.TID 0000.0001) %MON dynstat_wvel_min             =  -1.2327766372402E-03
(PID.TID 0000.0001) %MON dynstat_wvel_mean            =   5.3603626445975E-21
(PID.TID 0000.0001) %MON dynstat_wvel_sd              =   2.5223572971147E-04
(PID.TID 0000.0001) %MON dynstat_wvel_del2            =   9.3393201169081E-05
(PID.TID 0000.0001) %MON dynstat_theta_max            =   1.1578986691437E+04
(PID.TID 0000.0001) %MON dynstat_theta_min            =   1.1578985889245E+04
(PID.TID 0000.0001) %MON dynstat_theta_mean           =   1.1578986295156E+04
(PID.TID 0000.0001) %MON dynstat_theta_sd             =   1.2266338131943E-04
(PID.TID 0000.0001) %MON dynstat_theta_del2           =   5.4403821110111E-05
(PID.TID 0000.0001) %MON dynstat_salt_max             =   0.0000000000000E+00
(PID.TID 0000.0001) %MON dynstat_salt_min             =   0.0000000000000E+00
(PID.TID 0000.0001) %MON dynstat_salt_mean            =   0.0000000000000E+00
(PID.TID 0000.0001) %MON dynstat_salt_sd              =   0.0000000000000E+00
(PID.TID 0000.0001) %MON dynstat_salt_del2            =   0.0000000000000E+00
(PID.TID 0000.0001) %MON extforcing_qnet_max          =   0.0000000000000E+00
(PID.TID 0000.0001) %MON extforcing_qnet_min          =   0.0000000000000E+00
(PID.TID 0000.0001) %MON extforcing_qnet_mean         =   0.0000000000000E+00
(PID.TID 0000.0001) %MON extforcing_qnet_sd           =   0.0000000000000E+00
(PID.TID 0000.0001) %MON extforcing_qnet_del2         =   0.0000000000000E+00
(PID.TID 0000.0001) %MON extforcing_qsw_max           =   0.0000000000000E+00
(PID.TID 0000.0001) %MON extforcing_qsw_min           =   0.0000000000000E+00
(PID.TID 0000.0001) %MON extforcing_qsw_mean          =   0.0000000000000E+00
(PID.TID 0000.0001) %MON extforcing_qsw_sd            =   0.0000000000000E+00
(PID.TID 0000.0001) %MON extforcing_qsw_del2          =   0.0000000000000E+00
(PID.TID 0000.0001) %MON extforcing_empmr_max         =   0.0000000000000E+00
(PID.TID 0000.0001) %MON extforcing_empmr_min         =   0.0000000000000E+00
(PID.TID 0000.0001) %MON extforcing_empmr_mean        =   0.0000000000000E+00
(PID.TID 0000.0001) %MON extforcing_empmr_sd          =   0.0000000000000E+00
(PID.TID 0000.0001) %MON extforcing_empmr_del2        =   0.0000000000000E+00
(PID.TID 0000.0001) %MON extforcing_fu_max            =   0.0000000000000E+00
(PID.TID 0000.0001) %MON extforcing_fu_min            =   0.0000000000000E+00
(PID.TID 0000.0001) %MON extforcing_fu_mean           =   0.0000000000000E+00
(PID.TID 0000.0001) %MON extforcing_fu_sd             =   0.0000000000000E+00
(PID.TID 0000.0001) %MON extforcing_fu_del2           =   0.0000000000000E+00
(PID.TID 0000.0001) %MON extforcing_fv_max            =   0.0000000000000E+00
(PID.TID 0000.0001) %MON extforcing_fv_min            =   0.0000000000000E+00
(PID.TID 0000.0001) %MON extforcing_fv_mean           =   0.0000000000000E+00
(PID.TID 0000.0001) %MON extforcing_fv_sd             =   0.0000000000000E+00
(PID.TID 0000.0001) %MON extforcing_fv_del2           =   0.0000000000000E+00
(PID.TID 0000.0001) %MON advcfl_uvel_max              =   1.9140255499438E-07
(PID.TID 0000.0001) %MON advcfl_vvel_max              =   2.5242376334774E-06
(PID.TID 0000.0001) %MON advcfl_wvel_max              =   1.4793319646882E-05
(PID.TID 0000.0001) %MON advcfl_W_hf_max              =   1.4793319646882E-05
(PID.TID 0000.0001) %MON pe_b_mean                    =   1.0864337635768E-10
(PID.TID 0000.0001) %MON ke_max                       =   2.7545425422230E-07
(PID.TID 0000.0001) %MON ke_mean                      =   1.3357472509428E-08
(PID.TID 0000.0001) %MON ke_vol                       =   4.1711332037233E+19
(PID.TID 0000.0001) %MON vort_r_min                   =  -4.0896761128465E-09
(PID.TID 0000.0001) %MON vort_r_max                   =   3.0143113539229E-09
(PID.TID 0000.0001) %MON vort_a_mean                  =   9.8730275191764E-20
(PID.TID 0000.0001) %MON vort_a_sd                    =   8.2567010674616E-05
(PID.TID 0000.0001) %MON vort_p_mean                  =   9.8981707325880E-20
(PID.TID 0000.0001) %MON vort_p_sd                    =   8.3918502775223E-05
(PID.TID 0000.0001) %MON surfExpan_theta_mean         =  -4.8307654936088E-12
(PID.TID 0000.0001) %MON surfExpan_salt_mean          =   0.0000000000000E+00
(PID.TID 0000.0001) // =======================================================
(PID.TID 0000.0001) // End MONITOR dynamic field statistics
(PID.TID 0000.0001) // =======================================================
 cg2d: Sum(rhs),rhsMax =   4.76576669277695E-05  5.08174082881206E-01
(PID.TID 0000.0001)                    cg2d_init_res =    4.00377555107112E-02
(PID.TID 0000.0001)                       cg2d_iters =   101
(PID.TID 0000.0001)                         cg2d_res =    6.99663147875727E-14
 cg3d: Sum(rhs),rhsMax =  -3.80836855107258E-15  3.14990934163497E-02
(PID.TID 0000.0001)                    cg3d_init_res =    2.96593086548577E-01
(PID.TID 0000.0001)                       cg3d_iters =    40
(PID.TID 0000.0001)                         cg3d_res =    1.50272016901809E-04
(PID.TID 0000.0001) // =======================================================
(PID.TID 0000.0001) // Begin MONITOR dynamic field statistics
(PID.TID 0000.0001) // =======================================================
(PID.TID 0000.0001) %MON time_tsnumber                =                    18
(PID.TID 0000.0001) %MON time_secondsf                =   5.4000000000000E+03
(PID.TID 0000.0001) %MON dynstat_eta_max              =   2.2312341095605E-02
(PID.TID 0000.0001) %MON dynstat_eta_min              =  -1.7987456723576E-02
(PID.TID 0000.0001) %MON dynstat_eta_mean             =  -4.7030137615701E-06
(PID.TID 0000.0001) %MON dynstat_eta_sd               =   8.1063831932198E-03
(PID.TID 0000.0001) %MON dynstat_eta_del2             =   3.6970866218981E-03
(PID.TID 0000.0001) %MON dynstat_uvel_max             =   4.0352185861950E-04
(PID.TID 0000.0001) %MON dynstat_uvel_min             =  -3.7925031326145E-04
(PID.TID 0000.0001) %MON dynstat_uvel_mean            =  -3.4939147520291E-08
(PID.TID 0000.0001) %MON dynstat_uvel_sd              =   7.6389500377525E-05
(PID.TID 0000.0001) %MON dynstat_uvel_del2            =   1.8883968546350E-05
(PID.TID 0000.0001) %MON dynstat_vvel_max             =   9.5608239622902E-04
(PID.TID 0000.0001) %MON dynstat_vvel_min             =  -8.0866880038241E-04
(PID.TID 0000.0001) %MON dynstat_vvel_mean            =  -7.7154740733436E-08
(PID.TID 0000.0001) %MON dynstat_vvel_sd              =   1.5117765967081E-04
(PID.TID 0000.0001) %MON dynstat_vvel_del2            =   4.2107007050549E-05
(PID.TID 0000.0001) %MON dynstat_wvel_max             =   1.0337859454930E-03
(PID.TID 0000.0001) %MON dynstat_wvel_min             =  -1.2639044180678E-03
(PID.TID 0000.0001) %MON dynstat_wvel_mean            =  -2.2099740727727E-21
(PID.TID 0000.0001) %MON dynstat_wvel_sd              =   2.5826761184761E-04
(PID.TID 0000.0001) %MON dynstat_wvel_del2            =   9.3701102615083E-05
(PID.TID 0000.0001) %MON dynstat_theta_max            =   1.1578986684757E+04
(PID.TID 0000.0001) %MON dynstat_theta_min            =   1.1578985895121E+04
(PID.TID 0000.0001) %MON dynstat_theta_mean           =   1.1578986295156E+04
(PID.TID 0000.0001) %MON dynstat_theta_sd             =   1.1983594941879E-04
(PID.TID 0000.0001) %MON dynstat_theta_del2           =   5.2762960553166E-05
(PID.TID 0000.0001) %MON dynstat_salt_max             =   0.0000000000000E+00
(PID.TID 0000.0001) %MON dynstat_salt_min             =   0.0000000000000E+00
(PID.TID 0000.0001) %MON dynstat_salt_mean            =   0.0000000000000E+00
(PID.TID 0000.0001) %MON dynstat_salt_sd              =   0.0000000000000E+00
(PID.TID 0000.0001) %MON dynstat_salt_del2            =   0.0000000000000E+00
(PID.TID 0000.0001) %MON extforcing_qnet_max          =   0.0000000000000E+00
(PID.TID 0000.0001) %MON extforcing_qnet_min          =   0.0000000000000E+00
(PID.TID 0000.0001) %MON extforcing_qnet_mean         =   0.0000000000000E+00
(PID.TID 0000.0001) %MON extforcing_qnet_sd           =   0.0000000000000E+00
(PID.TID 0000.0001) %MON extforcing_qnet_del2         =   0.0000000000000E+00
(PID.TID 0000.0001) %MON extforcing_qsw_max           =   0.0000000000000E+00
(PID.TID 0000.0001) %MON extforcing_qsw_min           =   0.0000000000000E+00
(PID.TID 0000.0001) %MON extforcing_qsw_mean          =   0.0000000000000E+00
(PID.TID 0000.0001) %MON extforcing_qsw_sd            =   0.0000000000000E+00
(PID.TID 0000.0001) %MON extforcing_qsw_del2          =   0.0000000000000E+00
(PID.TID 0000.0001) %MON extforcing_empmr_max         =   0.0000000000000E+00
(PID.TID 0000.0001) %MON extforcing_empmr_min         =   0.0000000000000E+00
(PID.TID 0000.0001) %MON extforcing_empmr_mean        =   0.0000000000000E+00
(PID.TID 0000.0001) %MON extforcing_empmr_sd          =   0.0000000000000E+00
(PID.TID 0000.0001) %MON extforcing_empmr_del2        =   0.0000000000000E+00
(PID.TID 0000.0001) %MON extforcing_fu_max            =   0.0000000000000E+00
(PID.TID 0000.0001) %MON extforcing_fu_min            =   0.0000000000000E+00
(PID.TID 0000.0001) %MON extforcing_fu_mean           =   0.0000000000000E+00
(PID.TID 0000.0001) %MON extforcing_fu_sd             =   0.0000000000000E+00
(PID.TID 0000.0001) %MON extforcing_fu_del2           =   0.0000000000000E+00
(PID.TID 0000.0001) %MON extforcing_fv_max            =   0.0000000000000E+00
(PID.TID 0000.0001) %MON extforcing_fv_min            =   0.0000000000000E+00
(PID.TID 0000.0001) %MON extforcing_fv_mean           =   0.0000000000000E+00
(PID.TID 0000.0001) %MON extforcing_fv_sd             =   0.0000000000000E+00
(PID.TID 0000.0001) %MON extforcing_fv_del2           =   0.0000000000000E+00
(PID.TID 0000.0001) %MON advcfl_uvel_max              =   2.0882697558636E-07
(PID.TID 0000.0001) %MON advcfl_vvel_max              =   2.5798816092941E-06
(PID.TID 0000.0001) %MON advcfl_wvel_max              =   1.5166853016814E-05
(PID.TID 0000.0001) %MON advcfl_W_hf_max              =   1.5166853016814E-05
(PID.TID 0000.0001) %MON pe_b_mean                    =   1.0744152442063E-10
(PID.TID 0000.0001) %MON ke_max                       =   2.9386557607246E-07
(PID.TID 0000.0001) %MON ke_mean                      =   1.4325386741927E-08
(PID.TID 0000.0001) %MON ke_vol                       =   4.1711332037233E+19
(PID.TID 0000.0001) %MON vort_r_min                   =  -4.3960501442475E-09
(PID.TID 0000.0001) %MON vort_r_max                   =   3.2103479671979E-09
(PID.TID 0000.0001) %MON vort_a_mean                  =  -2.0942785646738E-20
(PID.TID 0000.0001) %MON vort_a_sd                    =   8.2567010673812E-05
(PID.TID 0000.0001) %MON vort_p_mean                  =  -2.0996119735793E-20
(PID.TID 0000.0001) %MON vort_p_sd                    =   8.3918502895216E-05
(PID.TID 0000.0001) %MON surfExpan_theta_mean         =  -5.8282949660737E-12
(PID.TID 0000.0001) %MON surfExpan_salt_mean          =   0.0000000000000E+00
(PID.TID 0000.0001) // =======================================================
(PID.TID 0000.0001) // End MONITOR dynamic field statistics
(PID.TID 0000.0001) // =======================================================
 Compute Stats, Diag. #  23  ETAN      vol(  0 ): 8.342E+13  Parms: SM      M1      
 Compute Stats, Diag. #  30  UVEL      vol(  0 ): 2.503E+20  Parms: UU   031MR      
 Compute Stats, Diag. #  31  VVEL      vol(  0 ): 2.498E+20  Parms: VV   030MR      
 Compute Stats, Diag. #  32  WVEL      vol(  0 ): 2.492E+20  Parms: WM      LR      
 Compute Stats, Diag. #  26  THETA     vol(  0 ): 2.503E+20  Parms: SM      MR      
(PID.TID 0000.0001) %CHECKPOINT        18 ckptA
(PID.TID 0000.0001) DIAGSTATS_CLOSE_IO: close file: dynStDiag.0000000000.txt , unit=     9
(PID.TID 0000.0001)   Seconds in section "ALL                    [THE_MODEL_MAIN]":
(PID.TID 0000.0001)           User time:  33.1979516
(PID.TID 0000.0001)         System time:  2.44762792
(PID.TID 0000.0001)     Wall clock time:  35.701365
(PID.TID 0000.0001)          No. starts: 1
(PID.TID 0000.0001)           No. stops: 1
(PID.TID 0000.0001)   Seconds in section "INITIALISE_FIXED       [THE_MODEL_MAIN]":
(PID.TID 0000.0001)           User time:  0.456930006
(PID.TID 0000.0001)         System time:  0.269958993
(PID.TID 0000.0001)     Wall clock time:  0.729304075
(PID.TID 0000.0001)          No. starts: 1
(PID.TID 0000.0001)           No. stops: 1
(PID.TID 0000.0001)   Seconds in section "THE_MAIN_LOOP          [THE_MODEL_MAIN]":
(PID.TID 0000.0001)           User time:  32.1421136
(PID.TID 0000.0001)         System time:  1.07583702
(PID.TID 0000.0001)     Wall clock time:  33.269835
(PID.TID 0000.0001)          No. starts: 1
(PID.TID 0000.0001)           No. stops: 1
(PID.TID 0000.0001)   Seconds in section "INITIALISE_VARIA    [THE_MAIN_LOOP]":
(PID.TID 0000.0001)           User time:  0.155976981
(PID.TID 0000.0001)         System time:  0.0519919991
(PID.TID 0000.0001)     Wall clock time:  0.235957861
(PID.TID 0000.0001)          No. starts: 1
(PID.TID 0000.0001)           No. stops: 1
(PID.TID 0000.0001)   Seconds in section "MAIN LOOP           [THE_MAIN_LOOP]":
(PID.TID 0000.0001)           User time:  31.6691846
(PID.TID 0000.0001)         System time:  0.568913996
(PID.TID 0000.0001)     Wall clock time:  32.2623122
(PID.TID 0000.0001)          No. starts: 1
(PID.TID 0000.0001)           No. stops: 1
(PID.TID 0000.0001)   Seconds in section "FORWARD_STEP        [THE_MAIN_LOOP]":
(PID.TID 0000.0001)           User time:  31.6681852
(PID.TID 0000.0001)         System time:  0.568913996
(PID.TID 0000.0001)     Wall clock time:  32.2616169
(PID.TID 0000.0001)          No. starts: 18
(PID.TID 0000.0001)           No. stops: 18
(PID.TID 0000.0001)   Seconds in section "DO_STATEVARS_DIAGS  [FORWARD_STEP]":
(PID.TID 0000.0001)           User time:  0.124977946
(PID.TID 0000.0001)         System time:  0.000999987125
(PID.TID 0000.0001)     Wall clock time:  0.127628565
(PID.TID 0000.0001)          No. starts: 54
(PID.TID 0000.0001)           No. stops: 54
(PID.TID 0000.0001)   Seconds in section "LOAD_FIELDS_DRIVER  [FORWARD_STEP]":
(PID.TID 0000.0001)           User time:  0.00199842453
(PID.TID 0000.0001)         System time:  0.
(PID.TID 0000.0001)     Wall clock time:  0.00185132027
(PID.TID 0000.0001)          No. starts: 18
(PID.TID 0000.0001)           No. stops: 18
(PID.TID 0000.0001)   Seconds in section "EXTERNAL_FLDS_LOAD [LOAD_FLDS_DRIVER]":
(PID.TID 0000.0001)           User time:  0.000999450684
(PID.TID 0000.0001)         System time:  0.
(PID.TID 0000.0001)     Wall clock time:  0.000633716583
(PID.TID 0000.0001)          No. starts: 18
(PID.TID 0000.0001)           No. stops: 18
(PID.TID 0000.0001)   Seconds in section "DO_ATMOSPHERIC_PHYS [FORWARD_STEP]":
(PID.TID 0000.0001)           User time:  0.
(PID.TID 0000.0001)         System time:  0.000999987125
(PID.TID 0000.0001)     Wall clock time:  0.00061750412
(PID.TID 0000.0001)          No. starts: 18
(PID.TID 0000.0001)           No. stops: 18
(PID.TID 0000.0001)   Seconds in section "DO_OCEANIC_PHYS     [FORWARD_STEP]":
(PID.TID 0000.0001)           User time:  0.550923645
(PID.TID 0000.0001)         System time:  0.000999987125
(PID.TID 0000.0001)     Wall clock time:  0.552743435
(PID.TID 0000.0001)          No. starts: 18
(PID.TID 0000.0001)           No. stops: 18
(PID.TID 0000.0001)   Seconds in section "DYNAMICS            [FORWARD_STEP]":
(PID.TID 0000.0001)           User time:  8.43971384
(PID.TID 0000.0001)         System time:  0.00799804926
(PID.TID 0000.0001)     Wall clock time:  8.4532373
(PID.TID 0000.0001)          No. starts: 18
(PID.TID 0000.0001)           No. stops: 18
(PID.TID 0000.0001)   Seconds in section "CALC_GW          [DYNAMICS]":
(PID.TID 0000.0001)           User time:  1.65374637
(PID.TID 0000.0001)         System time:  0.000999033451
(PID.TID 0000.0001)     Wall clock time:  1.6516943
(PID.TID 0000.0001)          No. starts: 72
(PID.TID 0000.0001)           No. stops: 72
(PID.TID 0000.0001)   Seconds in section "SOLVE_FOR_PRESSURE  [FORWARD_STEP]":
(PID.TID 0000.0001)           User time:  16.0455633
(PID.TID 0000.0001)         System time:  0.0189970136
(PID.TID 0000.0001)     Wall clock time:  16.078764
(PID.TID 0000.0001)          No. starts: 18
(PID.TID 0000.0001)           No. stops: 18
(PID.TID 0000.0001)   Seconds in section "CG3D   [SOLVE_FOR_PRESSURE]":
(PID.TID 0000.0001)           User time:  15.3626685
(PID.TID 0000.0001)         System time:  0.0179970264
(PID.TID 0000.0001)     Wall clock time:  15.397048
(PID.TID 0000.0001)          No. starts: 18
(PID.TID 0000.0001)           No. stops: 18
(PID.TID 0000.0001)   Seconds in section "MOM_CORRECTION_STEP [FORWARD_STEP]":
(PID.TID 0000.0001)           User time:  0.36594367
(PID.TID 0000.0001)         System time:  0.
(PID.TID 0000.0001)     Wall clock time:  0.366859198
(PID.TID 0000.0001)          No. starts: 18
(PID.TID 0000.0001)           No. stops: 18
(PID.TID 0000.0001)   Seconds in section "BLOCKING_EXCHANGES  [FORWARD_STEP]":
(PID.TID 0000.0001)           User time:  0.890859842
(PID.TID 0000.0001)         System time:  0.
(PID.TID 0000.0001)     Wall clock time:  0.886134148
(PID.TID 0000.0001)          No. starts: 36
(PID.TID 0000.0001)           No. stops: 36
(PID.TID 0000.0001)   Seconds in section "THERMODYNAMICS      [FORWARD_STEP]":
(PID.TID 0000.0001)           User time:  3.86341071
(PID.TID 0000.0001)         System time:  0.000999987125
(PID.TID 0000.0001)     Wall clock time:  3.86550021
(PID.TID 0000.0001)          No. starts: 18
(PID.TID 0000.0001)           No. stops: 18
(PID.TID 0000.0001)   Seconds in section "TRC_CORRECTION_STEP [FORWARD_STEP]":
(PID.TID 0000.0001)           User time:  0.0549938679
(PID.TID 0000.0001)         System time:  0.
(PID.TID 0000.0001)     Wall clock time:  0.056627512
(PID.TID 0000.0001)          No. starts: 18
(PID.TID 0000.0001)           No. stops: 18
(PID.TID 0000.0001)   Seconds in section "MONITOR             [FORWARD_STEP]":
(PID.TID 0000.0001)           User time:  0.959856272
(PID.TID 0000.0001)         System time:  0.000999987125
(PID.TID 0000.0001)     Wall clock time:  0.962805986
(PID.TID 0000.0001)          No. starts: 18
(PID.TID 0000.0001)           No. stops: 18
(PID.TID 0000.0001)   Seconds in section "DO_THE_MODEL_IO     [FORWARD_STEP]":
(PID.TID 0000.0001)           User time:  0.359944344
(PID.TID 0000.0001)         System time:  0.535919011
(PID.TID 0000.0001)     Wall clock time:  0.897223949
(PID.TID 0000.0001)          No. starts: 18
(PID.TID 0000.0001)           No. stops: 18
(PID.TID 0000.0001)   Seconds in section "DO_WRITE_PICKUP     [FORWARD_STEP]":
(PID.TID 0000.0001)           User time:  0.00100040436
(PID.TID 0000.0001)         System time:  0.
(PID.TID 0000.0001)     Wall clock time:  0.000659942627
(PID.TID 0000.0001)          No. starts: 18
(PID.TID 0000.0001)           No. stops: 18
(PID.TID 0000.0001)   Seconds in section "DO_WRITE_PICKUP        [THE_MODEL_MAIN]":
(PID.TID 0000.0001)           User time:  0.59790802
(PID.TID 0000.0001)         System time:  1.10183191
(PID.TID 0000.0001)     Wall clock time:  1.70207
(PID.TID 0000.0001)          No. starts: 1
(PID.TID 0000.0001)           No. stops: 1
(PID.TID 0000.0001) // ======================================================
(PID.TID 0000.0001) // Tile <-> Tile communication statistics
(PID.TID 0000.0001) // ======================================================
(PID.TID 0000.0001) // o Tile number: 000001
(PID.TID 0000.0001) //         No. X exchanges =              0
(PID.TID 0000.0001) //            Max. X spins =              0
(PID.TID 0000.0001) //            Min. X spins =     1000000000
(PID.TID 0000.0001) //          Total. X spins =              0
(PID.TID 0000.0001) //            Avg. X spins =       0.00E+00
(PID.TID 0000.0001) //         No. Y exchanges =              0
(PID.TID 0000.0001) //            Max. Y spins =              0
(PID.TID 0000.0001) //            Min. Y spins =     1000000000
(PID.TID 0000.0001) //          Total. Y spins =              0
(PID.TID 0000.0001) //            Avg. Y spins =       0.00E+00
(PID.TID 0000.0001) // o Tile number: 000002
(PID.TID 0000.0001) //         No. X exchanges =              0
(PID.TID 0000.0001) //            Max. X spins =              0
(PID.TID 0000.0001) //            Min. X spins =     1000000000
(PID.TID 0000.0001) //          Total. X spins =              0
(PID.TID 0000.0001) //            Avg. X spins =       0.00E+00
(PID.TID 0000.0001) //         No. Y exchanges =              0
(PID.TID 0000.0001) //            Max. Y spins =              0
(PID.TID 0000.0001) //            Min. Y spins =     1000000000
(PID.TID 0000.0001) //          Total. Y spins =              0
(PID.TID 0000.0001) //            Avg. Y spins =       0.00E+00
(PID.TID 0000.0001) // o Tile number: 000003
(PID.TID 0000.0001) //         No. X exchanges =              0
(PID.TID 0000.0001) //            Max. X spins =              0
(PID.TID 0000.0001) //            Min. X spins =     1000000000
(PID.TID 0000.0001) //          Total. X spins =              0
(PID.TID 0000.0001) //            Avg. X spins =       0.00E+00
(PID.TID 0000.0001) //         No. Y exchanges =              0
(PID.TID 0000.0001) //            Max. Y spins =              0
(PID.TID 0000.0001) //            Min. Y spins =     1000000000
(PID.TID 0000.0001) //          Total. Y spins =              0
(PID.TID 0000.0001) //            Avg. Y spins =       0.00E+00
(PID.TID 0000.0001) // o Tile number: 000004
(PID.TID 0000.0001) //         No. X exchanges =              0
(PID.TID 0000.0001) //            Max. X spins =              0
(PID.TID 0000.0001) //            Min. X spins =     1000000000
(PID.TID 0000.0001) //          Total. X spins =              0
(PID.TID 0000.0001) //            Avg. X spins =       0.00E+00
(PID.TID 0000.0001) //         No. Y exchanges =              0
(PID.TID 0000.0001) //            Max. Y spins =              0
(PID.TID 0000.0001) //            Min. Y spins =     1000000000
(PID.TID 0000.0001) //          Total. Y spins =              0
(PID.TID 0000.0001) //            Avg. Y spins =       0.00E+00
(PID.TID 0000.0001) // o Thread number: 000001
(PID.TID 0000.0001) //            No. barriers =          68952
(PID.TID 0000.0001) //      Max. barrier spins =              1
(PID.TID 0000.0001) //      Min. barrier spins =              1
(PID.TID 0000.0001) //     Total barrier spins =          68952
(PID.TID 0000.0001) //      Avg. barrier spins =       1.00E+00
