(PID.TID 0000.0001) 
(PID.TID 0000.0001) // ======================================================
(PID.TID 0000.0001) //                      MITgcm UV
(PID.TID 0000.0001) //                      =========
(PID.TID 0000.0001) // ======================================================
(PID.TID 0000.0001) // execution environment starting up...
(PID.TID 0000.0001) 
(PID.TID 0000.0001) // MITgcmUV version:  checkpoint68t
(PID.TID 0000.0001) // Build user:        jm_c
(PID.TID 0000.0001) // Build host:        villon
(PID.TID 0000.0001) // Build date:        Wed Nov  1 17:09:42 EDT 2023
(PID.TID 0000.0001) 
(PID.TID 0000.0001) // =======================================================
(PID.TID 0000.0001) // Execution Environment parameter file "eedata"
(PID.TID 0000.0001) // =======================================================
(PID.TID 0000.0001) ># Example "eedata" file
(PID.TID 0000.0001) ># Lines beginning "#" are comments
(PID.TID 0000.0001) >#  nTx      :: No. threads per process in X
(PID.TID 0000.0001) >#  nTy      :: No. threads per process in Y
(PID.TID 0000.0001) ># debugMode :: print debug msg (sequence of S/R calls)
(PID.TID 0000.0001) > &EEPARMS
(PID.TID 0000.0001) > useCubedSphereExchange=.TRUE.,
(PID.TID 0000.0001) > /
(PID.TID 0000.0001) ># Note: Some systems use & as the namelist terminator (as shown here).
(PID.TID 0000.0001) >#       Other systems use a / character.
(PID.TID 0000.0001) 
(PID.TID 0000.0001) // =======================================================
(PID.TID 0000.0001) // Computational Grid Specification ( see files "SIZE.h" )
(PID.TID 0000.0001) //                                  ( and "eedata"       )
(PID.TID 0000.0001) // =======================================================
(PID.TID 0000.0001)      nPx =    1 ; /* No. processes in X */
(PID.TID 0000.0001)      nPy =    1 ; /* No. processes in Y */
(PID.TID 0000.0001)      nSx =    6 ; /* No. tiles in X per process */
(PID.TID 0000.0001)      nSy =    1 ; /* No. tiles in Y per process */
(PID.TID 0000.0001)      sNx =   32 ; /* Tile size in X */
(PID.TID 0000.0001)      sNy =   32 ; /* Tile size in Y */
(PID.TID 0000.0001)      OLx =    2 ; /* Tile overlap distance in X */
(PID.TID 0000.0001)      OLy =    2 ; /* Tile overlap distance in Y */
(PID.TID 0000.0001)      nTx =    1 ; /* No. threads in X per process */
(PID.TID 0000.0001)      nTy =    1 ; /* No. threads in Y per process */
(PID.TID 0000.0001)       Nr =    1 ; /* No. levels in the vertical   */
(PID.TID 0000.0001)       Nx =  192 ; /* Total domain size in X ( = nPx*nSx*sNx ) */
(PID.TID 0000.0001)       Ny =   32 ; /* Total domain size in Y ( = nPy*nSy*sNy ) */
(PID.TID 0000.0001)   nTiles =    6 ; /* Total no. tiles per process ( = nSx*nSy ) */
(PID.TID 0000.0001)   nProcs =    1 ; /* Total no. processes ( = nPx*nPy ) */
(PID.TID 0000.0001) nThreads =    1 ; /* Total no. threads per process ( = nTx*nTy ) */
(PID.TID 0000.0001) usingMPI =    F ; /* Flag used to control whether MPI is in use */
(PID.TID 0000.0001)                   /*  note: To execute a program with MPI calls */
(PID.TID 0000.0001)                   /*  it must be launched appropriately e.g     */
(PID.TID 0000.0001)                   /*  "mpirun -np 64 ......"                    */
(PID.TID 0000.0001) useCoupler=   F ; /* Flag used to control communications with   */
(PID.TID 0000.0001)                   /*  other model components, through a coupler */
(PID.TID 0000.0001) useNest2W_parent =    F ;/* Control 2-W Nesting comm */
(PID.TID 0000.0001) useNest2W_child  =    F ;/* Control 2-W Nesting comm */
(PID.TID 0000.0001) debugMode =    F ; /* print debug msg. (sequence of S/R calls)  */
(PID.TID 0000.0001) printMapIncludesZeros=    F ; /* print zeros in Std.Output maps */
(PID.TID 0000.0001) maxLengthPrt1D=   65 /* maxLength of 1D array printed to StdOut */
(PID.TID 0000.0001) 
(PID.TID 0000.0001) // ======================================================
(PID.TID 0000.0001) // Mapping of tiles to threads
(PID.TID 0000.0001) // ======================================================
(PID.TID 0000.0001) // -o- Thread   1, tiles (   1:   6,   1:   1)
(PID.TID 0000.0001) 
(PID.TID 0000.0001) W2_READPARMS: opening data.exch2
(PID.TID 0000.0001)  OPEN_COPY_DATA_FILE: opening file data.exch2
(PID.TID 0000.0001) // =======================================================
(PID.TID 0000.0001) // Parameter file "data.exch2"
(PID.TID 0000.0001) // =======================================================
(PID.TID 0000.0001) ># EXCH2 Package: Wrapper-2 User Choice
(PID.TID 0000.0001) >#--------------------
(PID.TID 0000.0001) >#  preDefTopol   :: pre-defined Topology selector:
(PID.TID 0000.0001) >#                :: = 0 : topology defined from processing "data.exch2";
(PID.TID 0000.0001) >#                :: = 1 : simple, single facet topology;
(PID.TID 0000.0001) >#                :: = 2 : customized topology (w2_set_myown_facets)
(PID.TID 0000.0001) >#                :: = 3 : 6-facet Cube (3 face-dims: nRed, nGreen, nBlue).
(PID.TID 0000.0001) >#  dimsFacets    :: facet pair of dimensions (n1x,n1y, n2x,n2y ...)
(PID.TID 0000.0001) >#  facetEdgeLink :: Face-Edge connectivity map:
(PID.TID 0000.0001) >#    facetEdgeLink(i,j)=XX.1 : face(j)-edge(i) (i=1,2,3,4 <==> N,S,E,W)
(PID.TID 0000.0001) >#    is connected to Northern edge of face "XX" ; similarly,
(PID.TID 0000.0001) >#    = XX.2 : to Southern.E, XX.3 = Eastern.E, XX.4 = Western.E of face "XX"
(PID.TID 0000.0001) >#  blankList     :: List of "blank" tiles
(PID.TID 0000.0001) >#  W2_mapIO      :: global map IO selector (-1 = old type ; 0 = 1 long line in X
(PID.TID 0000.0001) >#                :: 1 = compact, mostly in Y dir)
(PID.TID 0000.0001) >#  W2_printMsg   :: option for information messages printing
(PID.TID 0000.0001) >#                :: <0 : write to log file ; =0 : minimum print ;
(PID.TID 0000.0001) >#                :: =1 : no duplicated print ; =2 : all processes do print
(PID.TID 0000.0001) >#--------------------
(PID.TID 0000.0001) > &W2_EXCH2_PARM01
(PID.TID 0000.0001) ># W2_printMsg= 0,
(PID.TID 0000.0001) >  W2_mapIO   = 1,
(PID.TID 0000.0001) > /
(PID.TID 0000.0001) 
(PID.TID 0000.0001) W2_READPARMS: finished reading data.exch2
(PID.TID 0000.0001) W2_useE2ioLayOut=    T ;/* T: use Exch2 glob IO map; F: use model default */
(PID.TID 0000.0001) W2_mapIO        =   1 ; /* select option for Exch2 global-IO map */
(PID.TID 0000.0001) W2_printMsg     =  -1 ; /* select option for printing information */
(PID.TID 0000.0001) ===== Start setting W2 TOPOLOGY:
(PID.TID 0000.0001)  write to log-file: w2_tile_topology.0000.log
(PID.TID 0000.0001) =====       setting W2 TOPOLOGY: Done
(PID.TID 0000.0001) 
(PID.TID 0000.0001)  INI_PARMS: opening model parameter file "data"
(PID.TID 0000.0001)  OPEN_COPY_DATA_FILE: opening file data
(PID.TID 0000.0001) // =======================================================
(PID.TID 0000.0001) // Parameter file "data"
(PID.TID 0000.0001) // =======================================================
(PID.TID 0000.0001) ># ====================
(PID.TID 0000.0001) ># | Model parameters |
(PID.TID 0000.0001) ># ====================
(PID.TID 0000.0001) >#
(PID.TID 0000.0001) ># Continuous equation parameters
(PID.TID 0000.0001) > &PARM01
(PID.TID 0000.0001) > tRef=300.,
(PID.TID 0000.0001) > sRef=0.,
(PID.TID 0000.0001) > viscAr=0.,
(PID.TID 0000.0001) > viscAh=0.,
(PID.TID 0000.0001) > viscA4=0.,
(PID.TID 0000.0001) > no_slip_sides=.FALSE.,
(PID.TID 0000.0001) > no_slip_bottom=.FALSE.,
(PID.TID 0000.0001) > diffKrS=0.,
(PID.TID 0000.0001) > diffKhS=0.,
(PID.TID 0000.0001) > diffK4S=0.,
(PID.TID 0000.0001) > buoyancyRelation='ATMOSPHERIC',
(PID.TID 0000.0001) > eosType='IDEALG',
(PID.TID 0000.0001) > rotationPeriod=108000.,
(PID.TID 0000.0001) > gravity=9.81,
(PID.TID 0000.0001) > rhoConst=1.0,
(PID.TID 0000.0001) > rigidLid=.FALSE.,
(PID.TID 0000.0001) > implicitFreeSurface=.TRUE.,
(PID.TID 0000.0001) > vectorInvariantMomentum=.TRUE.,
(PID.TID 0000.0001) > tempStepping=.FALSE.,
(PID.TID 0000.0001) > saltStepping=.TRUE.,
(PID.TID 0000.0001) >#- I/O params:
(PID.TID 0000.0001) > readBinaryPrec=64,
(PID.TID 0000.0001) > writeBinaryPrec=64,
(PID.TID 0000.0001) >#globalFiles=.TRUE.,
(PID.TID 0000.0001) > /
(PID.TID 0000.0001) >
(PID.TID 0000.0001) ># Elliptic solver parameters
(PID.TID 0000.0001) > &PARM02
(PID.TID 0000.0001) > cg2dMaxIters=600,
(PID.TID 0000.0001) > cg2dTargetResidual=1.E-12,
(PID.TID 0000.0001) > /
(PID.TID 0000.0001) >
(PID.TID 0000.0001) ># Time stepping parameters
(PID.TID 0000.0001) > &PARM03
(PID.TID 0000.0001) > nIter0=0,
(PID.TID 0000.0001) >#nTimeSteps=1920,
(PID.TID 0000.0001) > abEps=0.1,
(PID.TID 0000.0001) > deltaT=450.,
(PID.TID 0000.0001) > cAdjFreq=0.,
(PID.TID 0000.0001) > pChkptFreq=0.,
(PID.TID 0000.0001) > chkptFreq=0.,
(PID.TID 0000.0001) >#dumpFreq= 43200.,
(PID.TID 0000.0001) >#monitorFreq=10800.,
(PID.TID 0000.0001) > nTimeSteps=25,
(PID.TID 0000.0001) > dumpFreq= 10800.,
(PID.TID 0000.0001) > monitorFreq=1.,
(PID.TID 0000.0001) > /
(PID.TID 0000.0001) >
(PID.TID 0000.0001) ># Gridding parameters
(PID.TID 0000.0001) > &PARM04
(PID.TID 0000.0001) > usingCurvilinearGrid=.TRUE.,
(PID.TID 0000.0001) >#horizGridFile='grid_cs32',
(PID.TID 0000.0001) >#horizGridFile='dxC1_dXYa',
(PID.TID 0000.0001) > radius_fromHorizGrid=6370.E3,
(PID.TID 0000.0001) > rSphere=5500.4E3,
(PID.TID 0000.0001) > delR=1.E5,
(PID.TID 0000.0001) > /
(PID.TID 0000.0001) >
(PID.TID 0000.0001) ># Input datasets
(PID.TID 0000.0001) > &PARM05
(PID.TID 0000.0001) >#uVelInitFile=  'U_init.bin',
(PID.TID 0000.0001) >#vVelInitFile=  'V_init.bin',
(PID.TID 0000.0001) >#pSurfInitFile='Eta_ini.bin',
(PID.TID 0000.0001) > hydrogSaltFile='S_init.bin',
(PID.TID 0000.0001) > /
(PID.TID 0000.0001) 
(PID.TID 0000.0001)  INI_PARMS ; starts to read PARM01
(PID.TID 0000.0001)  INI_PARMS ; read PARM01 : OK
(PID.TID 0000.0001)  INI_PARMS ; starts to read PARM02
(PID.TID 0000.0001)  INI_PARMS ; read PARM02 : OK
(PID.TID 0000.0001)  INI_PARMS ; starts to read PARM03
(PID.TID 0000.0001)  INI_PARMS ; read PARM03 : OK
(PID.TID 0000.0001)  INI_PARMS ; starts to read PARM04
(PID.TID 0000.0001)  INI_PARMS ; read PARM04 : OK
(PID.TID 0000.0001)  INI_PARMS ; starts to read PARM05
(PID.TID 0000.0001)  INI_PARMS ; read PARM05 : OK
(PID.TID 0000.0001)  INI_PARMS: finished reading file "data"
(PID.TID 0000.0001)  PACKAGES_BOOT: opening data.pkg
(PID.TID 0000.0001)  OPEN_COPY_DATA_FILE: opening file data.pkg
(PID.TID 0000.0001) // =======================================================
(PID.TID 0000.0001) // Parameter file "data.pkg"
(PID.TID 0000.0001) // =======================================================
(PID.TID 0000.0001) ># Packages
(PID.TID 0000.0001) > &PACKAGES
(PID.TID 0000.0001) > useDiagnostics=.TRUE.,
(PID.TID 0000.0001) > /
(PID.TID 0000.0001) 
(PID.TID 0000.0001)  PACKAGES_BOOT: finished reading data.pkg
(PID.TID 0000.0001)  PACKAGES_BOOT: On/Off package Summary
 --------  pkgs with a standard "usePKG" On/Off switch in "data.pkg":  --------
 pkg/diagnostics          compiled   and   used ( useDiagnostics           = T )
 -------- pkgs without standard "usePKG" On/Off switch in "data.pkg":  --------
 pkg/generic_advdiff      compiled   and   used ( useGAD                   = T )
 pkg/mom_common           compiled   and   used ( momStepping              = T )
 pkg/mom_vecinv           compiled   and   used ( +vectorInvariantMomentum = T )
 pkg/monitor              compiled   and   used ( monitorFreq > 0.         = T )
 pkg/debug                compiled but not used ( debugMode                = F )
 pkg/exch2                compiled   and   used
 pkg/rw                   compiled   and   used
 pkg/mdsio                compiled   and   used
(PID.TID 0000.0001)  PACKAGES_BOOT: End of package Summary
(PID.TID 0000.0001) 
(PID.TID 0000.0001)  DIAGNOSTICS_READPARMS: opening data.diagnostics
(PID.TID 0000.0001)  OPEN_COPY_DATA_FILE: opening file data.diagnostics
(PID.TID 0000.0001) // =======================================================
(PID.TID 0000.0001) // Parameter file "data.diagnostics"
(PID.TID 0000.0001) // =======================================================
(PID.TID 0000.0001) ># Diagnostic Package Choices
(PID.TID 0000.0001) >#--------------------
(PID.TID 0000.0001) >#  dumpAtLast (logical): always write output at the end of simulation (default=F)
(PID.TID 0000.0001) >#  diag_mnc   (logical): write to NetCDF files (default=useMNC)
(PID.TID 0000.0001) >#--for each output-stream:
(PID.TID 0000.0001) >#  fileName(n) : prefix of the output file name (max 80c long) for outp.stream n
(PID.TID 0000.0001) >#  frequency(n):< 0 : write snap-shot output every |frequency| seconds
(PID.TID 0000.0001) >#               > 0 : write time-average output every frequency seconds
(PID.TID 0000.0001) >#  timePhase(n)     : write at time = timePhase + multiple of |frequency|
(PID.TID 0000.0001) >#    averagingFreq  : frequency (in s) for periodic averaging interval
(PID.TID 0000.0001) >#    averagingPhase : phase     (in s) for periodic averaging interval
(PID.TID 0000.0001) >#    repeatCycle    : number of averaging intervals in 1 cycle
(PID.TID 0000.0001) >#  levels(:,n) : list of levels to write to file (Notes: declared as REAL)
(PID.TID 0000.0001) >#                when this entry is missing, select all common levels of this list
(PID.TID 0000.0001) >#  fields(:,n) : list of selected diagnostics fields (8.c) in outp.stream n
(PID.TID 0000.0001) >#                (see "available_diagnostics.log" file for the full list of diags)
(PID.TID 0000.0001) >#  missing_value(n) : missing value for real-type fields in output file "n"
(PID.TID 0000.0001) >#  fileFlags(n)     : specific code (8c string) for output file "n"
(PID.TID 0000.0001) >#--------------------
(PID.TID 0000.0001) > &DIAGNOSTICS_LIST
(PID.TID 0000.0001) ># diag_mnc     = .FALSE.,
(PID.TID 0000.0001) >#--
(PID.TID 0000.0001) >  fields(1:2,1)  = 'momKE   ','momVort3',
(PID.TID 0000.0001) >   fileName(1) = 'momDiag',
(PID.TID 0000.0001) >  frequency(1) = -10800.,
(PID.TID 0000.0001) >  timePhase(1) = 0.,
(PID.TID 0000.0001) >#-
(PID.TID 0000.0001) >  fields(1:2,2)  = 'SALT    ','SALTSQ  ',
(PID.TID 0000.0001) >#  fileName(2) = 's_Diag',
(PID.TID 0000.0001) >  frequency(2) = 10800.,
(PID.TID 0000.0001) > /
(PID.TID 0000.0001) >
(PID.TID 0000.0001) >#--------------------
(PID.TID 0000.0001) ># Parameter for Diagnostics of per level statistics:
(PID.TID 0000.0001) >#--------------------
(PID.TID 0000.0001) >#  diagSt_mnc (logical): write stat-diags to NetCDF files (default=diag_mnc)
(PID.TID 0000.0001) >#  diagSt_regMaskFile : file containing the region-mask to read-in
(PID.TID 0000.0001) >#  nSetRegMskFile   : number of region-mask sets within the region-mask file
(PID.TID 0000.0001) >#  set_regMask(i)   : region-mask set-index that identifies the region "i"
(PID.TID 0000.0001) >#  val_regMask(i)   : region "i" identifier value in the region mask
(PID.TID 0000.0001) >#--for each output-stream:
(PID.TID 0000.0001) >#  stat_fName(n) : prefix of the output file name (max 80c long) for outp.stream n
(PID.TID 0000.0001) >#  stat_freq(n):< 0 : write snap-shot output every |stat_freq| seconds
(PID.TID 0000.0001) >#               > 0 : write time-average output every stat_freq seconds
(PID.TID 0000.0001) >#  stat_phase(n)    : write at time = stat_phase + multiple of |stat_freq|
(PID.TID 0000.0001) >#  stat_region(:,n) : list of "regions" (default: 1 region only=global)
(PID.TID 0000.0001) >#  stat_fields(:,n) : list of selected diagnostics fields (8.c) in outp.stream n
(PID.TID 0000.0001) >#                (see "available_diagnostics.log" file for the full list of diags)
(PID.TID 0000.0001) >#--------------------
(PID.TID 0000.0001) > &DIAG_STATIS_PARMS
(PID.TID 0000.0001) > stat_fields(1:7,1)  = 'ETAN    ','UE_VEL_C','VN_VEL_C',
(PID.TID 0000.0001) >                       'momKE   ','momVort3',
(PID.TID 0000.0001) >                       'SALT    ','SALTSQ  ',
(PID.TID 0000.0001) >  stat_fName(1) = 'dynStDiag',
(PID.TID 0000.0001) >   stat_freq(1) = -3600.,
(PID.TID 0000.0001) >  stat_phase(1) = 0.,
(PID.TID 0000.0001) > /
(PID.TID 0000.0001) >
(PID.TID 0000.0001) 
(PID.TID 0000.0001) S/R DIAGNOSTICS_READPARMS, read namelist "diagnostics_list": start
(PID.TID 0000.0001) S/R DIAGNOSTICS_READPARMS, read namelist "diagnostics_list": OK
(PID.TID 0000.0001) S/R DIAGNOSTICS_READPARMS, read namelist "DIAG_STATIS_PARMS": start
(PID.TID 0000.0001) S/R DIAGNOSTICS_READPARMS, read namelist "DIAG_STATIS_PARMS": OK
(PID.TID 0000.0001)  DIAGNOSTICS_READPARMS: global parameter summary:
(PID.TID 0000.0001)  dumpAtLast = /* always write time-ave diags at the end */
(PID.TID 0000.0001)                   F
(PID.TID 0000.0001)     ;
(PID.TID 0000.0001)  diag_mnc =   /* write NetCDF output files */
(PID.TID 0000.0001)                   F
(PID.TID 0000.0001)     ;
(PID.TID 0000.0001)  useMissingValue = /* put MissingValue where mask = 0 */
(PID.TID 0000.0001)                   F
(PID.TID 0000.0001)     ;
(PID.TID 0000.0001)  diagCG_maxIters = /* max number of iters in diag_cg2d */
(PID.TID 0000.0001)                     600
(PID.TID 0000.0001)     ;
(PID.TID 0000.0001)  diagCG_resTarget = /* residual target for diag_cg2d */
(PID.TID 0000.0001)                 1.000000000000000E-12
(PID.TID 0000.0001)     ;
(PID.TID 0000.0001)  diagCG_pcOffDFac = /* preconditioner off-diagonal factor */
(PID.TID 0000.0001)                 9.611687812379854E-01
(PID.TID 0000.0001)     ;
(PID.TID 0000.0001) -----------------------------------------------------
(PID.TID 0000.0001)  DIAGNOSTICS_READPARMS: active diagnostics summary:
(PID.TID 0000.0001) -----------------------------------------------------
(PID.TID 0000.0001) Creating Output Stream: momDiag
(PID.TID 0000.0001) Output Frequency:     -10800.000000 ; Phase:           0.000000
(PID.TID 0000.0001)  Averaging Freq.:          0.000000 , Phase:           0.000000 , Cycle:   1
(PID.TID 0000.0001)  missing value: -9.990000000000E+02
(PID.TID 0000.0001)  Levels:    will be set later
(PID.TID 0000.0001)  Fields:    momKE    momVort3
(PID.TID 0000.0001) -----------------------------------------------------
(PID.TID 0000.0001)  DIAGNOSTICS_READPARMS: statistics diags. summary:
(PID.TID 0000.0001) Creating Stats. Output Stream: dynStDiag
(PID.TID 0000.0001) Output Frequency:      -3600.000000 ; Phase:           0.000000
(PID.TID 0000.0001)  Regions:   0
(PID.TID 0000.0001)  Fields:    ETAN     UE_VEL_C VN_VEL_C momKE    momVort3 SALT     SALTSQ
(PID.TID 0000.0001) -----------------------------------------------------
(PID.TID 0000.0001) 
(PID.TID 0000.0001) SET_PARMS: done
(PID.TID 0000.0001) Enter INI_VERTICAL_GRID: setInterFDr=    T ; setCenterDr=    F
(PID.TID 0000.0001) tile:   1 ; Read from file tile001.mitgrid
(PID.TID 0000.0001)   => xC yC dxF dyF rA xG yG dxV dyU rAz dxC dyC rAw rAs dxG dyG
(PID.TID 0000.0001) tile:   2 ; Read from file tile002.mitgrid
(PID.TID 0000.0001)   => xC yC dxF dyF rA xG yG dxV dyU rAz dxC dyC rAw rAs dxG dyG
(PID.TID 0000.0001) tile:   3 ; Read from file tile003.mitgrid
(PID.TID 0000.0001)   => xC yC dxF dyF rA xG yG dxV dyU rAz dxC dyC rAw rAs dxG dyG
(PID.TID 0000.0001) tile:   4 ; Read from file tile004.mitgrid
(PID.TID 0000.0001)   => xC yC dxF dyF rA xG yG dxV dyU rAz dxC dyC rAw rAs dxG dyG
(PID.TID 0000.0001) tile:   5 ; Read from file tile005.mitgrid
(PID.TID 0000.0001)   => xC yC dxF dyF rA xG yG dxV dyU rAz dxC dyC rAw rAs dxG dyG
(PID.TID 0000.0001) tile:   6 ; Read from file tile006.mitgrid
(PID.TID 0000.0001)   => xC yC dxF dyF rA xG yG dxV dyU rAz dxC dyC rAw rAs dxG dyG
(PID.TID 0000.0001) %MON XC_max                       =   1.7854351589505E+02
(PID.TID 0000.0001) %MON XC_min                       =  -1.7854351589505E+02
(PID.TID 0000.0001) %MON XC_mean                      =   9.4461475678524E-15
(PID.TID 0000.0001) %MON XC_sd                        =   1.0355545336287E+02
(PID.TID 0000.0001) %MON XG_max                       =   1.8000000000000E+02
(PID.TID 0000.0001) %MON XG_min                       =  -1.7708797161002E+02
(PID.TID 0000.0001) %MON XG_mean                      =   1.8457031250000E+00
(PID.TID 0000.0001) %MON XG_sd                        =   1.0356201791685E+02
(PID.TID 0000.0001) %MON DXC_max                      =   2.7955490593009E+05
(PID.TID 0000.0001) %MON DXC_min                      =   9.6420814579145E+04
(PID.TID 0000.0001) %MON DXC_mean                     =   2.4701095473775E+05
(PID.TID 0000.0001) %MON DXC_sd                       =   2.9383758762734E+04
(PID.TID 0000.0001) %MON DXF_max                      =   2.7950967370803E+05
(PID.TID 0000.0001) %MON DXF_min                      =   1.0432320253768E+05
(PID.TID 0000.0001) %MON DXF_mean                     =   2.4701095473775E+05
(PID.TID 0000.0001) %MON DXF_sd                       =   2.9382087559031E+04
(PID.TID 0000.0001) %MON DXG_max                      =   2.7955498803548E+05
(PID.TID 0000.0001) %MON DXG_min                      =   8.7197988068138E+04
(PID.TID 0000.0001) %MON DXG_mean                     =   2.4699572859632E+05
(PID.TID 0000.0001) %MON DXG_sd                       =   2.9466125941873E+04
(PID.TID 0000.0001) %MON DXV_max                      =   2.7960008173054E+05
(PID.TID 0000.0001) %MON DXV_min                      =   6.9210315534094E+04
(PID.TID 0000.0001) %MON DXV_mean                     =   2.4699572859632E+05
(PID.TID 0000.0001) %MON DXV_sd                       =   2.9474796086388E+04
(PID.TID 0000.0001) %MON YC_max                       =   8.7940663871962E+01
(PID.TID 0000.0001) %MON YC_min                       =  -8.7940663871962E+01
(PID.TID 0000.0001) %MON YC_mean                      =   0.0000000000000E+00
(PID.TID 0000.0001) %MON YC_sd                        =   3.8676242969072E+01
(PID.TID 0000.0001) %MON YG_max                       =   9.0000000000000E+01
(PID.TID 0000.0001) %MON YG_min                       =  -9.0000000000000E+01
(PID.TID 0000.0001) %MON YG_mean                      =   1.1842378929335E-15
(PID.TID 0000.0001) %MON YG_sd                        =   3.8676895860710E+01
(PID.TID 0000.0001) %MON DYC_max                      =   2.7955490593009E+05
(PID.TID 0000.0001) %MON DYC_min                      =   9.6420814579145E+04
(PID.TID 0000.0001) %MON DYC_mean                     =   2.4701095473775E+05
(PID.TID 0000.0001) %MON DYC_sd                       =   2.9383758762734E+04
(PID.TID 0000.0001) %MON DYF_max                      =   2.7950967370803E+05
(PID.TID 0000.0001) %MON DYF_min                      =   1.0432320253768E+05
(PID.TID 0000.0001) %MON DYF_mean                     =   2.4701095473775E+05
(PID.TID 0000.0001) %MON DYF_sd                       =   2.9382087559031E+04
(PID.TID 0000.0001) %MON DYG_max                      =   2.7955498803548E+05
(PID.TID 0000.0001) %MON DYG_min                      =   8.7197988068138E+04
(PID.TID 0000.0001) %MON DYG_mean                     =   2.4699572859632E+05
(PID.TID 0000.0001) %MON DYG_sd                       =   2.9466125941873E+04
(PID.TID 0000.0001) %MON DYU_max                      =   2.7960008173054E+05
(PID.TID 0000.0001) %MON DYU_min                      =   6.9210315534094E+04
(PID.TID 0000.0001) %MON DYU_mean                     =   2.4699572859632E+05
(PID.TID 0000.0001) %MON DYU_sd                       =   2.9474796086388E+04
(PID.TID 0000.0001) %MON RA_max                       =   7.8118304008349E+10
(PID.TID 0000.0001) %MON RA_min                       =   1.1058788620845E+10
(PID.TID 0000.0001) %MON RA_mean                      =   6.1879558125803E+10
(PID.TID 0000.0001) %MON RA_sd                        =   1.3029286534623E+10
(PID.TID 0000.0001) %MON RAW_max                      =   7.8143606035729E+10
(PID.TID 0000.0001) %MON RAW_min                      =   9.2568392932277E+09
(PID.TID 0000.0001) %MON RAW_mean                     =   6.1879558125803E+10
(PID.TID 0000.0001) %MON RAW_sd                       =   1.3029492593382E+10
(PID.TID 0000.0001) %MON RAS_max                      =   7.8143606035729E+10
(PID.TID 0000.0001) %MON RAS_min                      =   9.2568392932277E+09
(PID.TID 0000.0001) %MON RAS_mean                     =   6.1879558125803E+10
(PID.TID 0000.0001) %MON RAS_sd                       =   1.3029492593382E+10
(PID.TID 0000.0001) %MON RAZ_max                      =   7.8168834754399E+10
(PID.TID 0000.0001) %MON RAZ_min                      =   6.8916005820739E+09
(PID.TID 0000.0001) %MON RAZ_mean                     =   6.1879558125803E+10
(PID.TID 0000.0001) %MON RAZ_sd                       =   1.3029734926728E+10
(PID.TID 0000.0001) %MON AngleCS_max                  =   9.9999994756720E-01
(PID.TID 0000.0001) %MON AngleCS_min                  =  -9.9968286870536E-01
(PID.TID 0000.0001) %MON AngleCS_mean                 =   3.3078845306109E-01
(PID.TID 0000.0001) %MON AngleCS_sd                   =   6.2496319837367E-01
(PID.TID 0000.0001) %MON AngleSN_max                  =   9.9968286870536E-01
(PID.TID 0000.0001) %MON AngleSN_min                  =  -9.9999994756720E-01
(PID.TID 0000.0001) %MON AngleSN_mean                 =  -3.3078845306109E-01
(PID.TID 0000.0001) %MON AngleSN_sd                   =   6.2496319837367E-01
(PID.TID 0000.0001) 
(PID.TID 0000.0001) SET_REF_STATE: PhiRef/g [m] at level Center (integer)
(PID.TID 0000.0001)                      and at level Interface (half-int.) :
(PID.TID 0000.0001)  K=  0.5  ;  r=       100000.0  ;  phiRef/g=        0.000
(PID.TID 0000.0001)  K=  1.0  ;  r=        50000.0  ;  phiRef/g=     5516.309
(PID.TID 0000.0001)  K=  1.5  ;  r=            0.0  ;  phiRef/g=    30703.364
(PID.TID 0000.0001) // =======================================================
(PID.TID 0000.0001) // Field Model R_low (ini_masks_etc)
(PID.TID 0000.0001) // CMIN =          1.000000000000000E+32
(PID.TID 0000.0001) // CMAX =         -1.000000000000000E+32
(PID.TID 0000.0001) // CINT =          0.000000000000000E+00
(PID.TID 0000.0001) // SYMBOLS (CMIN->CMAX): -abcdefghijklmnopqrstuvwxyz+
(PID.TID 0000.0001) //                  0.0: .
(PID.TID 0000.0001) // RANGE I (Lo:Hi:Step):(    -1:   194:     1)
(PID.TID 0000.0001) // RANGE J (Lo:Hi:Step):(    34:    -1:    -1)
(PID.TID 0000.0001) // RANGE K (Lo:Hi:Step):(   1:   1:   1)
(PID.TID 0000.0001) // =======================================================
(PID.TID 0000.0001) // =======================================================
(PID.TID 0000.0001) // END OF FIELD                                          =
(PID.TID 0000.0001) // =======================================================
(PID.TID 0000.0001) 
(PID.TID 0000.0001) // =======================================================
(PID.TID 0000.0001) // Field Model Ro_surf (ini_masks_etc)
(PID.TID 0000.0001) // CMIN =          1.000000000000000E+05
(PID.TID 0000.0001) // CMAX =          1.000000000000000E+05
(PID.TID 0000.0001) // CINT =          0.000000000000000E+00
(PID.TID 0000.0001) // SYMBOLS (CMIN->CMAX): -abcdefghijklmnopqrstuvwxyz+
(PID.TID 0000.0001) //                  0.0: .
(PID.TID 0000.0001) // RANGE I (Lo:Hi:Step):(    -1:   194:     1)
(PID.TID 0000.0001) // RANGE J (Lo:Hi:Step):(    34:    -1:    -1)
(PID.TID 0000.0001) // RANGE K (Lo:Hi:Step):(   1:   1:   1)
(PID.TID 0000.0001) // =======================================================
(PID.TID 0000.0001) // =======================================================
(PID.TID 0000.0001) // END OF FIELD                                          =
(PID.TID 0000.0001) // =======================================================
(PID.TID 0000.0001) 
(PID.TID 0000.0001) // =======================================================
(PID.TID 0000.0001) // Field hFacC at iteration          0
(PID.TID 0000.0001) // CMIN =          1.000000000000000E+00
(PID.TID 0000.0001) // CMAX =          1.000000000000000E+00
(PID.TID 0000.0001) // CINT =          0.000000000000000E+00
(PID.TID 0000.0001) // SYMBOLS (CMIN->CMAX): -abcdefghijklmnopqrstuvwxyz+
(PID.TID 0000.0001) //                  0.0: .
(PID.TID 0000.0001) // RANGE I (Lo:Hi:Step):(    -1:   194:     1)
(PID.TID 0000.0001) // RANGE J (Lo:Hi:Step):(    34:    -1:    -1)
(PID.TID 0000.0001) // RANGE K (Lo:Hi:Step):(   1:   1:   1)
(PID.TID 0000.0001) // =======================================================
(PID.TID 0000.0001) // =======================================================
(PID.TID 0000.0001) // END OF FIELD                                          =
(PID.TID 0000.0001) // =======================================================
(PID.TID 0000.0001) 
(PID.TID 0000.0001) // =======================================================
(PID.TID 0000.0001) // Field hFacW at iteration          0
(PID.TID 0000.0001) // CMIN =          1.000000000000000E+00
(PID.TID 0000.0001) // CMAX =          1.000000000000000E+00
(PID.TID 0000.0001) // CINT =          0.000000000000000E+00
(PID.TID 0000.0001) // SYMBOLS (CMIN->CMAX): -abcdefghijklmnopqrstuvwxyz+
(PID.TID 0000.0001) //                  0.0: .
(PID.TID 0000.0001) // RANGE I (Lo:Hi:Step):(    -1:   194:     1)
(PID.TID 0000.0001) // RANGE J (Lo:Hi:Step):(    34:    -1:    -1)
(PID.TID 0000.0001) // RANGE K (Lo:Hi:Step):(   1:   1:   1)
(PID.TID 0000.0001) // =======================================================
(PID.TID 0000.0001) // =======================================================
(PID.TID 0000.0001) // END OF FIELD                                          =
(PID.TID 0000.0001) // =======================================================
(PID.TID 0000.0001) 
(PID.TID 0000.0001) // =======================================================
(PID.TID 0000.0001) // Field hFacS at iteration          0
(PID.TID 0000.0001) // CMIN =          1.000000000000000E+00
(PID.TID 0000.0001) // CMAX =          1.000000000000000E+00
(PID.TID 0000.0001) // CINT =          0.000000000000000E+00
(PID.TID 0000.0001) // SYMBOLS (CMIN->CMAX): -abcdefghijklmnopqrstuvwxyz+
(PID.TID 0000.0001) //                  0.0: .
(PID.TID 0000.0001) // RANGE I (Lo:Hi:Step):(    -1:   194:     1)
(PID.TID 0000.0001) // RANGE J (Lo:Hi:Step):(    34:    -1:    -1)
(PID.TID 0000.0001) // RANGE K (Lo:Hi:Step):(   1:   1:   1)
(PID.TID 0000.0001) // =======================================================
(PID.TID 0000.0001) // =======================================================
(PID.TID 0000.0001) // END OF FIELD                                          =
(PID.TID 0000.0001) // =======================================================
(PID.TID 0000.0001) 
(PID.TID 0000.0001) GAD_INIT_FIXED: GAD_OlMinSize=  1  0  1
(PID.TID 0000.0001) 
(PID.TID 0000.0001) // ===================================
(PID.TID 0000.0001) // GAD parameters :
(PID.TID 0000.0001) // ===================================
(PID.TID 0000.0001) tempAdvScheme =   /* Temp. Horiz.Advection scheme selector */
(PID.TID 0000.0001)                       2
(PID.TID 0000.0001)     ;
(PID.TID 0000.0001) tempVertAdvScheme =   /* Temp. Vert. Advection scheme selector */
(PID.TID 0000.0001)                       2
(PID.TID 0000.0001)     ;
(PID.TID 0000.0001) tempMultiDimAdvec =   /* use Muti-Dim Advec method for Temp */
(PID.TID 0000.0001)                   F
(PID.TID 0000.0001)     ;
(PID.TID 0000.0001) tempSOM_Advection = /* use 2nd Order Moment Advection for Temp */
(PID.TID 0000.0001)                   F
(PID.TID 0000.0001)     ;
(PID.TID 0000.0001) AdamsBashforthGt = /* apply Adams-Bashforth extrapolation on Gt */
(PID.TID 0000.0001)                   F
(PID.TID 0000.0001)     ;
(PID.TID 0000.0001) AdamsBashforth_T = /* apply Adams-Bashforth extrapolation on Temp */
(PID.TID 0000.0001)                   F
(PID.TID 0000.0001)     ;
(PID.TID 0000.0001) saltAdvScheme =   /* Salt. Horiz.advection scheme selector */
(PID.TID 0000.0001)                       2
(PID.TID 0000.0001)     ;
(PID.TID 0000.0001) saltVertAdvScheme =   /* Salt. Vert. Advection scheme selector */
(PID.TID 0000.0001)                       2
(PID.TID 0000.0001)     ;
(PID.TID 0000.0001) saltMultiDimAdvec =   /* use Muti-Dim Advec method for Salt */
(PID.TID 0000.0001)                   F
(PID.TID 0000.0001)     ;
(PID.TID 0000.0001) saltSOM_Advection = /* use 2nd Order Moment Advection for Salt */
(PID.TID 0000.0001)                   F
(PID.TID 0000.0001)     ;
(PID.TID 0000.0001) AdamsBashforthGs = /* apply Adams-Bashforth extrapolation on Gs */
(PID.TID 0000.0001)                   T
(PID.TID 0000.0001)     ;
(PID.TID 0000.0001) AdamsBashforth_S = /* apply Adams-Bashforth extrapolation on Salt */
(PID.TID 0000.0001)                   F
(PID.TID 0000.0001)     ;
(PID.TID 0000.0001) // ===================================
(PID.TID 0000.0001) ------------------------------------------------------------
(PID.TID 0000.0001) DIAGNOSTICS_SET_LEVELS: done
(PID.TID 0000.0001)  Total Nb of available Diagnostics: ndiagt=   175
(PID.TID 0000.0001)  write list of available Diagnostics to file: available_diagnostics.log
(PID.TID 0000.0001) SETDIAG: Allocate  1 x  1 Levels for Diagnostic #   148 momKE
(PID.TID 0000.0001) SETDIAG: Allocate  1 x  1 Levels for Diagnostic #   150 momVort3
(PID.TID 0000.0001)   space allocated for all diagnostics:       2 levels
(PID.TID 0000.0001) DIAGNOSTICS_SET_POINTERS: Set levels for Outp.Stream: momDiag
(PID.TID 0000.0001)  Levels:       1.
(PID.TID 0000.0001) DIAGNOSTICS_SET_POINTERS: done
(PID.TID 0000.0001) ------------------------------------------------------------
(PID.TID 0000.0001) DIAGSTATS_SET_REGIONS: define no region
(PID.TID 0000.0001) ------------------------------------------------------------
(PID.TID 0000.0001) SETDIAG: Allocate  1 Levels for Stats-Diag #    23 ETAN
(PID.TID 0000.0001) SETDIAG: Allocate  1 Levels for Stats-Diag #    37 UE_VEL_C
(PID.TID 0000.0001) SETDIAG: Allocate  1 Levels for Stats-Diag #    38 VN_VEL_C
(PID.TID 0000.0001) SETDIAG: Allocate  1 Levels for Stats-Diag #   148 momKE
(PID.TID 0000.0001) SETDIAG: Allocate  1 Levels for Stats-Diag #   150 momVort3
(PID.TID 0000.0001) SETDIAG: Allocate  1 Levels for Stats-Diag #    27 SALT
(PID.TID 0000.0001) SETDIAG: Allocate  1 Levels for Stats-Diag #    33 SALTSQ
(PID.TID 0000.0001)   space allocated for all stats-diags:       7 levels
(PID.TID 0000.0001) DIAGSTATS_SET_POINTERS: done
(PID.TID 0000.0001) ------------------------------------------------------------
(PID.TID 0000.0001) DIAGSTATS_INI_IO: open file: dynStDiag.0000000000.txt , unit=     9
(PID.TID 0000.0001) INI_GLOBAL_DOMAIN: Found  24 CS-corner Pts in the domain
(PID.TID 0000.0001) %MON fCori_max                    =   1.1628013526820E-04
(PID.TID 0000.0001) %MON fCori_min                    =  -1.1628013526820E-04
(PID.TID 0000.0001) %MON fCori_mean                   =   0.0000000000000E+00
(PID.TID 0000.0001) %MON fCori_sd                     =   6.7177754230897E-05
(PID.TID 0000.0001) %MON fCoriG_max                   =   1.1635528346629E-04
(PID.TID 0000.0001) %MON fCoriG_min                   =  -1.1635528346629E-04
(PID.TID 0000.0001) %MON fCoriG_mean                  =   0.0000000000000E+00
(PID.TID 0000.0001) %MON fCoriG_sd                    =   6.7177754230897E-05
(PID.TID 0000.0001) %MON fCoriCos_max                 =   1.1632273230775E-04
(PID.TID 0000.0001) %MON fCoriCos_min                 =   4.1811640161201E-06
(PID.TID 0000.0001) %MON fCoriCos_mean                =   9.1860763728355E-05
(PID.TID 0000.0001) %MON fCoriCos_sd                  =   2.4234302429756E-05
(PID.TID 0000.0001) INI_CG2D: CG2D normalisation factor =  9.8929536739060584E-06
(PID.TID 0000.0001) 
(PID.TID 0000.0001) // =======================================================
(PID.TID 0000.0001) // Model configuration
(PID.TID 0000.0001) // =======================================================
(PID.TID 0000.0001) //
(PID.TID 0000.0001) // "Physical" paramters ( PARM01 in namelist )
(PID.TID 0000.0001) //
(PID.TID 0000.0001) buoyancyRelation = /* Type of relation to get Buoyancy */
(PID.TID 0000.0001)               'ATMOSPHERIC'
(PID.TID 0000.0001)     ;
(PID.TID 0000.0001) fluidIsAir   =  /* fluid major constituent is Air */
(PID.TID 0000.0001)                   T
(PID.TID 0000.0001)     ;
(PID.TID 0000.0001) fluidIsWater =  /* fluid major constituent is Water */
(PID.TID 0000.0001)                   F
(PID.TID 0000.0001)     ;
(PID.TID 0000.0001) usingPCoords =  /* use p (or p*) vertical coordinate */
(PID.TID 0000.0001)                   T
(PID.TID 0000.0001)     ;
(PID.TID 0000.0001) usingZCoords =  /* use z (or z*) vertical coordinate */
(PID.TID 0000.0001)                   F
(PID.TID 0000.0001)     ;
(PID.TID 0000.0001) tRef =   /* Reference temperature profile ( oC or K ) */
(PID.TID 0000.0001)                 3.000000000000000E+02       /* K =  1 */
(PID.TID 0000.0001)     ;
(PID.TID 0000.0001) sRef =   /* Reference salinity profile ( g/kg ) */
(PID.TID 0000.0001)                 0.000000000000000E+00       /* K =  1 */
(PID.TID 0000.0001)     ;
(PID.TID 0000.0001) rhoRef =   /* Density vertical profile from (Ref,sRef)( kg/m^3 ) */
(PID.TID 0000.0001)                 1.000000000000000E+00       /* K =  1 */
(PID.TID 0000.0001)     ;
(PID.TID 0000.0001) dBdrRef = /* Vertical grad. of reference buoyancy [(m/s/r)^2] */
(PID.TID 0000.0001)                 0.000000000000000E+00       /* K =  1 */
(PID.TID 0000.0001)     ;
(PID.TID 0000.0001) useStrainTensionVisc= /* Use StrainTension Form of Viscous Operator */
(PID.TID 0000.0001)                   F
(PID.TID 0000.0001)     ;
(PID.TID 0000.0001) useVariableVisc = /* Use variable horizontal viscosity */
(PID.TID 0000.0001)                   F
(PID.TID 0000.0001)     ;
(PID.TID 0000.0001) useHarmonicVisc = /* Use harmonic horizontal viscosity */
(PID.TID 0000.0001)                   F
(PID.TID 0000.0001)     ;
(PID.TID 0000.0001) useBiharmonicVisc= /* Use biharmonic horiz.  viscosity */
(PID.TID 0000.0001)                   F
(PID.TID 0000.0001)     ;
(PID.TID 0000.0001) useSmag3D = /* Use isotropic 3-D Smagorinsky viscosity */
(PID.TID 0000.0001)                   F
(PID.TID 0000.0001)     ;
(PID.TID 0000.0001) viscAh  =   /* Lateral harmonic viscosity ( m^2/s ) */
(PID.TID 0000.0001)                 0.000000000000000E+00
(PID.TID 0000.0001)     ;
(PID.TID 0000.0001) viscA4  =   /* Lateral biharmonic viscosity ( m^4/s ) */
(PID.TID 0000.0001)                 0.000000000000000E+00
(PID.TID 0000.0001)     ;
(PID.TID 0000.0001) no_slip_sides =  /* Viscous BCs: No-slip sides */
(PID.TID 0000.0001)                   F
(PID.TID 0000.0001)     ;
(PID.TID 0000.0001) sideDragFactor = /* side-drag scaling factor (non-dim) */
(PID.TID 0000.0001)                 2.000000000000000E+00
(PID.TID 0000.0001)     ;
(PID.TID 0000.0001) viscArNr = /* vertical profile of vertical viscosity (Pa^2/s )*/
(PID.TID 0000.0001)                 0.000000000000000E+00       /* K =  1 */
(PID.TID 0000.0001)     ;
(PID.TID 0000.0001) no_slip_bottom =  /* Viscous BCs: No-slip bottom */
(PID.TID 0000.0001)                   F
(PID.TID 0000.0001)     ;
(PID.TID 0000.0001) bottomVisc_pCell = /* Partial-cell in bottom Visc. BC */
(PID.TID 0000.0001)                   F
(PID.TID 0000.0001)     ;
(PID.TID 0000.0001) bottomDragLinear = /* linear bottom-drag coefficient ( m/s ) */
(PID.TID 0000.0001)                 0.000000000000000E+00
(PID.TID 0000.0001)     ;
(PID.TID 0000.0001) bottomDragQuadratic = /* quadratic bottom-drag coefficient (-) */
(PID.TID 0000.0001)                 0.000000000000000E+00
(PID.TID 0000.0001)     ;
(PID.TID 0000.0001) selectBotDragQuadr = /* select quadratic bottom drag options */
(PID.TID 0000.0001)                      -1
(PID.TID 0000.0001)     ;
(PID.TID 0000.0001) diffKhT =   /* Laplacian diffusion of heat laterally ( m^2/s ) */
(PID.TID 0000.0001)                 0.000000000000000E+00
(PID.TID 0000.0001)     ;
(PID.TID 0000.0001) diffK4T =   /* Biharmonic diffusion of heat laterally ( m^4/s ) */
(PID.TID 0000.0001)                 0.000000000000000E+00
(PID.TID 0000.0001)     ;
(PID.TID 0000.0001) diffKhS =   /* Laplacian diffusion of salt laterally ( m^2/s ) */
(PID.TID 0000.0001)                 0.000000000000000E+00
(PID.TID 0000.0001)     ;
(PID.TID 0000.0001) diffK4S =   /* Biharmonic diffusion of salt laterally ( m^4/s ) */
(PID.TID 0000.0001)                 0.000000000000000E+00
(PID.TID 0000.0001)     ;
(PID.TID 0000.0001) diffKrNrT = /* vertical profile of vertical diffusion of Temp (Pa^2/s )*/
(PID.TID 0000.0001)                 0.000000000000000E+00       /* K =  1 */
(PID.TID 0000.0001)     ;
(PID.TID 0000.0001) diffKrNrS = /* vertical profile of vertical diffusion of Salt (Pa^2/s )*/
(PID.TID 0000.0001)                 0.000000000000000E+00       /* K =  1 */
(PID.TID 0000.0001)     ;
(PID.TID 0000.0001) diffKrBL79surf = /* Surface diffusion for Bryan and Lewis 79 ( m^2/s ) */
(PID.TID 0000.0001)                 0.000000000000000E+00
(PID.TID 0000.0001)     ;
(PID.TID 0000.0001) diffKrBL79deep = /* Deep diffusion for Bryan and Lewis 1979 ( m^2/s ) */
(PID.TID 0000.0001)                 0.000000000000000E+00
(PID.TID 0000.0001)     ;
(PID.TID 0000.0001) diffKrBL79scl = /* Depth scale for Bryan and Lewis 1979 ( m ) */
(PID.TID 0000.0001)                 2.000000000000000E+02
(PID.TID 0000.0001)     ;
(PID.TID 0000.0001) diffKrBL79Ho = /* Turning depth for Bryan and Lewis 1979 ( m ) */
(PID.TID 0000.0001)                -2.000000000000000E+03
(PID.TID 0000.0001)     ;
(PID.TID 0000.0001) ivdc_kappa = /* Implicit Vertical Diffusivity for Convection (Pa^2/s) */
(PID.TID 0000.0001)                 0.000000000000000E+00
(PID.TID 0000.0001)     ;
(PID.TID 0000.0001) hMixCriteria=  /* Criteria for mixed-layer diagnostic */
(PID.TID 0000.0001)                -8.000000000000000E-01
(PID.TID 0000.0001)     ;
(PID.TID 0000.0001) dRhoSmall =  /* Parameter for mixed-layer diagnostic */
(PID.TID 0000.0001)                 1.000000000000000E-06
(PID.TID 0000.0001)     ;
(PID.TID 0000.0001) hMixSmooth=  /* Smoothing parameter for mixed-layer diagnostic */
(PID.TID 0000.0001)                 0.000000000000000E+00
(PID.TID 0000.0001)     ;
(PID.TID 0000.0001) eosType =  /* Type of Equation of State */
(PID.TID 0000.0001)               'IDEALG'
(PID.TID 0000.0001)     ;
(PID.TID 0000.0001) surf_pRef = /* Surface reference pressure ( Pa ) */
(PID.TID 0000.0001)                 1.013250000000000E+05
(PID.TID 0000.0001)     ;
(PID.TID 0000.0001) celsius2K = /* 0 degree Celsius converted to Kelvin ( K ) */
(PID.TID 0000.0001)                 2.731500000000000E+02
(PID.TID 0000.0001)     ;
(PID.TID 0000.0001) atm_Rd =    /* gas constant for dry air ( J/kg/K ) */
(PID.TID 0000.0001)                 2.868571428571428E+02
(PID.TID 0000.0001)     ;
(PID.TID 0000.0001) atm_Cp =    /* specific heat (Cp) of dry air ( J/kg/K ) */
(PID.TID 0000.0001)                 1.004000000000000E+03
(PID.TID 0000.0001)     ;
(PID.TID 0000.0001) atm_kappa = /* kappa (=Rd/Cp ) of dry air */
(PID.TID 0000.0001)                 2.857142857142857E-01
(PID.TID 0000.0001)     ;
(PID.TID 0000.0001) atm_Rq =  /* water vap. specific vol. anomaly relative to dry air */
(PID.TID 0000.0001)                 0.000000000000000E+00
(PID.TID 0000.0001)     ;
(PID.TID 0000.0001) atm_Po =    /* standard reference pressure ( Pa ) */
(PID.TID 0000.0001)                 1.000000000000000E+05
(PID.TID 0000.0001)     ;
(PID.TID 0000.0001) thetaConst= /* constant reference for potential temperature ( K ) */
(PID.TID 0000.0001)                 3.000000000000000E+02
(PID.TID 0000.0001)     ;
(PID.TID 0000.0001) integr_GeoPot =  /* select how the geopotential is integrated */
(PID.TID 0000.0001)                       2
(PID.TID 0000.0001)     ;
(PID.TID 0000.0001) selectFindRoSurf=  /* select how Surf.Ref. pressure is defined */
(PID.TID 0000.0001)                       0
(PID.TID 0000.0001)     ;
(PID.TID 0000.0001) rhoConst  = /* Reference density (Boussinesq)  ( kg/m^3 ) */
(PID.TID 0000.0001)                 1.000000000000000E+00
(PID.TID 0000.0001)     ;
(PID.TID 0000.0001) rhoFacC = /* normalized Reference density @ cell-Center (-) */
(PID.TID 0000.0001)                 1.000000000000000E+00       /* K =  1 */
(PID.TID 0000.0001)     ;
(PID.TID 0000.0001) rhoFacF = /* normalized Reference density @ W-Interface (-) */
(PID.TID 0000.0001)     2 @  1.000000000000000E+00              /* K =  1:  2 */
(PID.TID 0000.0001)     ;
(PID.TID 0000.0001) rhoConstFresh = /* Fresh-water reference density ( kg/m^3 ) */
(PID.TID 0000.0001)                 1.000000000000000E+00
(PID.TID 0000.0001)     ;
(PID.TID 0000.0001) gravity =   /* Gravitational acceleration ( m/s^2 ) */
(PID.TID 0000.0001)                 9.810000000000000E+00
(PID.TID 0000.0001)     ;
(PID.TID 0000.0001) gBaro =   /* Barotropic gravity ( m/s^2 ) */
(PID.TID 0000.0001)                 9.810000000000000E+00
(PID.TID 0000.0001)     ;
(PID.TID 0000.0001) gravFacC = /* gravity factor (vs surf.) @ cell-Center (-) */
(PID.TID 0000.0001)                 1.000000000000000E+00       /* K =  1 */
(PID.TID 0000.0001)     ;
(PID.TID 0000.0001) gravFacF = /* gravity factor (vs surf.) @ W-Interface (-) */
(PID.TID 0000.0001)     2 @  1.000000000000000E+00              /* K =  1:  2 */
(PID.TID 0000.0001)     ;
(PID.TID 0000.0001) rotationPeriod =   /* Rotation Period ( s ) */
(PID.TID 0000.0001)                 1.080000000000000E+05
(PID.TID 0000.0001)     ;
(PID.TID 0000.0001) omega =   /* Angular velocity ( rad/s ) */
(PID.TID 0000.0001)                 5.817764173314431E-05
(PID.TID 0000.0001)     ;
(PID.TID 0000.0001) f0 =   /* Reference coriolis parameter ( 1/s ) */
(PID.TID 0000.0001)                 1.000000000000000E-04
(PID.TID 0000.0001)     ;
(PID.TID 0000.0001) beta =   /* Beta ( 1/(m.s) ) */
(PID.TID 0000.0001)                 9.999999999999999E-12
(PID.TID 0000.0001)     ;
(PID.TID 0000.0001) fPrime =   /* Second coriolis parameter ( 1/s ) */
(PID.TID 0000.0001)                 0.000000000000000E+00
(PID.TID 0000.0001)     ;
(PID.TID 0000.0001) rigidLid =   /* Rigid lid on/off flag */
(PID.TID 0000.0001)                   F
(PID.TID 0000.0001)     ;
(PID.TID 0000.0001) implicitFreeSurface =   /* Implicit free surface on/off flag */
(PID.TID 0000.0001)                   T
(PID.TID 0000.0001)     ;
(PID.TID 0000.0001) freeSurfFac =   /* Implicit free surface factor */
(PID.TID 0000.0001)                 1.000000000000000E+00
(PID.TID 0000.0001)     ;
(PID.TID 0000.0001) implicSurfPress =  /* Surface Pressure implicit factor (0-1) */
(PID.TID 0000.0001)                 1.000000000000000E+00
(PID.TID 0000.0001)     ;
(PID.TID 0000.0001) implicDiv2DFlow =  /* Barot. Flow Div. implicit factor (0-1) */
(PID.TID 0000.0001)                 1.000000000000000E+00
(PID.TID 0000.0001)     ;
(PID.TID 0000.0001) uniformLin_PhiSurf = /* use uniform Bo_surf on/off flag */
(PID.TID 0000.0001)                   T
(PID.TID 0000.0001)     ;
(PID.TID 0000.0001) uniformFreeSurfLev = /* free-surface level-index is uniform */
(PID.TID 0000.0001)                   F
(PID.TID 0000.0001)     ;
(PID.TID 0000.0001) sIceLoadFac =  /* scale factor for sIceLoad (0-1) */
(PID.TID 0000.0001)                 1.000000000000000E+00
(PID.TID 0000.0001)     ;
(PID.TID 0000.0001) hFacMin =   /* minimum partial cell factor (hFac) */
(PID.TID 0000.0001)                 1.000000000000000E+00
(PID.TID 0000.0001)     ;
(PID.TID 0000.0001) hFacMinDr = /* minimum partial cell thickness (Pa) */
(PID.TID 0000.0001)                 0.000000000000000E+00
(PID.TID 0000.0001)     ;
(PID.TID 0000.0001) exactConserv =  /* Exact Volume Conservation on/off flag */
(PID.TID 0000.0001)                   F
(PID.TID 0000.0001)     ;
(PID.TID 0000.0001) linFSConserveTr = /* Tracer correction for Lin Free Surface on/off flag */
(PID.TID 0000.0001)                   F
(PID.TID 0000.0001)     ;
(PID.TID 0000.0001) nonlinFreeSurf = /* Non-linear Free Surf. options (-1,0,1,2,3)*/
(PID.TID 0000.0001)                       0
(PID.TID 0000.0001)      -1,0= Off ; 1,2,3= On, 2=+rescale gU,gV, 3=+update cg2d solv.
(PID.TID 0000.0001)     ;
(PID.TID 0000.0001) hFacInf =   /* lower threshold for hFac (nonlinFreeSurf only)*/
(PID.TID 0000.0001)                 2.000000000000000E-01
(PID.TID 0000.0001)     ;
(PID.TID 0000.0001) hFacSup =   /* upper threshold for hFac (nonlinFreeSurf only)*/
(PID.TID 0000.0001)                 2.000000000000000E+00
(PID.TID 0000.0001)     ;
(PID.TID 0000.0001) select_rStar = /* r* Vertical coord. options (=0 r coord.; >0 uses r*)*/
(PID.TID 0000.0001)                       0
(PID.TID 0000.0001)     ;
(PID.TID 0000.0001) useRealFreshWaterFlux = /* Real Fresh Water Flux on/off flag*/
(PID.TID 0000.0001)                   F
(PID.TID 0000.0001)     ;
(PID.TID 0000.0001) temp_EvPrRn = /* Temp. of Evap/Prec/R (UNSET=use local T)(oC)*/
(PID.TID 0000.0001)                 1.234567000000000E+05
(PID.TID 0000.0001)     ;
(PID.TID 0000.0001) salt_EvPrRn = /* Salin. of Evap/Prec/R (UNSET=use local S)(g/kg)*/
(PID.TID 0000.0001)                 0.000000000000000E+00
(PID.TID 0000.0001)     ;
(PID.TID 0000.0001) selectAddFluid = /* option for mass source/sink of fluid (=0: off) */
(PID.TID 0000.0001)                       0
(PID.TID 0000.0001)     ;
(PID.TID 0000.0001) temp_addMass = /* Temp. of addMass array (UNSET=use local T)(oC)*/
(PID.TID 0000.0001)                 1.234567000000000E+05
(PID.TID 0000.0001)     ;
(PID.TID 0000.0001) salt_addMass = /* Salin. of addMass array (UNSET=use local S)(g/kg)*/
(PID.TID 0000.0001)                 0.000000000000000E+00
(PID.TID 0000.0001)     ;
(PID.TID 0000.0001) convertFW2Salt = /* convert F.W. Flux to Salt Flux (-1=use local S)(g/kg)*/
(PID.TID 0000.0001)                 3.500000000000000E+01
(PID.TID 0000.0001)     ;
(PID.TID 0000.0001) use3Dsolver = /* use 3-D pressure solver on/off flag */
(PID.TID 0000.0001)                   F
(PID.TID 0000.0001)     ;
(PID.TID 0000.0001) nonHydrostatic =  /* Non-Hydrostatic on/off flag */
(PID.TID 0000.0001)                   F
(PID.TID 0000.0001)     ;
(PID.TID 0000.0001) nh_Am2 = /* Non-Hydrostatic terms scaling factor */
(PID.TID 0000.0001)                 1.000000000000000E+00
(PID.TID 0000.0001)     ;
(PID.TID 0000.0001) implicitNHPress = /* Non-Hyd Pressure implicit factor (0-1)*/
(PID.TID 0000.0001)                 1.000000000000000E+00
(PID.TID 0000.0001)     ;
(PID.TID 0000.0001) selectNHfreeSurf = /* Non-Hyd (free-)Surface option */
(PID.TID 0000.0001)                       0
(PID.TID 0000.0001)     ;
(PID.TID 0000.0001) quasiHydrostatic = /* Quasi-Hydrostatic on/off flag */
(PID.TID 0000.0001)                   F
(PID.TID 0000.0001)     ;
(PID.TID 0000.0001) calc_wVelocity = /* vertical velocity calculation on/off flag */
(PID.TID 0000.0001)                   T
(PID.TID 0000.0001)     ;
(PID.TID 0000.0001) momStepping =  /* Momentum equation on/off flag */
(PID.TID 0000.0001)                   T
(PID.TID 0000.0001)     ;
(PID.TID 0000.0001) vectorInvariantMomentum= /* Vector-Invariant Momentum on/off */
(PID.TID 0000.0001)                   T
(PID.TID 0000.0001)     ;
(PID.TID 0000.0001) momAdvection =  /* Momentum advection on/off flag */
(PID.TID 0000.0001)                   T
(PID.TID 0000.0001)     ;
(PID.TID 0000.0001) momViscosity =  /* Momentum viscosity on/off flag */
(PID.TID 0000.0001)                   T
(PID.TID 0000.0001)     ;
(PID.TID 0000.0001) momImplVertAdv= /* Momentum implicit vert. advection on/off*/
(PID.TID 0000.0001)                   F
(PID.TID 0000.0001)     ;
(PID.TID 0000.0001) implicitViscosity = /* Implicit viscosity on/off flag */
(PID.TID 0000.0001)                   F
(PID.TID 0000.0001)     ;
(PID.TID 0000.0001) selectImplicitDrag= /* Implicit bot Drag options (0,1,2)*/
(PID.TID 0000.0001)                       0
(PID.TID 0000.0001)     0= Expl. ; 1= Impl. on provis. Vel ; 2= Fully Impl (with surf.P)
(PID.TID 0000.0001)     ;
(PID.TID 0000.0001) metricTerms =  /* metric-Terms on/off flag */
(PID.TID 0000.0001)                   F
(PID.TID 0000.0001)     ;
(PID.TID 0000.0001) useNHMTerms = /* Non-Hydrostatic Metric-Terms on/off */
(PID.TID 0000.0001)                   F
(PID.TID 0000.0001)     ;
(PID.TID 0000.0001) selectCoriMap = /* Coriolis Map options (0,1,2,3)*/
(PID.TID 0000.0001)                       2
(PID.TID 0000.0001)     0= f-Plane ; 1= Beta-Plane ; 2= Spherical ; 3= read from file
(PID.TID 0000.0001)     ;
(PID.TID 0000.0001) use3dCoriolis = /* 3-D Coriolis on/off flag */
(PID.TID 0000.0001)                   F
(PID.TID 0000.0001)     ;
(PID.TID 0000.0001) useCoriolis =  /* Coriolis on/off flag */
(PID.TID 0000.0001)                   T
(PID.TID 0000.0001)     ;
(PID.TID 0000.0001) useCDscheme =  /* CD scheme on/off flag */
(PID.TID 0000.0001)                   F
(PID.TID 0000.0001)     ;
(PID.TID 0000.0001) selectCoriScheme= /* Scheme selector for Coriolis-Term */
(PID.TID 0000.0001)                       0
(PID.TID 0000.0001)    = 0 : original discretization (simple averaging, no hFac)
(PID.TID 0000.0001)    = 1 : Wet-point averaging (Jamar & Ozer 1986)
(PID.TID 0000.0001)    = 2 : hFac weighted average (Angular Mom. conserving)
(PID.TID 0000.0001)    = 3 : energy conserving scheme using hFac weighted average
(PID.TID 0000.0001)     ;
(PID.TID 0000.0001) useAbsVorticity= /* V.I Works with f+zeta in Coriolis */
(PID.TID 0000.0001)                   F
(PID.TID 0000.0001)     ;
(PID.TID 0000.0001) selectVortScheme= /* V.I Scheme selector for Vorticity-Term */
(PID.TID 0000.0001)                       1
(PID.TID 0000.0001)    = 0 : enstrophy (Shallow-Water Eq.) conserving scheme by Sadourny, JAS 75
(PID.TID 0000.0001)    = 1 : same as 0 with modified hFac
(PID.TID 0000.0001)    = 2 : energy conserving scheme (used by Sadourny in JAS 75 paper)
(PID.TID 0000.0001)    = 3 : energy (general) and enstrophy (2D, nonDiv.) conserving scheme
(PID.TID 0000.0001)          from Sadourny (Burridge & Haseler, ECMWF Rep.4, 1977)
(PID.TID 0000.0001)     ;
(PID.TID 0000.0001) useJamartMomAdv= /* V.I Non-linear terms Jamart flag */
(PID.TID 0000.0001)                   F
(PID.TID 0000.0001)     ;
(PID.TID 0000.0001) upwindVorticity= /* V.I Upwind bias vorticity flag */
(PID.TID 0000.0001)                   F
(PID.TID 0000.0001)     ;
(PID.TID 0000.0001) highOrderVorticity= /* V.I High order vort. advect. flag */
(PID.TID 0000.0001)                   F
(PID.TID 0000.0001)     ;
(PID.TID 0000.0001) upwindShear= /* V.I Upwind vertical Shear advection flag */
(PID.TID 0000.0001)                   F
(PID.TID 0000.0001)     ;
(PID.TID 0000.0001) selectKEscheme= /* V.I Kinetic Energy scheme selector */
(PID.TID 0000.0001)                       0
(PID.TID 0000.0001)     ;
(PID.TID 0000.0001) momForcing =  /* Momentum forcing on/off flag */
(PID.TID 0000.0001)                   T
(PID.TID 0000.0001)     ;
(PID.TID 0000.0001) momTidalForcing = /* Momentum Tidal forcing on/off flag */
(PID.TID 0000.0001)                   T
(PID.TID 0000.0001)     ;
(PID.TID 0000.0001) momPressureForcing =  /* Momentum pressure term on/off flag */
(PID.TID 0000.0001)                   T
(PID.TID 0000.0001)     ;
(PID.TID 0000.0001) implicitIntGravWave= /* Implicit Internal Gravity Wave flag */
(PID.TID 0000.0001)                   F
(PID.TID 0000.0001)     ;
(PID.TID 0000.0001) staggerTimeStep =    /* Stagger time stepping on/off flag */
(PID.TID 0000.0001)                   F
(PID.TID 0000.0001)     ;
(PID.TID 0000.0001) doResetHFactors = /* reset thickness factors @ each time-step */
(PID.TID 0000.0001)                   F
(PID.TID 0000.0001)     ;
(PID.TID 0000.0001) multiDimAdvection =  /* enable/disable Multi-Dim Advection */
(PID.TID 0000.0001)                   T
(PID.TID 0000.0001)     ;
(PID.TID 0000.0001) useMultiDimAdvec =   /* Multi-Dim Advection is/is-not used */
(PID.TID 0000.0001)                   F
(PID.TID 0000.0001)     ;
(PID.TID 0000.0001) implicitDiffusion = /* Implicit Diffusion on/off flag */
(PID.TID 0000.0001)                   F
(PID.TID 0000.0001)     ;
(PID.TID 0000.0001) tempStepping =  /* Temperature equation on/off flag */
(PID.TID 0000.0001)                   F
(PID.TID 0000.0001)     ;
(PID.TID 0000.0001) tempAdvection = /* Temperature advection on/off flag */
(PID.TID 0000.0001)                   F
(PID.TID 0000.0001)     ;
(PID.TID 0000.0001) tempImplVertAdv = /* Temp. implicit vert. advection on/off */
(PID.TID 0000.0001)                   F
(PID.TID 0000.0001)     ;
(PID.TID 0000.0001) tempForcing  =  /* Temperature forcing on/off flag */
(PID.TID 0000.0001)                   F
(PID.TID 0000.0001)     ;
(PID.TID 0000.0001) doThetaClimRelax = /* apply SST relaxation on/off flag */
(PID.TID 0000.0001)                   F
(PID.TID 0000.0001)     ;
(PID.TID 0000.0001) tempIsActiveTr = /* Temp. is a dynamically Active Tracer */
(PID.TID 0000.0001)                   F
(PID.TID 0000.0001)     ;
(PID.TID 0000.0001) saltStepping =  /* Salinity equation on/off flag */
(PID.TID 0000.0001)                   T
(PID.TID 0000.0001)     ;
(PID.TID 0000.0001) saltAdvection = /* Salinity advection on/off flag */
(PID.TID 0000.0001)                   T
(PID.TID 0000.0001)     ;
(PID.TID 0000.0001) saltImplVertAdv = /* Sali. implicit vert. advection on/off */
(PID.TID 0000.0001)                   F
(PID.TID 0000.0001)     ;
(PID.TID 0000.0001) saltForcing  =  /* Salinity forcing on/off flag */
(PID.TID 0000.0001)                   T
(PID.TID 0000.0001)     ;
(PID.TID 0000.0001) doSaltClimRelax = /* apply SSS relaxation on/off flag */
(PID.TID 0000.0001)                   F
(PID.TID 0000.0001)     ;
(PID.TID 0000.0001) saltIsActiveTr = /* Salt  is a dynamically Active Tracer */
(PID.TID 0000.0001)                   F
(PID.TID 0000.0001)     ;
(PID.TID 0000.0001)  readBinaryPrec = /* Precision used for reading binary files */
(PID.TID 0000.0001)                      64
(PID.TID 0000.0001)     ;
(PID.TID 0000.0001) writeBinaryPrec = /* Precision used for writing binary files */
(PID.TID 0000.0001)                      64
(PID.TID 0000.0001)     ;
(PID.TID 0000.0001)  rwSuffixType =   /* select format of mds file suffix */
(PID.TID 0000.0001)                       0
(PID.TID 0000.0001)    = 0 : myIter (I10.10) ;   = 1 : 100*myTime (100th sec) ;
(PID.TID 0000.0001)    = 2 : myTime (seconds);   = 3 : myTime/360 (10th of hr);
(PID.TID 0000.0001)    = 4 : myTime/3600 (hours)
(PID.TID 0000.0001)     ;
(PID.TID 0000.0001)  globalFiles = /* write "global" (=not per tile) files */
(PID.TID 0000.0001)                   F
(PID.TID 0000.0001)     ;
(PID.TID 0000.0001)  useSingleCpuIO = /* only master MPI process does I/O */
(PID.TID 0000.0001)                   F
(PID.TID 0000.0001)     ;
(PID.TID 0000.0001)  useSingleCpuInput = /* only master process reads input */
(PID.TID 0000.0001)                   F
(PID.TID 0000.0001)     ;
(PID.TID 0000.0001) /* debLev[*]  : level of debug & auxiliary message printing */
(PID.TID 0000.0001) debLevZero =  0 ; /* level of disabled aux. msg printing */
(PID.TID 0000.0001)    debLevA =  1 ; /* level of minimum  aux. msg printing */
(PID.TID 0000.0001)    debLevB =  2 ; /* level of low aux. print (report read-file opening)*/
(PID.TID 0000.0001)    debLevC =  3 ; /* level of moderate debug prt (most pkgs debug msg) */
(PID.TID 0000.0001)    debLevD =  4 ; /* level of enhanced debug prt (add DEBUG_STATS prt) */
(PID.TID 0000.0001)    debLevE =  5 ; /* level of extensive debug printing */
(PID.TID 0000.0001) debugLevel =  /* select debug printing level */
(PID.TID 0000.0001)                       2
(PID.TID 0000.0001)     ;
(PID.TID 0000.0001)  plotLevel =  /* select PLOT_FIELD printing level */
(PID.TID 0000.0001)                       2
(PID.TID 0000.0001)     ;
(PID.TID 0000.0001) //
(PID.TID 0000.0001) // Elliptic solver(s) paramters ( PARM02 in namelist )
(PID.TID 0000.0001) //
(PID.TID 0000.0001) cg2dMaxIters =   /* Upper limit on 2d con. grad iterations  */
(PID.TID 0000.0001)                     600
(PID.TID 0000.0001)     ;
(PID.TID 0000.0001) cg2dMinItersNSA =   /* Minimum number of iterations of 2d con. grad solver  */
(PID.TID 0000.0001)                       0
(PID.TID 0000.0001)     ;
(PID.TID 0000.0001) cg2dUseMinResSol= /* use cg2d last-iter(=0) / min-resid.(=1) solution */
(PID.TID 0000.0001)                       0
(PID.TID 0000.0001)     ;
(PID.TID 0000.0001) cg2dTargetResidual =   /* 2d con. grad target residual  */
(PID.TID 0000.0001)                 1.000000000000000E-12
(PID.TID 0000.0001)     ;
(PID.TID 0000.0001) cg2dTargetResWunit =   /* CG2d target residual [W units] */
(PID.TID 0000.0001)                -1.000000000000000E+00
(PID.TID 0000.0001)     ;
(PID.TID 0000.0001) cg2dPreCondFreq =   /* Freq. for updating cg2d preconditioner */
(PID.TID 0000.0001)                       1
(PID.TID 0000.0001)     ;
(PID.TID 0000.0001) useSRCGSolver =  /* use single reduction CG solver(s) */
(PID.TID 0000.0001)                   F
(PID.TID 0000.0001)     ;
(PID.TID 0000.0001) useNSACGSolver =  /* use not-self-adjoint CG solver */
(PID.TID 0000.0001)                   F
(PID.TID 0000.0001)     ;
(PID.TID 0000.0001) printResidualFreq = /* Freq. for printing CG residual */
(PID.TID 0000.0001)                       0
(PID.TID 0000.0001)     ;
(PID.TID 0000.0001) //
(PID.TID 0000.0001) // Time stepping paramters ( PARM03 in namelist )
(PID.TID 0000.0001) //
(PID.TID 0000.0001) deltaTMom =   /* Momentum equation timestep ( s ) */
(PID.TID 0000.0001)                 4.500000000000000E+02
(PID.TID 0000.0001)     ;
(PID.TID 0000.0001) deltaTFreeSurf = /* FreeSurface equation timestep ( s ) */
(PID.TID 0000.0001)                 4.500000000000000E+02
(PID.TID 0000.0001)     ;
(PID.TID 0000.0001) dTtracerLev =  /* Tracer equation timestep ( s ) */
(PID.TID 0000.0001)                 4.500000000000000E+02       /* K =  1 */
(PID.TID 0000.0001)     ;
(PID.TID 0000.0001) deltaTClock  =   /* Model clock timestep ( s ) */
(PID.TID 0000.0001)                 4.500000000000000E+02
(PID.TID 0000.0001)     ;
(PID.TID 0000.0001) cAdjFreq =   /* Convective adjustment interval ( s ) */
(PID.TID 0000.0001)                 0.000000000000000E+00
(PID.TID 0000.0001)     ;
(PID.TID 0000.0001) momForcingOutAB = /* =1: take Momentum Forcing out of Adams-Bash. stepping */
(PID.TID 0000.0001)                       0
(PID.TID 0000.0001)     ;
(PID.TID 0000.0001) tracForcingOutAB = /* =1: take T,S,pTr Forcing out of Adams-Bash. stepping */
(PID.TID 0000.0001)                       0
(PID.TID 0000.0001)     ;
(PID.TID 0000.0001) momDissip_In_AB = /* put Dissipation Tendency in Adams-Bash. stepping */
(PID.TID 0000.0001)                   T
(PID.TID 0000.0001)     ;
(PID.TID 0000.0001) doAB_onGtGs = /* apply AB on Tendencies (rather than on T,S)*/
(PID.TID 0000.0001)                   T
(PID.TID 0000.0001)     ;
(PID.TID 0000.0001) abEps =   /* Adams-Bashforth-2 stabilizing weight */
(PID.TID 0000.0001)                 1.000000000000000E-01
(PID.TID 0000.0001)     ;
(PID.TID 0000.0001) applyExchUV_early = /* Apply EXCH to U,V earlier in time-step */
(PID.TID 0000.0001)                   F
(PID.TID 0000.0001)     ;
(PID.TID 0000.0001) pickupStrictlyMatch= /* stop if pickup do not strictly match */
(PID.TID 0000.0001)                   T
(PID.TID 0000.0001)     ;
(PID.TID 0000.0001) nIter0   =   /* Run starting timestep number */
(PID.TID 0000.0001)                       0
(PID.TID 0000.0001)     ;
(PID.TID 0000.0001) nTimeSteps = /* Number of timesteps */
(PID.TID 0000.0001)                      25
(PID.TID 0000.0001)     ;
(PID.TID 0000.0001) nEndIter =   /* Run ending timestep number */
(PID.TID 0000.0001)                      25
(PID.TID 0000.0001)     ;
(PID.TID 0000.0001) baseTime =   /* Model base time ( s ) */
(PID.TID 0000.0001)                 0.000000000000000E+00
(PID.TID 0000.0001)     ;
(PID.TID 0000.0001) startTime =  /* Run start time ( s ) */
(PID.TID 0000.0001)                 0.000000000000000E+00
(PID.TID 0000.0001)     ;
(PID.TID 0000.0001) endTime  =   /* Integration ending time ( s ) */
(PID.TID 0000.0001)                 1.125000000000000E+04
(PID.TID 0000.0001)     ;
(PID.TID 0000.0001) pChkPtFreq = /* Permanent restart/pickup file interval ( s ) */
(PID.TID 0000.0001)                 0.000000000000000E+00
(PID.TID 0000.0001)     ;
(PID.TID 0000.0001) chkPtFreq  = /* Rolling restart/pickup file interval ( s ) */
(PID.TID 0000.0001)                 0.000000000000000E+00
(PID.TID 0000.0001)     ;
(PID.TID 0000.0001) pickup_write_mdsio =   /* Model IO flag. */
(PID.TID 0000.0001)                   T
(PID.TID 0000.0001)     ;
(PID.TID 0000.0001) pickup_read_mdsio =   /* Model IO flag. */
(PID.TID 0000.0001)                   T
(PID.TID 0000.0001)     ;
(PID.TID 0000.0001) writePickupAtEnd =   /* Model IO flag. */
(PID.TID 0000.0001)                   T
(PID.TID 0000.0001)     ;
(PID.TID 0000.0001) dumpFreq =   /* Model state write out interval ( s ). */
(PID.TID 0000.0001)                 1.080000000000000E+04
(PID.TID 0000.0001)     ;
(PID.TID 0000.0001) dumpInitAndLast= /* write out Initial & Last iter. model state */
(PID.TID 0000.0001)                   T
(PID.TID 0000.0001)     ;
(PID.TID 0000.0001) snapshot_mdsio =   /* Model IO flag. */
(PID.TID 0000.0001)                   T
(PID.TID 0000.0001)     ;
(PID.TID 0000.0001) monitorFreq =   /* Monitor output interval ( s ). */
(PID.TID 0000.0001)                 1.000000000000000E+00
(PID.TID 0000.0001)     ;
(PID.TID 0000.0001) monitorSelect = /* select group of variables to monitor */
(PID.TID 0000.0001)                       2
(PID.TID 0000.0001)     ;
(PID.TID 0000.0001) monitor_stdio =   /* Model IO flag. */
(PID.TID 0000.0001)                   T
(PID.TID 0000.0001)     ;
(PID.TID 0000.0001) externForcingPeriod =   /* forcing period (s) */
(PID.TID 0000.0001)                 0.000000000000000E+00
(PID.TID 0000.0001)     ;
(PID.TID 0000.0001) externForcingCycle =   /* period of the cyle (s). */
(PID.TID 0000.0001)                 0.000000000000000E+00
(PID.TID 0000.0001)     ;
(PID.TID 0000.0001) tauThetaClimRelax =   /* relaxation time scale (s) */
(PID.TID 0000.0001)                 0.000000000000000E+00
(PID.TID 0000.0001)     ;
(PID.TID 0000.0001) tauSaltClimRelax =   /* relaxation time scale (s) */
(PID.TID 0000.0001)                 0.000000000000000E+00
(PID.TID 0000.0001)     ;
(PID.TID 0000.0001) latBandClimRelax =   /* max. Lat. where relaxation */
(PID.TID 0000.0001)                 1.800000000000000E+02
(PID.TID 0000.0001)     ;
(PID.TID 0000.0001) //
(PID.TID 0000.0001) // Gridding paramters ( PARM04 in namelist )
(PID.TID 0000.0001) //
(PID.TID 0000.0001) usingCartesianGrid = /* Cartesian coordinates flag ( True/False ) */
(PID.TID 0000.0001)                   F
(PID.TID 0000.0001)     ;
(PID.TID 0000.0001) usingCylindricalGrid = /* Cylindrical coordinates flag ( True/False ) */
(PID.TID 0000.0001)                   F
(PID.TID 0000.0001)     ;
(PID.TID 0000.0001) usingSphericalPolarGrid = /* Spherical coordinates flag ( True/False ) */
(PID.TID 0000.0001)                   F
(PID.TID 0000.0001)     ;
(PID.TID 0000.0001) usingCurvilinearGrid = /* Curvilinear coordinates flag ( True/False ) */
(PID.TID 0000.0001)                   T
(PID.TID 0000.0001)     ;
(PID.TID 0000.0001) useMin4hFacEdges = /* set hFacW,S as minimum of adjacent hFacC factor */
(PID.TID 0000.0001)                   F
(PID.TID 0000.0001)     ;
(PID.TID 0000.0001) interViscAr_pCell = /* account for partial-cell in interior vert. viscosity */
(PID.TID 0000.0001)                   F
(PID.TID 0000.0001)     ;
(PID.TID 0000.0001) interDiffKr_pCell = /* account for partial-cell in interior vert. diffusion */
(PID.TID 0000.0001)                   F
(PID.TID 0000.0001)     ;
(PID.TID 0000.0001) pCellMix_select = /* option to enhance mixing near surface & bottom */
(PID.TID 0000.0001)                       0
(PID.TID 0000.0001)     ;
(PID.TID 0000.0001) selectSigmaCoord = /* Hybrid-Sigma Vert. Coordinate option */
(PID.TID 0000.0001)                       0
(PID.TID 0000.0001)     ;
(PID.TID 0000.0001) rSigmaBnd = /* r/sigma transition ( units of r == Pa ) */
(PID.TID 0000.0001)                 1.234567000000000E+05
(PID.TID 0000.0001)     ;
(PID.TID 0000.0001) rkSign =   /* index orientation relative to vertical coordinate */
(PID.TID 0000.0001)                -1.000000000000000E+00
(PID.TID 0000.0001)     ;
(PID.TID 0000.0001) gravitySign = /* gravity orientation relative to vertical coordinate */
(PID.TID 0000.0001)                 1.000000000000000E+00
(PID.TID 0000.0001)     ;
(PID.TID 0000.0001) seaLev_Z =  /* reference height of sea-level [m] */
(PID.TID 0000.0001)                 0.000000000000000E+00
(PID.TID 0000.0001)     ;
(PID.TID 0000.0001) top_Pres =  /* pressure at the top (r-axis origin) [Pa] */
(PID.TID 0000.0001)                 0.000000000000000E+00
(PID.TID 0000.0001)     ;
(PID.TID 0000.0001) mass2rUnit = /* convert mass per unit area [kg/m2] to r-units [Pa] */
(PID.TID 0000.0001)                 9.810000000000000E+00
(PID.TID 0000.0001)     ;
(PID.TID 0000.0001) rUnit2mass = /* convert r-units [Pa] to mass per unit area [kg/m2] */
(PID.TID 0000.0001)                 1.019367991845056E-01
(PID.TID 0000.0001)     ;
(PID.TID 0000.0001) drC =   /* C spacing ( units of r ) */
(PID.TID 0000.0001)     2 @  5.000000000000000E+04              /* K =  1:  2 */
(PID.TID 0000.0001)     ;
(PID.TID 0000.0001) drF =   /* W spacing ( units of r ) */
(PID.TID 0000.0001)                 1.000000000000000E+05       /* K =  1 */
(PID.TID 0000.0001)     ;
(PID.TID 0000.0001) radius_fromHorizGrid = /* sphere Radius of input horiz. grid */
(PID.TID 0000.0001)                 6.370000000000000E+06
(PID.TID 0000.0001)     ;
(PID.TID 0000.0001) rSphere =  /* Radius ( ignored - cartesian, m - spherical ) */
(PID.TID 0000.0001)                 5.500400000000000E+06
(PID.TID 0000.0001)     ;
(PID.TID 0000.0001) deepAtmosphere = /* Deep/Shallow Atmosphere flag (True/False) */
(PID.TID 0000.0001)                   F
(PID.TID 0000.0001)     ;
(PID.TID 0000.0001) xC =  /* xC(:,1,:,1) : P-point X coord ( deg. or m if cartesian) */
(PID.TID 0000.0001)                 1.356047800523947E+02,      /* I =  1 */
(PID.TID 0000.0001)                 1.370435872772412E+02,      /* I =  2 */
(PID.TID 0000.0001)                 1.387794444661104E+02,      /* I =  3 */
(PID.TID 0000.0001)      . . .
(PID.TID 0000.0001)                -9.929180780271940E+01,      /* I = 46 */
(PID.TID 0000.0001)                -9.560347533582234E+01,      /* I = 47 */
(PID.TID 0000.0001)                -9.187260851303344E+01,      /* I = 48 */
(PID.TID 0000.0001)                -8.812739148696656E+01,      /* I = 49 */
(PID.TID 0000.0001)                -8.439652466417766E+01,      /* I = 50 */
(PID.TID 0000.0001)                -8.070819219728060E+01,      /* I = 51 */
(PID.TID 0000.0001)      . . .
(PID.TID 0000.0001)                -4.781369642513038E+01,      /* I = 94 */
(PID.TID 0000.0001)                -4.620805468796295E+01,      /* I = 95 */
(PID.TID 0000.0001)                -4.500000000000000E+01,      /* I = 96 */
(PID.TID 0000.0001)                -4.439521994760534E+01,      /* I = 97 */
(PID.TID 0000.0001)                -4.416320923386709E+01,      /* I = 98 */
(PID.TID 0000.0001)                -4.402796178188066E+01,      /* I = 99 */
(PID.TID 0000.0001)      . . .
(PID.TID 0000.0001)                 4.634889787907130E+01,      /* I =142 */
(PID.TID 0000.0001)                 4.635306005905802E+01,      /* I =143 */
(PID.TID 0000.0001)                 4.635509675007167E+01,      /* I =144 */
(PID.TID 0000.0001)                 4.635509675007167E+01,      /* I =145 */
(PID.TID 0000.0001)                 4.635306005905802E+01,      /* I =146 */
(PID.TID 0000.0001)                 4.634889787907130E+01,      /* I =147 */
(PID.TID 0000.0001)      . . .
(PID.TID 0000.0001)                -4.218630357486962E+01,      /* I =190 */
(PID.TID 0000.0001)                -4.379194531203705E+01,      /* I =191 */
(PID.TID 0000.0001)                -4.500000000000000E+01       /* I =192 */
(PID.TID 0000.0001)     ;
(PID.TID 0000.0001) yC =  /* yC(1,:,1,:) : P-point Y coord ( deg. or m if cartesian) */
(PID.TID 0000.0001)                -3.497677942598243E+01,      /* J =  1 */
(PID.TID 0000.0001)                -3.374005967394886E+01,      /* J =  2 */
(PID.TID 0000.0001)                -3.220655175667454E+01,      /* J =  3 */
(PID.TID 0000.0001)                -3.045756348838641E+01,      /* J =  4 */
(PID.TID 0000.0001)                -2.853728129852918E+01,      /* J =  5 */
(PID.TID 0000.0001)                -2.647426640173173E+01,      /* J =  6 */
(PID.TID 0000.0001)                -2.428936657094636E+01,      /* J =  7 */
(PID.TID 0000.0001)                -2.199915808312262E+01,      /* J =  8 */
(PID.TID 0000.0001)                -1.961768597440146E+01,      /* J =  9 */
(PID.TID 0000.0001)                -1.715743888281371E+01,      /* J = 10 */
(PID.TID 0000.0001)                -1.462993396899330E+01,      /* J = 11 */
(PID.TID 0000.0001)                -1.204608340464756E+01,      /* J = 12 */
(PID.TID 0000.0001)                -9.416429130284818E+00,      /* J = 13 */
(PID.TID 0000.0001)                -6.751293662992216E+00,      /* J = 14 */
(PID.TID 0000.0001)                -4.060875511835959E+00,      /* J = 15 */
(PID.TID 0000.0001)                -1.355307764409121E+00,      /* J = 16 */
(PID.TID 0000.0001)                 1.355307764409121E+00,      /* J = 17 */
(PID.TID 0000.0001)                 4.060875511835959E+00,      /* J = 18 */
(PID.TID 0000.0001)                 6.751293662992216E+00,      /* J = 19 */
(PID.TID 0000.0001)                 9.416429130284818E+00,      /* J = 20 */
(PID.TID 0000.0001)                 1.204608340464756E+01,      /* J = 21 */
(PID.TID 0000.0001)                 1.462993396899330E+01,      /* J = 22 */
(PID.TID 0000.0001)                 1.715743888281371E+01,      /* J = 23 */
(PID.TID 0000.0001)                 1.961768597440146E+01,      /* J = 24 */
(PID.TID 0000.0001)                 2.199915808312262E+01,      /* J = 25 */
(PID.TID 0000.0001)                 2.428936657094636E+01,      /* J = 26 */
(PID.TID 0000.0001)                 2.647426640173173E+01,      /* J = 27 */
(PID.TID 0000.0001)                 2.853728129852918E+01,      /* J = 28 */
(PID.TID 0000.0001)                 3.045756348838641E+01,      /* J = 29 */
(PID.TID 0000.0001)                 3.220655175667454E+01,      /* J = 30 */
(PID.TID 0000.0001)                 3.374005967394886E+01,      /* J = 31 */
(PID.TID 0000.0001)                 3.497677942598243E+01       /* J = 32 */
(PID.TID 0000.0001)     ;
(PID.TID 0000.0001) rcoord = /* P-point R coordinate (  units of r ) */
(PID.TID 0000.0001)                 5.000000000000000E+04       /* K =  1 */
(PID.TID 0000.0001)     ;
(PID.TID 0000.0001) rF =   /* W-Interf. R coordinate (  units of r ) */
(PID.TID 0000.0001)                 1.000000000000000E+05,      /* K =  1 */
(PID.TID 0000.0001)                 0.000000000000000E+00       /* K =  2 */
(PID.TID 0000.0001)     ;
(PID.TID 0000.0001) deepFacC = /* deep-model grid factor @ cell-Center (-) */
(PID.TID 0000.0001)                 1.000000000000000E+00       /* K =  1 */
(PID.TID 0000.0001)     ;
(PID.TID 0000.0001) deepFacF = /* deep-model grid factor @ W-Interface (-) */
(PID.TID 0000.0001)     2 @  1.000000000000000E+00              /* K =  1:  2 */
(PID.TID 0000.0001)     ;
(PID.TID 0000.0001) rVel2wUnit = /* convert units: rVel [Pa/s] -> wSpeed [m/s] */
(PID.TID 0000.0001)                 8.772389689820882E-02,      /* K =  1 */
(PID.TID 0000.0001)                 1.000000000000000E+00       /* K =  2 */
(PID.TID 0000.0001)     ;
(PID.TID 0000.0001) wUnit2rVel = /* convert units: wSpeed [m/s] -> rVel [Pa/s] */
(PID.TID 0000.0001)                 1.139940239043825E+01,      /* K =  1 */
(PID.TID 0000.0001)                 1.000000000000000E+00       /* K =  2 */
(PID.TID 0000.0001)     ;
(PID.TID 0000.0001) rUnit2z = /* convert units (@ center): dr [Pa] -> dz [m] */
(PID.TID 0000.0001)                 1.439260283847389E-01       /* K =  1 */
(PID.TID 0000.0001)     ;
(PID.TID 0000.0001) z2rUnit = /* convert units (@ center): dz [m] -> dr [Pa] */
(PID.TID 0000.0001)                 6.948013581857681E+00       /* K =  1 */
(PID.TID 0000.0001)     ;
(PID.TID 0000.0001) rotateGrid = /* use rotated grid ( True/False ) */
(PID.TID 0000.0001)                   F
(PID.TID 0000.0001)     ;
(PID.TID 0000.0001) phiEuler = /* Euler angle, rotation about original z-coordinate [rad] */
(PID.TID 0000.0001)                 0.000000000000000E+00
(PID.TID 0000.0001)     ;
(PID.TID 0000.0001) thetaEuler = /* Euler angle, rotation about new x-coordinate [rad] */
(PID.TID 0000.0001)                 0.000000000000000E+00
(PID.TID 0000.0001)     ;
(PID.TID 0000.0001) psiEuler = /* Euler angle, rotation about new z-coordinate [rad] */
(PID.TID 0000.0001)                 0.000000000000000E+00
(PID.TID 0000.0001)     ;
(PID.TID 0000.0001) dxF =  /* dxF(:,1,:,1) ( units: m ) */
(PID.TID 0000.0001)                 1.043232025376812E+05,      /* I =  1 */
(PID.TID 0000.0001)                 1.350398375506595E+05,      /* I =  2 */
(PID.TID 0000.0001)                 1.584994797865494E+05,      /* I =  3 */
(PID.TID 0000.0001)      . . .
(PID.TID 0000.0001)                 2.571892060626260E+05,      /* I = 46 */
(PID.TID 0000.0001)                 2.591290958310303E+05,      /* I = 47 */
(PID.TID 0000.0001)                 2.600982047198158E+05,      /* I = 48 */
(PID.TID 0000.0001)                 2.600982047198158E+05,      /* I = 49 */
(PID.TID 0000.0001)                 2.591290958310303E+05,      /* I = 50 */
(PID.TID 0000.0001)                 2.571892060626260E+05,      /* I = 51 */
(PID.TID 0000.0001)      . . .
(PID.TID 0000.0001)                 1.584994797865494E+05,      /* I = 94 */
(PID.TID 0000.0001)                 1.350398375506595E+05,      /* I = 95 */
(PID.TID 0000.0001)                 1.043232025376812E+05,      /* I = 96 */
(PID.TID 0000.0001)                 1.043232025376812E+05,      /* I = 97 */
(PID.TID 0000.0001)                 1.350398375506595E+05,      /* I = 98 */
(PID.TID 0000.0001)                 1.584994797865494E+05,      /* I = 99 */
(PID.TID 0000.0001)      . . .
(PID.TID 0000.0001)                 2.571892060626260E+05,      /* I =142 */
(PID.TID 0000.0001)                 2.591290958310303E+05,      /* I =143 */
(PID.TID 0000.0001)                 2.600982047198158E+05,      /* I =144 */
(PID.TID 0000.0001)                 2.600982047198158E+05,      /* I =145 */
(PID.TID 0000.0001)                 2.591290958310303E+05,      /* I =146 */
(PID.TID 0000.0001)                 2.571892060626260E+05,      /* I =147 */
(PID.TID 0000.0001)      . . .
(PID.TID 0000.0001)                 1.584994797865494E+05,      /* I =190 */
(PID.TID 0000.0001)                 1.350398375506595E+05,      /* I =191 */
(PID.TID 0000.0001)                 1.043232025376812E+05       /* I =192 */
(PID.TID 0000.0001)     ;
(PID.TID 0000.0001) dxF =  /* dxF(1,:,1,:) ( units: m ) */
(PID.TID 0000.0001)                 1.043232025376812E+05,      /* J =  1 */
(PID.TID 0000.0001)                 1.360259495073614E+05,      /* J =  2 */
(PID.TID 0000.0001)                 1.590165866485395E+05,      /* J =  3 */
(PID.TID 0000.0001)                 1.769747634573362E+05,      /* J =  4 */
(PID.TID 0000.0001)                 1.917662904342103E+05,      /* J =  5 */
(PID.TID 0000.0001)                 2.043171388037284E+05,      /* J =  6 */
(PID.TID 0000.0001)                 2.151342078836284E+05,      /* J =  7 */
(PID.TID 0000.0001)                 2.245150811831424E+05,      /* J =  8 */
(PID.TID 0000.0001)                 2.326419566107004E+05,      /* J =  9 */
(PID.TID 0000.0001)                 2.396286840289402E+05,      /* J = 10 */
(PID.TID 0000.0001)                 2.455466140262487E+05,      /* J = 11 */
(PID.TID 0000.0001)                 2.504399153319016E+05,      /* J = 12 */
(PID.TID 0000.0001)                 2.543352073729179E+05,      /* J = 13 */
(PID.TID 0000.0001)                 2.572478786330567E+05,      /* J = 14 */
(PID.TID 0000.0001)                 2.591863150256064E+05,      /* J = 15 */
(PID.TID 0000.0001)     2 @  2.601546932069473E+05,             /* J = 16: 17 */
(PID.TID 0000.0001)                 2.591863150256064E+05,      /* J = 18 */
(PID.TID 0000.0001)                 2.572478786330567E+05,      /* J = 19 */
(PID.TID 0000.0001)                 2.543352073729179E+05,      /* J = 20 */
(PID.TID 0000.0001)                 2.504399153319016E+05,      /* J = 21 */
(PID.TID 0000.0001)                 2.455466140262487E+05,      /* J = 22 */
(PID.TID 0000.0001)                 2.396286840289402E+05,      /* J = 23 */
(PID.TID 0000.0001)                 2.326419566107004E+05,      /* J = 24 */
(PID.TID 0000.0001)                 2.245150811831424E+05,      /* J = 25 */
(PID.TID 0000.0001)                 2.151342078836284E+05,      /* J = 26 */
(PID.TID 0000.0001)                 2.043171388037284E+05,      /* J = 27 */
(PID.TID 0000.0001)                 1.917662904342103E+05,      /* J = 28 */
(PID.TID 0000.0001)                 1.769747634573362E+05,      /* J = 29 */
(PID.TID 0000.0001)                 1.590165866485395E+05,      /* J = 30 */
(PID.TID 0000.0001)                 1.360259495073614E+05,      /* J = 31 */
(PID.TID 0000.0001)                 1.043232025376812E+05       /* J = 32 */
(PID.TID 0000.0001)     ;
(PID.TID 0000.0001) dyF =  /* dyF(:,1,:,1) ( units: m ) */
(PID.TID 0000.0001)                 1.043232025376812E+05,      /* I =  1 */
(PID.TID 0000.0001)                 1.360259495073614E+05,      /* I =  2 */
(PID.TID 0000.0001)                 1.590165866485395E+05,      /* I =  3 */
(PID.TID 0000.0001)      . . .
(PID.TID 0000.0001)                 2.572478786330567E+05,      /* I = 46 */
(PID.TID 0000.0001)                 2.591863150256064E+05,      /* I = 47 */
(PID.TID 0000.0001)                 2.601546932069473E+05,      /* I = 48 */
(PID.TID 0000.0001)                 2.601546932069473E+05,      /* I = 49 */
(PID.TID 0000.0001)                 2.591863150256064E+05,      /* I = 50 */
(PID.TID 0000.0001)                 2.572478786330567E+05,      /* I = 51 */
(PID.TID 0000.0001)      . . .
(PID.TID 0000.0001)                 1.590165866485395E+05,      /* I = 94 */
(PID.TID 0000.0001)                 1.360259495073614E+05,      /* I = 95 */
(PID.TID 0000.0001)                 1.043232025376812E+05,      /* I = 96 */
(PID.TID 0000.0001)                 1.043232025376812E+05,      /* I = 97 */
(PID.TID 0000.0001)                 1.360259495073614E+05,      /* I = 98 */
(PID.TID 0000.0001)                 1.590165866485395E+05,      /* I = 99 */
(PID.TID 0000.0001)      . . .
(PID.TID 0000.0001)                 2.572478786330567E+05,      /* I =142 */
(PID.TID 0000.0001)                 2.591863150256064E+05,      /* I =143 */
(PID.TID 0000.0001)                 2.601546932069473E+05,      /* I =144 */
(PID.TID 0000.0001)                 2.601546932069473E+05,      /* I =145 */
(PID.TID 0000.0001)                 2.591863150256064E+05,      /* I =146 */
(PID.TID 0000.0001)                 2.572478786330567E+05,      /* I =147 */
(PID.TID 0000.0001)      . . .
(PID.TID 0000.0001)                 1.590165866485395E+05,      /* I =190 */
(PID.TID 0000.0001)                 1.360259495073614E+05,      /* I =191 */
(PID.TID 0000.0001)                 1.043232025376812E+05       /* I =192 */
(PID.TID 0000.0001)     ;
(PID.TID 0000.0001) dyF =  /* dyF(1,:,1,:) ( units: m ) */
(PID.TID 0000.0001)                 1.043232025376812E+05,      /* J =  1 */
(PID.TID 0000.0001)                 1.350398375506595E+05,      /* J =  2 */
(PID.TID 0000.0001)                 1.584994797865494E+05,      /* J =  3 */
(PID.TID 0000.0001)                 1.766602103584978E+05,      /* J =  4 */
(PID.TID 0000.0001)                 1.915517229228148E+05,      /* J =  5 */
(PID.TID 0000.0001)                 2.041585781111247E+05,      /* J =  6 */
(PID.TID 0000.0001)                 2.150098643201959E+05,      /* J =  7 */
(PID.TID 0000.0001)                 2.244129086319641E+05,      /* J =  8 */
(PID.TID 0000.0001)                 2.325547283558883E+05,      /* J =  9 */
(PID.TID 0000.0001)                 2.395517868763695E+05,      /* J = 10 */
(PID.TID 0000.0001)                 2.454769571864923E+05,      /* J = 11 */
(PID.TID 0000.0001)                 2.503753447949989E+05,      /* J = 12 */
(PID.TID 0000.0001)                 2.542741681643369E+05,      /* J = 13 */
(PID.TID 0000.0001)                 2.571892060626260E+05,      /* J = 14 */
(PID.TID 0000.0001)                 2.591290958310303E+05,      /* J = 15 */
(PID.TID 0000.0001)     2 @  2.600982047198158E+05,             /* J = 16: 17 */
(PID.TID 0000.0001)                 2.591290958310303E+05,      /* J = 18 */
(PID.TID 0000.0001)                 2.571892060626260E+05,      /* J = 19 */
(PID.TID 0000.0001)                 2.542741681643369E+05,      /* J = 20 */
(PID.TID 0000.0001)                 2.503753447949989E+05,      /* J = 21 */
(PID.TID 0000.0001)                 2.454769571864923E+05,      /* J = 22 */
(PID.TID 0000.0001)                 2.395517868763695E+05,      /* J = 23 */
(PID.TID 0000.0001)                 2.325547283558883E+05,      /* J = 24 */
(PID.TID 0000.0001)                 2.244129086319641E+05,      /* J = 25 */
(PID.TID 0000.0001)                 2.150098643201959E+05,      /* J = 26 */
(PID.TID 0000.0001)                 2.041585781111247E+05,      /* J = 27 */
(PID.TID 0000.0001)                 1.915517229228148E+05,      /* J = 28 */
(PID.TID 0000.0001)                 1.766602103584978E+05,      /* J = 29 */
(PID.TID 0000.0001)                 1.584994797865494E+05,      /* J = 30 */
(PID.TID 0000.0001)                 1.350398375506595E+05,      /* J = 31 */
(PID.TID 0000.0001)                 1.043232025376812E+05       /* J = 32 */
(PID.TID 0000.0001)     ;
(PID.TID 0000.0001) dxG =  /* dxG(:,1,:,1) ( units: m ) */
(PID.TID 0000.0001)                 8.719798806813839E+04,      /* I =  1 */
(PID.TID 0000.0001)                 1.325022902847571E+05,      /* I =  2 */
(PID.TID 0000.0001)                 1.574411008142501E+05,      /* I =  3 */
(PID.TID 0000.0001)      . . .
(PID.TID 0000.0001)                 2.571344528554192E+05,      /* I = 46 */
(PID.TID 0000.0001)                 2.590783461358493E+05,      /* I = 47 */
(PID.TID 0000.0001)                 2.600493988726566E+05,      /* I = 48 */
(PID.TID 0000.0001)                 2.600493988726566E+05,      /* I = 49 */
(PID.TID 0000.0001)                 2.590783461358493E+05,      /* I = 50 */
(PID.TID 0000.0001)                 2.571344528554192E+05,      /* I = 51 */
(PID.TID 0000.0001)      . . .
(PID.TID 0000.0001)                 1.574411008142501E+05,      /* I = 94 */
(PID.TID 0000.0001)                 1.325022902847571E+05,      /* I = 95 */
(PID.TID 0000.0001)                 8.719798806813839E+04,      /* I = 96 */
(PID.TID 0000.0001)                 8.719798806813839E+04,      /* I = 97 */
(PID.TID 0000.0001)                 1.325022902847571E+05,      /* I = 98 */
(PID.TID 0000.0001)                 1.574411008142501E+05,      /* I = 99 */
(PID.TID 0000.0001)      . . .
(PID.TID 0000.0001)                 2.571344528554192E+05,      /* I =142 */
(PID.TID 0000.0001)                 2.590783461358493E+05,      /* I =143 */
(PID.TID 0000.0001)                 2.600493988726566E+05,      /* I =144 */
(PID.TID 0000.0001)                 2.600493988726566E+05,      /* I =145 */
(PID.TID 0000.0001)                 2.590783461358493E+05,      /* I =146 */
(PID.TID 0000.0001)                 2.571344528554192E+05,      /* I =147 */
(PID.TID 0000.0001)      . . .
(PID.TID 0000.0001)                 1.574411008142501E+05,      /* I =190 */
(PID.TID 0000.0001)                 1.325022902847571E+05,      /* I =191 */
(PID.TID 0000.0001)                 8.719798806813839E+04       /* I =192 */
(PID.TID 0000.0001)     ;
(PID.TID 0000.0001) dxG =  /* dxG(1,:,1,:) ( units: m ) */
(PID.TID 0000.0001)                 8.719798806813839E+04,      /* J =  1 */
(PID.TID 0000.0001)                 1.215400928969537E+05,      /* J =  2 */
(PID.TID 0000.0001)                 1.483305444942558E+05,      /* J =  3 */
(PID.TID 0000.0001)                 1.684762958317254E+05,      /* J =  4 */
(PID.TID 0000.0001)                 1.846948485247854E+05,      /* J =  5 */
(PID.TID 0000.0001)                 1.982835915663078E+05,      /* J =  6 */
(PID.TID 0000.0001)                 2.099203179788405E+05,      /* J =  7 */
(PID.TID 0000.0001)                 2.199907707626665E+05,      /* J =  8 */
(PID.TID 0000.0001)                 2.287269225080907E+05,      /* J =  9 */
(PID.TID 0000.0001)                 2.362725987189878E+05,      /* J = 10 */
(PID.TID 0000.0001)                 2.427179842648314E+05,      /* J = 11 */
(PID.TID 0000.0001)                 2.481193546651824E+05,      /* J = 12 */
(PID.TID 0000.0001)                 2.525111452433966E+05,      /* J = 13 */
(PID.TID 0000.0001)                 2.559137210047314E+05,      /* J = 14 */
(PID.TID 0000.0001)                 2.583385412516212E+05,      /* J = 15 */
(PID.TID 0000.0001)                 2.597916115378253E+05,      /* J = 16 */
(PID.TID 0000.0001)                 2.602757049972834E+05,      /* J = 17 */
(PID.TID 0000.0001)                 2.597916115378253E+05,      /* J = 18 */
(PID.TID 0000.0001)                 2.583385412516212E+05,      /* J = 19 */
(PID.TID 0000.0001)                 2.559137210047314E+05,      /* J = 20 */
(PID.TID 0000.0001)                 2.525111452433966E+05,      /* J = 21 */
(PID.TID 0000.0001)                 2.481193546651824E+05,      /* J = 22 */
(PID.TID 0000.0001)                 2.427179842648314E+05,      /* J = 23 */
(PID.TID 0000.0001)                 2.362725987189878E+05,      /* J = 24 */
(PID.TID 0000.0001)                 2.287269225080907E+05,      /* J = 25 */
(PID.TID 0000.0001)                 2.199907707626665E+05,      /* J = 26 */
(PID.TID 0000.0001)                 2.099203179788405E+05,      /* J = 27 */
(PID.TID 0000.0001)                 1.982835915663078E+05,      /* J = 28 */
(PID.TID 0000.0001)                 1.846948485247854E+05,      /* J = 29 */
(PID.TID 0000.0001)                 1.684762958317254E+05,      /* J = 30 */
(PID.TID 0000.0001)                 1.483305444942558E+05,      /* J = 31 */
(PID.TID 0000.0001)                 1.215400928969537E+05       /* J = 32 */
(PID.TID 0000.0001)     ;
(PID.TID 0000.0001) dyG =  /* dyG(:,1,:,1) ( units: m ) */
(PID.TID 0000.0001)                 8.719798806813839E+04,      /* I =  1 */
(PID.TID 0000.0001)                 1.215400928969537E+05,      /* I =  2 */
(PID.TID 0000.0001)                 1.483305444942558E+05,      /* I =  3 */
(PID.TID 0000.0001)      . . .
(PID.TID 0000.0001)                 2.559137210047314E+05,      /* I = 46 */
(PID.TID 0000.0001)                 2.583385412516212E+05,      /* I = 47 */
(PID.TID 0000.0001)                 2.597916115378253E+05,      /* I = 48 */
(PID.TID 0000.0001)                 2.602757049972834E+05,      /* I = 49 */
(PID.TID 0000.0001)                 2.597916115378253E+05,      /* I = 50 */
(PID.TID 0000.0001)                 2.583385412516212E+05,      /* I = 51 */
(PID.TID 0000.0001)      . . .
(PID.TID 0000.0001)                 1.684762958317254E+05,      /* I = 94 */
(PID.TID 0000.0001)                 1.483305444942558E+05,      /* I = 95 */
(PID.TID 0000.0001)                 1.215400928969537E+05,      /* I = 96 */
(PID.TID 0000.0001)                 8.719798806813839E+04,      /* I = 97 */
(PID.TID 0000.0001)                 1.215400928969537E+05,      /* I = 98 */
(PID.TID 0000.0001)                 1.483305444942558E+05,      /* I = 99 */
(PID.TID 0000.0001)      . . .
(PID.TID 0000.0001)                 2.559137210047314E+05,      /* I =142 */
(PID.TID 0000.0001)                 2.583385412516212E+05,      /* I =143 */
(PID.TID 0000.0001)                 2.597916115378253E+05,      /* I =144 */
(PID.TID 0000.0001)                 2.602757049972834E+05,      /* I =145 */
(PID.TID 0000.0001)                 2.597916115378253E+05,      /* I =146 */
(PID.TID 0000.0001)                 2.583385412516212E+05,      /* I =147 */
(PID.TID 0000.0001)      . . .
(PID.TID 0000.0001)                 1.684762958317254E+05,      /* I =190 */
(PID.TID 0000.0001)                 1.483305444942558E+05,      /* I =191 */
(PID.TID 0000.0001)                 1.215400928969537E+05       /* I =192 */
(PID.TID 0000.0001)     ;
(PID.TID 0000.0001) dyG =  /* dyG(1,:,1,:) ( units: m ) */
(PID.TID 0000.0001)                 8.719798806813839E+04,      /* J =  1 */
(PID.TID 0000.0001)                 1.325022902847571E+05,      /* J =  2 */
(PID.TID 0000.0001)                 1.574411008142501E+05,      /* J =  3 */
(PID.TID 0000.0001)                 1.760645266885483E+05,      /* J =  4 */
(PID.TID 0000.0001)                 1.911656449174595E+05,      /* J =  5 */
(PID.TID 0000.0001)                 2.038871088299416E+05,      /* J =  6 */
(PID.TID 0000.0001)                 2.148086202346989E+05,      /* J =  7 */
(PID.TID 0000.0001)                 2.242580400554964E+05,      /* J =  8 */
(PID.TID 0000.0001)                 2.324320770105831E+05,      /* J =  9 */
(PID.TID 0000.0001)                 2.394522758938683E+05,      /* J = 10 */
(PID.TID 0000.0001)                 2.453943853697190E+05,      /* J = 11 */
(PID.TID 0000.0001)                 2.503052315016910E+05,      /* J = 12 */
(PID.TID 0000.0001)                 2.542131020363118E+05,      /* J = 13 */
(PID.TID 0000.0001)                 2.571344528554192E+05,      /* J = 14 */
(PID.TID 0000.0001)                 2.590783461358493E+05,      /* J = 15 */
(PID.TID 0000.0001)     2 @  2.600493988726566E+05,             /* J = 16: 17 */
(PID.TID 0000.0001)                 2.590783461358493E+05,      /* J = 18 */
(PID.TID 0000.0001)                 2.571344528554192E+05,      /* J = 19 */
(PID.TID 0000.0001)                 2.542131020363118E+05,      /* J = 20 */
(PID.TID 0000.0001)                 2.503052315016910E+05,      /* J = 21 */
(PID.TID 0000.0001)                 2.453943853697190E+05,      /* J = 22 */
(PID.TID 0000.0001)                 2.394522758938683E+05,      /* J = 23 */
(PID.TID 0000.0001)                 2.324320770105831E+05,      /* J = 24 */
(PID.TID 0000.0001)                 2.242580400554964E+05,      /* J = 25 */
(PID.TID 0000.0001)                 2.148086202346989E+05,      /* J = 26 */
(PID.TID 0000.0001)                 2.038871088299416E+05,      /* J = 27 */
(PID.TID 0000.0001)                 1.911656449174595E+05,      /* J = 28 */
(PID.TID 0000.0001)                 1.760645266885483E+05,      /* J = 29 */
(PID.TID 0000.0001)                 1.574411008142501E+05,      /* J = 30 */
(PID.TID 0000.0001)                 1.325022902847571E+05,      /* J = 31 */
(PID.TID 0000.0001)                 8.719798806813839E+04       /* J = 32 */
(PID.TID 0000.0001)     ;
(PID.TID 0000.0001) dxC =  /* dxC(:,1,:,1) ( units: m ) */
(PID.TID 0000.0001)                 9.642081457914457E+04,      /* I =  1 */
(PID.TID 0000.0001)                 1.202390508551802E+05,      /* I =  2 */
(PID.TID 0000.0001)                 1.476286271514363E+05,      /* I =  3 */
(PID.TID 0000.0001)      . . .
(PID.TID 0000.0001)                 2.558539922946036E+05,      /* I = 46 */
(PID.TID 0000.0001)                 2.582806980406931E+05,      /* I = 47 */
(PID.TID 0000.0001)                 2.597348270309728E+05,      /* I = 48 */
(PID.TID 0000.0001)                 2.602193408475292E+05,      /* I = 49 */
(PID.TID 0000.0001)                 2.597348270309728E+05,      /* I = 50 */
(PID.TID 0000.0001)                 2.582806980406931E+05,      /* I = 51 */
(PID.TID 0000.0001)      . . .
(PID.TID 0000.0001)                 1.680798493437981E+05,      /* I = 94 */
(PID.TID 0000.0001)                 1.476286271514363E+05,      /* I = 95 */
(PID.TID 0000.0001)                 1.202390508551802E+05,      /* I = 96 */
(PID.TID 0000.0001)                 9.642081457914457E+04,      /* I = 97 */
(PID.TID 0000.0001)                 1.202390508551802E+05,      /* I = 98 */
(PID.TID 0000.0001)                 1.476286271514363E+05,      /* I = 99 */
(PID.TID 0000.0001)      . . .
(PID.TID 0000.0001)                 2.558539922946036E+05,      /* I =142 */
(PID.TID 0000.0001)                 2.582806980406931E+05,      /* I =143 */
(PID.TID 0000.0001)                 2.597348270309728E+05,      /* I =144 */
(PID.TID 0000.0001)                 2.602193408475292E+05,      /* I =145 */
(PID.TID 0000.0001)                 2.597348270309728E+05,      /* I =146 */
(PID.TID 0000.0001)                 2.582806980406931E+05,      /* I =147 */
(PID.TID 0000.0001)      . . .
(PID.TID 0000.0001)                 1.680798493437981E+05,      /* I =190 */
(PID.TID 0000.0001)                 1.476286271514363E+05,      /* I =191 */
(PID.TID 0000.0001)                 1.202390508551802E+05       /* I =192 */
(PID.TID 0000.0001)     ;
(PID.TID 0000.0001) dxC =  /* dxC(1,:,1,:) ( units: m ) */
(PID.TID 0000.0001)                 9.642081457914457E+04,      /* J =  1 */
(PID.TID 0000.0001)                 1.338493717068909E+05,      /* J =  2 */
(PID.TID 0000.0001)                 1.580197672766421E+05,      /* J =  3 */
(PID.TID 0000.0001)                 1.763976240585757E+05,      /* J =  4 */
(PID.TID 0000.0001)                 1.913877319661116E+05,      /* J =  5 */
(PID.TID 0000.0001)                 2.040493295011744E+05,      /* J =  6 */
(PID.TID 0000.0001)                 2.149349813362001E+05,      /* J =  7 */
(PID.TID 0000.0001)                 2.243614312261884E+05,      /* J =  8 */
(PID.TID 0000.0001)                 2.325200957930750E+05,      /* J =  9 */
(PID.TID 0000.0001)                 2.395297170591370E+05,      /* J = 10 */
(PID.TID 0000.0001)                 2.454644365097566E+05,      /* J = 11 */
(PID.TID 0000.0001)                 2.503701020570073E+05,      /* J = 12 */
(PID.TID 0000.0001)                 2.542743808609629E+05,      /* J = 13 */
(PID.TID 0000.0001)                 2.571933267711780E+05,      /* J = 14 */
(PID.TID 0000.0001)                 2.591357440101855E+05,      /* J = 15 */
(PID.TID 0000.0001)     2 @  2.601060554583475E+05,             /* J = 16: 17 */
(PID.TID 0000.0001)                 2.591357440101855E+05,      /* J = 18 */
(PID.TID 0000.0001)                 2.571933267711780E+05,      /* J = 19 */
(PID.TID 0000.0001)                 2.542743808609629E+05,      /* J = 20 */
(PID.TID 0000.0001)                 2.503701020570073E+05,      /* J = 21 */
(PID.TID 0000.0001)                 2.454644365097566E+05,      /* J = 22 */
(PID.TID 0000.0001)                 2.395297170591370E+05,      /* J = 23 */
(PID.TID 0000.0001)                 2.325200957930750E+05,      /* J = 24 */
(PID.TID 0000.0001)                 2.243614312261884E+05,      /* J = 25 */
(PID.TID 0000.0001)                 2.149349813362001E+05,      /* J = 26 */
(PID.TID 0000.0001)                 2.040493295011744E+05,      /* J = 27 */
(PID.TID 0000.0001)                 1.913877319661116E+05,      /* J = 28 */
(PID.TID 0000.0001)                 1.763976240585757E+05,      /* J = 29 */
(PID.TID 0000.0001)                 1.580197672766421E+05,      /* J = 30 */
(PID.TID 0000.0001)                 1.338493717068909E+05,      /* J = 31 */
(PID.TID 0000.0001)                 9.642081457914457E+04       /* J = 32 */
(PID.TID 0000.0001)     ;
(PID.TID 0000.0001) dyC =  /* dyC(:,1,:,1) ( units: m ) */
(PID.TID 0000.0001)                 9.642081457914457E+04,      /* I =  1 */
(PID.TID 0000.0001)                 1.338493717068909E+05,      /* I =  2 */
(PID.TID 0000.0001)                 1.580197672766421E+05,      /* I =  3 */
(PID.TID 0000.0001)      . . .
(PID.TID 0000.0001)                 2.571933267711780E+05,      /* I = 46 */
(PID.TID 0000.0001)                 2.591357440101855E+05,      /* I = 47 */
(PID.TID 0000.0001)                 2.601060554583475E+05,      /* I = 48 */
(PID.TID 0000.0001)                 2.601060554583475E+05,      /* I = 49 */
(PID.TID 0000.0001)                 2.591357440101855E+05,      /* I = 50 */
(PID.TID 0000.0001)                 2.571933267711780E+05,      /* I = 51 */
(PID.TID 0000.0001)      . . .
(PID.TID 0000.0001)                 1.580197672766421E+05,      /* I = 94 */
(PID.TID 0000.0001)                 1.338493717068909E+05,      /* I = 95 */
(PID.TID 0000.0001)                 9.642081457914457E+04,      /* I = 96 */
(PID.TID 0000.0001)                 9.642081457914457E+04,      /* I = 97 */
(PID.TID 0000.0001)                 1.338493717068909E+05,      /* I = 98 */
(PID.TID 0000.0001)                 1.580197672766421E+05,      /* I = 99 */
(PID.TID 0000.0001)      . . .
(PID.TID 0000.0001)                 2.571933267711780E+05,      /* I =142 */
(PID.TID 0000.0001)                 2.591357440101855E+05,      /* I =143 */
(PID.TID 0000.0001)                 2.601060554583475E+05,      /* I =144 */
(PID.TID 0000.0001)                 2.601060554583475E+05,      /* I =145 */
(PID.TID 0000.0001)                 2.591357440101855E+05,      /* I =146 */
(PID.TID 0000.0001)                 2.571933267711780E+05,      /* I =147 */
(PID.TID 0000.0001)      . . .
(PID.TID 0000.0001)                 1.580197672766421E+05,      /* I =190 */
(PID.TID 0000.0001)                 1.338493717068909E+05,      /* I =191 */
(PID.TID 0000.0001)                 9.642081457914457E+04       /* I =192 */
(PID.TID 0000.0001)     ;
(PID.TID 0000.0001) dyC =  /* dyC(1,:,1,:) ( units: m ) */
(PID.TID 0000.0001)                 9.642081457914457E+04,      /* J =  1 */
(PID.TID 0000.0001)                 1.202390508551802E+05,      /* J =  2 */
(PID.TID 0000.0001)                 1.476286271514363E+05,      /* J =  3 */
(PID.TID 0000.0001)                 1.680798493437981E+05,      /* J =  4 */
(PID.TID 0000.0001)                 1.844380920417606E+05,      /* J =  5 */
(PID.TID 0000.0001)                 1.981006965166214E+05,      /* J =  6 */
(PID.TID 0000.0001)                 2.097808139697324E+05,      /* J =  7 */
(PID.TID 0000.0001)                 2.198786455312296E+05,      /* J =  8 */
(PID.TID 0000.0001)                 2.286329277935104E+05,      /* J =  9 */
(PID.TID 0000.0001)                 2.361909996381773E+05,      /* J = 10 */
(PID.TID 0000.0001)                 2.426450250439773E+05,      /* J = 11 */
(PID.TID 0000.0001)                 2.480524667700506E+05,      /* J = 12 */
(PID.TID 0000.0001)                 2.524485064759648E+05,      /* J = 13 */
(PID.TID 0000.0001)                 2.558539922946036E+05,      /* J = 14 */
(PID.TID 0000.0001)                 2.582806980406931E+05,      /* J = 15 */
(PID.TID 0000.0001)                 2.597348270309728E+05,      /* J = 16 */
(PID.TID 0000.0001)                 2.602193408475292E+05,      /* J = 17 */
(PID.TID 0000.0001)                 2.597348270309728E+05,      /* J = 18 */
(PID.TID 0000.0001)                 2.582806980406931E+05,      /* J = 19 */
(PID.TID 0000.0001)                 2.558539922946036E+05,      /* J = 20 */
(PID.TID 0000.0001)                 2.524485064759648E+05,      /* J = 21 */
(PID.TID 0000.0001)                 2.480524667700506E+05,      /* J = 22 */
(PID.TID 0000.0001)                 2.426450250439773E+05,      /* J = 23 */
(PID.TID 0000.0001)                 2.361909996381773E+05,      /* J = 24 */
(PID.TID 0000.0001)                 2.286329277935104E+05,      /* J = 25 */
(PID.TID 0000.0001)                 2.198786455312296E+05,      /* J = 26 */
(PID.TID 0000.0001)                 2.097808139697324E+05,      /* J = 27 */
(PID.TID 0000.0001)                 1.981006965166214E+05,      /* J = 28 */
(PID.TID 0000.0001)                 1.844380920417606E+05,      /* J = 29 */
(PID.TID 0000.0001)                 1.680798493437981E+05,      /* J = 30 */
(PID.TID 0000.0001)                 1.476286271514363E+05,      /* J = 31 */
(PID.TID 0000.0001)                 1.202390508551802E+05       /* J = 32 */
(PID.TID 0000.0001)     ;
(PID.TID 0000.0001) dxV =  /* dxV(:,1,:,1) ( units: m ) */
(PID.TID 0000.0001)                 6.921031553409361E+04,      /* I =  1 */
(PID.TID 0000.0001)                 1.151138516393233E+05,      /* I =  2 */
(PID.TID 0000.0001)                 1.460796463522274E+05,      /* I =  3 */
(PID.TID 0000.0001)      . . .
(PID.TID 0000.0001)                 2.557963930674999E+05,      /* I = 46 */
(PID.TID 0000.0001)                 2.582282161710741E+05,      /* I = 47 */
(PID.TID 0000.0001)                 2.596852966388460E+05,      /* I = 48 */
(PID.TID 0000.0001)                 2.601707753636662E+05,      /* I = 49 */
(PID.TID 0000.0001)                 2.596852966388460E+05,      /* I = 50 */
(PID.TID 0000.0001)                 2.582282161710741E+05,      /* I = 51 */
(PID.TID 0000.0001)      . . .
(PID.TID 0000.0001)                 1.673043977226543E+05,      /* I = 94 */
(PID.TID 0000.0001)                 1.460796463522274E+05,      /* I = 95 */
(PID.TID 0000.0001)                 1.151138516393233E+05,      /* I = 96 */
(PID.TID 0000.0001)                 6.921031553409361E+04,      /* I = 97 */
(PID.TID 0000.0001)                 1.151138516393233E+05,      /* I = 98 */
(PID.TID 0000.0001)                 1.460796463522274E+05,      /* I = 99 */
(PID.TID 0000.0001)      . . .
(PID.TID 0000.0001)                 2.557963930674999E+05,      /* I =142 */
(PID.TID 0000.0001)                 2.582282161710741E+05,      /* I =143 */
(PID.TID 0000.0001)                 2.596852966388460E+05,      /* I =144 */
(PID.TID 0000.0001)                 2.601707753636662E+05,      /* I =145 */
(PID.TID 0000.0001)                 2.596852966388460E+05,      /* I =146 */
(PID.TID 0000.0001)                 2.582282161710741E+05,      /* I =147 */
(PID.TID 0000.0001)      . . .
(PID.TID 0000.0001)                 1.673043977226543E+05,      /* I =190 */
(PID.TID 0000.0001)                 1.460796463522274E+05,      /* I =191 */
(PID.TID 0000.0001)                 1.151138516393233E+05       /* I =192 */
(PID.TID 0000.0001)     ;
(PID.TID 0000.0001) dxV =  /* dxV(1,:,1,:) ( units: m ) */
(PID.TID 0000.0001)                 6.921031553409361E+04,      /* J =  1 */
(PID.TID 0000.0001)                 1.177523062927098E+05,      /* J =  2 */
(PID.TID 0000.0001)                 1.469163292220671E+05,      /* J =  3 */
(PID.TID 0000.0001)                 1.677330388248114E+05,      /* J =  4 */
(PID.TID 0000.0001)                 1.842328775054161E+05,      /* J =  5 */
(PID.TID 0000.0001)                 1.979675706707192E+05,      /* J =  6 */
(PID.TID 0000.0001)                 2.096905326430060E+05,      /* J =  7 */
(PID.TID 0000.0001)                 2.198164902965442E+05,      /* J =  8 */
(PID.TID 0000.0001)                 2.285905183371472E+05,      /* J =  9 */
(PID.TID 0000.0001)                 2.361630881830310E+05,      /* J = 10 */
(PID.TID 0000.0001)                 2.426280512491206E+05,      /* J = 11 */
(PID.TID 0000.0001)                 2.480438358012934E+05,      /* J = 12 */
(PID.TID 0000.0001)                 2.524461989568251E+05,      /* J = 13 */
(PID.TID 0000.0001)                 2.558563399890152E+05,      /* J = 14 */
(PID.TID 0000.0001)                 2.582862477173212E+05,      /* J = 15 */
(PID.TID 0000.0001)                 2.597422531655770E+05,      /* J = 16 */
(PID.TID 0000.0001)                 2.602273063088892E+05,      /* J = 17 */
(PID.TID 0000.0001)                 2.597422531655770E+05,      /* J = 18 */
(PID.TID 0000.0001)                 2.582862477173212E+05,      /* J = 19 */
(PID.TID 0000.0001)                 2.558563399890152E+05,      /* J = 20 */
(PID.TID 0000.0001)                 2.524461989568251E+05,      /* J = 21 */
(PID.TID 0000.0001)                 2.480438358012934E+05,      /* J = 22 */
(PID.TID 0000.0001)                 2.426280512491206E+05,      /* J = 23 */
(PID.TID 0000.0001)                 2.361630881830310E+05,      /* J = 24 */
(PID.TID 0000.0001)                 2.285905183371472E+05,      /* J = 25 */
(PID.TID 0000.0001)                 2.198164902965442E+05,      /* J = 26 */
(PID.TID 0000.0001)                 2.096905326430060E+05,      /* J = 27 */
(PID.TID 0000.0001)                 1.979675706707192E+05,      /* J = 28 */
(PID.TID 0000.0001)                 1.842328775054161E+05,      /* J = 29 */
(PID.TID 0000.0001)                 1.677330388248114E+05,      /* J = 30 */
(PID.TID 0000.0001)                 1.469163292220671E+05,      /* J = 31 */
(PID.TID 0000.0001)                 1.177523062927098E+05       /* J = 32 */
(PID.TID 0000.0001)     ;
(PID.TID 0000.0001) dyU =  /* dyU(:,1,:,1) ( units: m ) */
(PID.TID 0000.0001)                 6.921031553409361E+04,      /* I =  1 */
(PID.TID 0000.0001)                 1.177523062927098E+05,      /* I =  2 */
(PID.TID 0000.0001)                 1.469163292220671E+05,      /* I =  3 */
(PID.TID 0000.0001)      . . .
(PID.TID 0000.0001)                 2.558563399890152E+05,      /* I = 46 */
(PID.TID 0000.0001)                 2.582862477173212E+05,      /* I = 47 */
(PID.TID 0000.0001)                 2.597422531655770E+05,      /* I = 48 */
(PID.TID 0000.0001)                 2.602273063088892E+05,      /* I = 49 */
(PID.TID 0000.0001)                 2.597422531655770E+05,      /* I = 50 */
(PID.TID 0000.0001)                 2.582862477173212E+05,      /* I = 51 */
(PID.TID 0000.0001)      . . .
(PID.TID 0000.0001)                 1.677330388248114E+05,      /* I = 94 */
(PID.TID 0000.0001)                 1.469163292220671E+05,      /* I = 95 */
(PID.TID 0000.0001)                 1.177523062927098E+05,      /* I = 96 */
(PID.TID 0000.0001)                 6.921031553409361E+04,      /* I = 97 */
(PID.TID 0000.0001)                 1.177523062927098E+05,      /* I = 98 */
(PID.TID 0000.0001)                 1.469163292220671E+05,      /* I = 99 */
(PID.TID 0000.0001)      . . .
(PID.TID 0000.0001)                 2.558563399890152E+05,      /* I =142 */
(PID.TID 0000.0001)                 2.582862477173212E+05,      /* I =143 */
(PID.TID 0000.0001)                 2.597422531655770E+05,      /* I =144 */
(PID.TID 0000.0001)                 2.602273063088892E+05,      /* I =145 */
(PID.TID 0000.0001)                 2.597422531655770E+05,      /* I =146 */
(PID.TID 0000.0001)                 2.582862477173212E+05,      /* I =147 */
(PID.TID 0000.0001)      . . .
(PID.TID 0000.0001)                 1.677330388248114E+05,      /* I =190 */
(PID.TID 0000.0001)                 1.469163292220671E+05,      /* I =191 */
(PID.TID 0000.0001)                 1.177523062927098E+05       /* I =192 */
(PID.TID 0000.0001)     ;
(PID.TID 0000.0001) dyU =  /* dyU(1,:,1,:) ( units: m ) */
(PID.TID 0000.0001)                 6.921031553409361E+04,      /* J =  1 */
(PID.TID 0000.0001)                 1.151138516393233E+05,      /* J =  2 */
(PID.TID 0000.0001)                 1.460796463522274E+05,      /* J =  3 */
(PID.TID 0000.0001)                 1.673043977226543E+05,      /* J =  4 */
(PID.TID 0000.0001)                 1.839646390186308E+05,      /* J =  5 */
(PID.TID 0000.0001)                 1.977795251039204E+05,      /* J =  6 */
(PID.TID 0000.0001)                 2.095483466074213E+05,      /* J =  7 */
(PID.TID 0000.0001)                 2.197028125964526E+05,      /* J =  8 */
(PID.TID 0000.0001)                 2.284955499477125E+05,      /* J =  9 */
(PID.TID 0000.0001)                 2.360808377786096E+05,      /* J = 10 */
(PID.TID 0000.0001)                 2.425546317433837E+05,      /* J = 11 */
(PID.TID 0000.0001)                 2.479766060194824E+05,      /* J = 12 */
(PID.TID 0000.0001)                 2.523832937132704E+05,      /* J = 13 */
(PID.TID 0000.0001)                 2.557963930674999E+05,      /* J = 14 */
(PID.TID 0000.0001)                 2.582282161710741E+05,      /* J = 15 */
(PID.TID 0000.0001)                 2.596852966388460E+05,      /* J = 16 */
(PID.TID 0000.0001)                 2.601707753636662E+05,      /* J = 17 */
(PID.TID 0000.0001)                 2.596852966388460E+05,      /* J = 18 */
(PID.TID 0000.0001)                 2.582282161710741E+05,      /* J = 19 */
(PID.TID 0000.0001)                 2.557963930674999E+05,      /* J = 20 */
(PID.TID 0000.0001)                 2.523832937132704E+05,      /* J = 21 */
(PID.TID 0000.0001)                 2.479766060194824E+05,      /* J = 22 */
(PID.TID 0000.0001)                 2.425546317433837E+05,      /* J = 23 */
(PID.TID 0000.0001)                 2.360808377786096E+05,      /* J = 24 */
(PID.TID 0000.0001)                 2.284955499477125E+05,      /* J = 25 */
(PID.TID 0000.0001)                 2.197028125964526E+05,      /* J = 26 */
(PID.TID 0000.0001)                 2.095483466074213E+05,      /* J = 27 */
(PID.TID 0000.0001)                 1.977795251039204E+05,      /* J = 28 */
(PID.TID 0000.0001)                 1.839646390186308E+05,      /* J = 29 */
(PID.TID 0000.0001)                 1.673043977226543E+05,      /* J = 30 */
(PID.TID 0000.0001)                 1.460796463522274E+05,      /* J = 31 */
(PID.TID 0000.0001)                 1.151138516393233E+05       /* J = 32 */
(PID.TID 0000.0001)     ;
(PID.TID 0000.0001) rA  =  /* rA (:,1,:,1) ( units: m^2 ) */
(PID.TID 0000.0001)                 1.105878862084456E+10,      /* I =  1 */
(PID.TID 0000.0001)                 1.846710182691659E+10,      /* I =  2 */
(PID.TID 0000.0001)                 2.525453081404808E+10,      /* I =  3 */
(PID.TID 0000.0001)      . . .
(PID.TID 0000.0001)                 6.615681124682304E+10,      /* I = 46 */
(PID.TID 0000.0001)                 6.715754442659972E+10,      /* I = 47 */
(PID.TID 0000.0001)                 6.766029491742611E+10,      /* I = 48 */
(PID.TID 0000.0001)                 6.766029491742611E+10,      /* I = 49 */
(PID.TID 0000.0001)                 6.715754442659972E+10,      /* I = 50 */
(PID.TID 0000.0001)                 6.615681124682304E+10,      /* I = 51 */
(PID.TID 0000.0001)      . . .
(PID.TID 0000.0001)                 2.525453081404808E+10,      /* I = 94 */
(PID.TID 0000.0001)                 1.846710182691659E+10,      /* I = 95 */
(PID.TID 0000.0001)                 1.105878862084456E+10,      /* I = 96 */
(PID.TID 0000.0001)                 1.105878862084456E+10,      /* I = 97 */
(PID.TID 0000.0001)                 1.846710182691659E+10,      /* I = 98 */
(PID.TID 0000.0001)                 2.525453081404808E+10,      /* I = 99 */
(PID.TID 0000.0001)      . . .
(PID.TID 0000.0001)                 6.615681124682304E+10,      /* I =142 */
(PID.TID 0000.0001)                 6.715754442659972E+10,      /* I =143 */
(PID.TID 0000.0001)                 6.766029491742611E+10,      /* I =144 */
(PID.TID 0000.0001)                 6.766029491742611E+10,      /* I =145 */
(PID.TID 0000.0001)                 6.715754442659972E+10,      /* I =146 */
(PID.TID 0000.0001)                 6.615681124682304E+10,      /* I =147 */
(PID.TID 0000.0001)      . . .
(PID.TID 0000.0001)                 2.525453081404808E+10,      /* I =190 */
(PID.TID 0000.0001)                 1.846710182691659E+10,      /* I =191 */
(PID.TID 0000.0001)                 1.105878862084456E+10       /* I =192 */
(PID.TID 0000.0001)     ;
(PID.TID 0000.0001) rA  =  /* rA (1,:,1,:) ( units: m^2 ) */
(PID.TID 0000.0001)                 1.105878862084456E+10,      /* J =  1 */
(PID.TID 0000.0001)                 1.846710182691659E+10,      /* J =  2 */
(PID.TID 0000.0001)                 2.525453081404808E+10,      /* J =  3 */
(PID.TID 0000.0001)                 3.129536143726186E+10,      /* J =  4 */
(PID.TID 0000.0001)                 3.675376465847470E+10,      /* J =  5 */
(PID.TID 0000.0001)                 4.172717387178934E+10,      /* J =  6 */
(PID.TID 0000.0001)                 4.626545893597009E+10,      /* J =  7 */
(PID.TID 0000.0001)                 5.039007679099422E+10,      /* J =  8 */
(PID.TID 0000.0001)                 5.410520491584885E+10,      /* J =  9 */
(PID.TID 0000.0001)                 5.740442783303668E+10,      /* J = 10 */
(PID.TID 0000.0001)                 6.027511372575504E+10,      /* J = 11 */
(PID.TID 0000.0001)                 6.270153109824961E+10,      /* J = 12 */
(PID.TID 0000.0001)                 6.466721315931725E+10,      /* J = 13 */
(PID.TID 0000.0001)                 6.615681124682304E+10,      /* J = 14 */
(PID.TID 0000.0001)                 6.715754442659972E+10,      /* J = 15 */
(PID.TID 0000.0001)     2 @  6.766029491742611E+10,             /* J = 16: 17 */
(PID.TID 0000.0001)                 6.715754442659972E+10,      /* J = 18 */
(PID.TID 0000.0001)                 6.615681124682304E+10,      /* J = 19 */
(PID.TID 0000.0001)                 6.466721315931725E+10,      /* J = 20 */
(PID.TID 0000.0001)                 6.270153109824961E+10,      /* J = 21 */
(PID.TID 0000.0001)                 6.027511372575504E+10,      /* J = 22 */
(PID.TID 0000.0001)                 5.740442783303668E+10,      /* J = 23 */
(PID.TID 0000.0001)                 5.410520491584885E+10,      /* J = 24 */
(PID.TID 0000.0001)                 5.039007679099422E+10,      /* J = 25 */
(PID.TID 0000.0001)                 4.626545893597009E+10,      /* J = 26 */
(PID.TID 0000.0001)                 4.172717387178934E+10,      /* J = 27 */
(PID.TID 0000.0001)                 3.675376465847470E+10,      /* J = 28 */
(PID.TID 0000.0001)                 3.129536143726186E+10,      /* J = 29 */
(PID.TID 0000.0001)                 2.525453081404808E+10,      /* J = 30 */
(PID.TID 0000.0001)                 1.846710182691659E+10,      /* J = 31 */
(PID.TID 0000.0001)                 1.105878862084456E+10       /* J = 32 */
(PID.TID 0000.0001)     ;
(PID.TID 0000.0001) rAw =  /* rAw(:,1,:,1) ( units: m^2 ) */
(PID.TID 0000.0001)                 9.256839293227728E+09,      /* I =  1 */
(PID.TID 0000.0001)                 1.476139831746146E+10,      /* I =  2 */
(PID.TID 0000.0001)                 2.196617627537012E+10,      /* I =  3 */
(PID.TID 0000.0001)      . . .
(PID.TID 0000.0001)                 6.547239614667112E+10,      /* I = 46 */
(PID.TID 0000.0001)                 6.671895234971222E+10,      /* I = 47 */
(PID.TID 0000.0001)                 6.747156910068154E+10,      /* I = 48 */
(PID.TID 0000.0001)                 6.772326079203820E+10,      /* I = 49 */
(PID.TID 0000.0001)                 6.747156910068154E+10,      /* I = 50 */
(PID.TID 0000.0001)                 6.671895234971222E+10,      /* I = 51 */
(PID.TID 0000.0001)      . . .
(PID.TID 0000.0001)                 2.835642356797657E+10,      /* I = 94 */
(PID.TID 0000.0001)                 2.196617627537012E+10,      /* I = 95 */
(PID.TID 0000.0001)                 1.476139831746146E+10,      /* I = 96 */
(PID.TID 0000.0001)                 9.256839293227728E+09,      /* I = 97 */
(PID.TID 0000.0001)                 1.476139831746146E+10,      /* I = 98 */
(PID.TID 0000.0001)                 2.196617627537012E+10,      /* I = 99 */
(PID.TID 0000.0001)      . . .
(PID.TID 0000.0001)                 6.547239614667112E+10,      /* I =142 */
(PID.TID 0000.0001)                 6.671895234971222E+10,      /* I =143 */
(PID.TID 0000.0001)                 6.747156910068154E+10,      /* I =144 */
(PID.TID 0000.0001)                 6.772326079203820E+10,      /* I =145 */
(PID.TID 0000.0001)                 6.747156910068154E+10,      /* I =146 */
(PID.TID 0000.0001)                 6.671895234971222E+10,      /* I =147 */
(PID.TID 0000.0001)      . . .
(PID.TID 0000.0001)                 2.835642356797657E+10,      /* I =190 */
(PID.TID 0000.0001)                 2.196617627537012E+10,      /* I =191 */
(PID.TID 0000.0001)                 1.476139831746146E+10       /* I =192 */
(PID.TID 0000.0001)     ;
(PID.TID 0000.0001) rAw =  /* rAw(1,:,1,:) ( units: m^2 ) */
(PID.TID 0000.0001)                 9.256839293227728E+09,      /* J =  1 */
(PID.TID 0000.0001)                 1.784828305698068E+10,      /* J =  2 */
(PID.TID 0000.0001)                 2.493129885339632E+10,      /* J =  3 */
(PID.TID 0000.0001)                 3.108890659600555E+10,      /* J =  4 */
(PID.TID 0000.0001)                 3.660760170180986E+10,      /* J =  5 */
(PID.TID 0000.0001)                 4.161722813371701E+10,      /* J =  6 */
(PID.TID 0000.0001)                 4.617943969543855E+10,      /* J =  7 */
(PID.TID 0000.0001)                 5.032089310915111E+10,      /* J =  8 */
(PID.TID 0000.0001)                 5.404837497839890E+10,      /* J =  9 */
(PID.TID 0000.0001)                 5.735690271245953E+10,      /* J = 10 */
(PID.TID 0000.0001)                 6.023468444273640E+10,      /* J = 11 */
(PID.TID 0000.0001)                 6.266650459016319E+10,      /* J = 12 */
(PID.TID 0000.0001)                 6.463622309324297E+10,      /* J = 13 */
(PID.TID 0000.0001)                 6.612870085606081E+10,      /* J = 14 */
(PID.TID 0000.0001)                 6.713128949922821E+10,      /* J = 15 */
(PID.TID 0000.0001)     2 @  6.763494952530814E+10,             /* J = 16: 17 */
(PID.TID 0000.0001)                 6.713128949922821E+10,      /* J = 18 */
(PID.TID 0000.0001)                 6.612870085606081E+10,      /* J = 19 */
(PID.TID 0000.0001)                 6.463622309324297E+10,      /* J = 20 */
(PID.TID 0000.0001)                 6.266650459016319E+10,      /* J = 21 */
(PID.TID 0000.0001)                 6.023468444273640E+10,      /* J = 22 */
(PID.TID 0000.0001)                 5.735690271245953E+10,      /* J = 23 */
(PID.TID 0000.0001)                 5.404837497839890E+10,      /* J = 24 */
(PID.TID 0000.0001)                 5.032089310915111E+10,      /* J = 25 */
(PID.TID 0000.0001)                 4.617943969543855E+10,      /* J = 26 */
(PID.TID 0000.0001)                 4.161722813371701E+10,      /* J = 27 */
(PID.TID 0000.0001)                 3.660760170180986E+10,      /* J = 28 */
(PID.TID 0000.0001)                 3.108890659600555E+10,      /* J = 29 */
(PID.TID 0000.0001)                 2.493129885339632E+10,      /* J = 30 */
(PID.TID 0000.0001)                 1.784828305698068E+10,      /* J = 31 */
(PID.TID 0000.0001)                 9.256839293227728E+09       /* J = 32 */
(PID.TID 0000.0001)     ;
(PID.TID 0000.0001) rAs =  /* rAs(:,1,:,1) ( units: m^2 ) */
(PID.TID 0000.0001)                 9.256839293227728E+09,      /* I =  1 */
(PID.TID 0000.0001)                 1.784828305698068E+10,      /* I =  2 */
(PID.TID 0000.0001)                 2.493129885339632E+10,      /* I =  3 */
(PID.TID 0000.0001)      . . .
(PID.TID 0000.0001)                 6.612870085606081E+10,      /* I = 46 */
(PID.TID 0000.0001)                 6.713128949922821E+10,      /* I = 47 */
(PID.TID 0000.0001)                 6.763494952530814E+10,      /* I = 48 */
(PID.TID 0000.0001)                 6.763494952530814E+10,      /* I = 49 */
(PID.TID 0000.0001)                 6.713128949922821E+10,      /* I = 50 */
(PID.TID 0000.0001)                 6.612870085606081E+10,      /* I = 51 */
(PID.TID 0000.0001)      . . .
(PID.TID 0000.0001)                 2.493129885339632E+10,      /* I = 94 */
(PID.TID 0000.0001)                 1.784828305698068E+10,      /* I = 95 */
(PID.TID 0000.0001)                 9.256839293227728E+09,      /* I = 96 */
(PID.TID 0000.0001)                 9.256839293227728E+09,      /* I = 97 */
(PID.TID 0000.0001)                 1.784828305698068E+10,      /* I = 98 */
(PID.TID 0000.0001)                 2.493129885339632E+10,      /* I = 99 */
(PID.TID 0000.0001)      . . .
(PID.TID 0000.0001)                 6.612870085606081E+10,      /* I =142 */
(PID.TID 0000.0001)                 6.713128949922821E+10,      /* I =143 */
(PID.TID 0000.0001)                 6.763494952530814E+10,      /* I =144 */
(PID.TID 0000.0001)                 6.763494952530814E+10,      /* I =145 */
(PID.TID 0000.0001)                 6.713128949922821E+10,      /* I =146 */
(PID.TID 0000.0001)                 6.612870085606081E+10,      /* I =147 */
(PID.TID 0000.0001)      . . .
(PID.TID 0000.0001)                 2.493129885339632E+10,      /* I =190 */
(PID.TID 0000.0001)                 1.784828305698068E+10,      /* I =191 */
(PID.TID 0000.0001)                 9.256839293227728E+09       /* I =192 */
(PID.TID 0000.0001)     ;
(PID.TID 0000.0001) rAs =  /* rAs(1,:,1,:) ( units: m^2 ) */
(PID.TID 0000.0001)                 9.256839293227728E+09,      /* J =  1 */
(PID.TID 0000.0001)                 1.476139831746146E+10,      /* J =  2 */
(PID.TID 0000.0001)                 2.196617627537012E+10,      /* J =  3 */
(PID.TID 0000.0001)                 2.835642356797657E+10,      /* J =  4 */
(PID.TID 0000.0001)                 3.408986649235717E+10,      /* J =  5 */
(PID.TID 0000.0001)                 3.929713547274936E+10,      /* J =  6 */
(PID.TID 0000.0001)                 4.404885947307433E+10,      /* J =  7 */
(PID.TID 0000.0001)                 4.837890348543018E+10,      /* J =  8 */
(PID.TID 0000.0001)                 5.229903897937103E+10,      /* J =  9 */
(PID.TID 0000.0001)                 5.580748937048977E+10,      /* J = 10 */
(PID.TID 0000.0001)                 5.889427907701776E+10,      /* J = 11 */
(PID.TID 0000.0001)                 6.154489177335275E+10,      /* J = 12 */
(PID.TID 0000.0001)                 6.374296835500737E+10,      /* J = 13 */
(PID.TID 0000.0001)                 6.547239614667112E+10,      /* J = 14 */
(PID.TID 0000.0001)                 6.671895234971222E+10,      /* J = 15 */
(PID.TID 0000.0001)                 6.747156910068154E+10,      /* J = 16 */
(PID.TID 0000.0001)                 6.772326079203820E+10,      /* J = 17 */
(PID.TID 0000.0001)                 6.747156910068154E+10,      /* J = 18 */
(PID.TID 0000.0001)                 6.671895234971222E+10,      /* J = 19 */
(PID.TID 0000.0001)                 6.547239614667112E+10,      /* J = 20 */
(PID.TID 0000.0001)                 6.374296835500737E+10,      /* J = 21 */
(PID.TID 0000.0001)                 6.154489177335275E+10,      /* J = 22 */
(PID.TID 0000.0001)                 5.889427907701776E+10,      /* J = 23 */
(PID.TID 0000.0001)                 5.580748937048977E+10,      /* J = 24 */
(PID.TID 0000.0001)                 5.229903897937103E+10,      /* J = 25 */
(PID.TID 0000.0001)                 4.837890348543018E+10,      /* J = 26 */
(PID.TID 0000.0001)                 4.404885947307433E+10,      /* J = 27 */
(PID.TID 0000.0001)                 3.929713547274936E+10,      /* J = 28 */
(PID.TID 0000.0001)                 3.408986649235717E+10,      /* J = 29 */
(PID.TID 0000.0001)                 2.835642356797657E+10,      /* J = 30 */
(PID.TID 0000.0001)                 2.196617627537012E+10,      /* J = 31 */
(PID.TID 0000.0001)                 1.476139831746146E+10       /* J = 32 */
(PID.TID 0000.0001)     ;
(PID.TID 0000.0001) globalArea = /* Integrated horizontal Area (m^2) */
(PID.TID 0000.0001)                 3.801880051249326E+14
(PID.TID 0000.0001)     ;
(PID.TID 0000.0001) hasWetCSCorners = /* Domain contains CS corners (True/False) */
(PID.TID 0000.0001)                   T
(PID.TID 0000.0001)     ;
(PID.TID 0000.0001) // =======================================================
(PID.TID 0000.0001) // End of Model config. summary
(PID.TID 0000.0001) // =======================================================
(PID.TID 0000.0001) 
(PID.TID 0000.0001) == Packages configuration : Check & print summary ==
(PID.TID 0000.0001) 
(PID.TID 0000.0001) GAD_CHECK: #define ALLOW_GENERIC_ADVDIFF
(PID.TID 0000.0001) // =======================================================
(PID.TID 0000.0001) // Check Model config. (CONFIG_CHECK):
(PID.TID 0000.0001) // CONFIG_CHECK : Normal End
(PID.TID 0000.0001) // =======================================================
(PID.TID 0000.0001) 
(PID.TID 0000.0001)  MDS_READ_FIELD: opening global file: S_init.bin
(PID.TID 0000.0001) Start initial hydrostatic pressure computation
(PID.TID 0000.0001) Pressure is predetermined for buoyancyRelation ATMOSPHERIC
(PID.TID 0000.0001) 
(PID.TID 0000.0001)  write diagnostics summary to file ioUnit:      6
Iter.Nb:         0 ; Time(s):  0.0000000000000E+00
------------------------------------------------------------------------
2D/3D diagnostics: Number of lists:     1
------------------------------------------------------------------------
listId=    1 ; file name: momDiag
 nFlds, nActive,       freq     &     phase        , nLev               
    2  |    2  |    -10800.000000         0.000000 |   1
 levels:   1
 diag# | name   |   ipt  |  iMate | kLev|   count |   mate.C|           
   148 |momKE   |      1 |      0 |   1 |       0 |
   150 |momVort3|      2 |      0 |   1 |       0 |
------------------------------------------------------------------------
Global & Regional Statistics diagnostics: Number of lists:     1
------------------------------------------------------------------------
listId=   1 ; file name: dynStDiag
 nFlds, nActive,       freq     &     phase        |                    
    7  |    7  |     -3600.000000         0.000000 |
 Regions:   0
 diag# | name   |   ipt  |  iMate |    Volume   |   mate-Vol. |         
    23 |ETAN    |      1 |      0 | 0.00000E+00 |
    37 |UE_VEL_C|      2 |      0 | 0.00000E+00 |
    38 |VN_VEL_C|      3 |      0 | 0.00000E+00 |
   148 |momKE   |      4 |      0 | 0.00000E+00 |
   150 |momVort3|      5 |      0 | 0.00000E+00 |
    27 |SALT    |      6 |      0 | 0.00000E+00 |
    33 |SALTSQ  |      7 |      0 | 0.00000E+00 |
------------------------------------------------------------------------
(PID.TID 0000.0001) // =======================================================
(PID.TID 0000.0001) // Model current state
(PID.TID 0000.0001) // =======================================================
(PID.TID 0000.0001) 
(PID.TID 0000.0001) // =======================================================
(PID.TID 0000.0001) // Begin MONITOR dynamic field statistics
(PID.TID 0000.0001) // =======================================================
(PID.TID 0000.0001) %MON time_tsnumber                =                     0
(PID.TID 0000.0001) %MON time_secondsf                =   0.0000000000000E+00
(PID.TID 0000.0001) %MON dynstat_eta_max              =  -1.6111739637856E+01
(PID.TID 0000.0001) %MON dynstat_eta_min              =  -2.8762835000786E+04
(PID.TID 0000.0001) %MON dynstat_eta_mean             =  -9.6000080157063E+03
(PID.TID 0000.0001) %MON dynstat_eta_sd               =   8.5858595655543E+03
(PID.TID 0000.0001) %MON dynstat_eta_del2             =   1.2529301441524E+00
(PID.TID 0000.0001) %MON dynstat_uvel_max             =   7.9970200199173E+01
(PID.TID 0000.0001) %MON dynstat_uvel_min             =  -5.5209288742705E+01
(PID.TID 0000.0001) %MON dynstat_uvel_mean            =   2.4386692941690E+01
(PID.TID 0000.0001) %MON dynstat_uvel_sd              =   3.9219484304443E+01
(PID.TID 0000.0001) %MON dynstat_uvel_del2            =   3.0009185813005E-02
(PID.TID 0000.0001) %MON dynstat_vvel_max             =   7.9970200199173E+01
(PID.TID 0000.0001) %MON dynstat_vvel_min             =  -5.5209288742705E+01
(PID.TID 0000.0001) %MON dynstat_vvel_mean            =   2.4386692941690E+01
(PID.TID 0000.0001) %MON dynstat_vvel_sd              =   3.9219484304443E+01
(PID.TID 0000.0001) %MON dynstat_vvel_del2            =   3.0009185813005E-02
(PID.TID 0000.0001) %MON dynstat_wvel_max             =   1.6032971649161E-14
(PID.TID 0000.0001) %MON dynstat_wvel_min             =  -1.3360809707634E-14
(PID.TID 0000.0001) %MON dynstat_wvel_mean            =  -1.1558837182556E-17
(PID.TID 0000.0001) %MON dynstat_wvel_sd              =   3.3162758932278E-15
(PID.TID 0000.0001) %MON dynstat_wvel_del2            =   1.6988225266420E-16
(PID.TID 0000.0001) %MON dynstat_theta_max            =   3.0000000000000E+02
(PID.TID 0000.0001) %MON dynstat_theta_min            =   3.0000000000000E+02
(PID.TID 0000.0001) %MON dynstat_theta_mean           =   3.0000000000000E+02
(PID.TID 0000.0001) %MON dynstat_theta_sd             =   1.1368683772162E-13
(PID.TID 0000.0001) %MON dynstat_theta_del2           =   0.0000000000000E+00
(PID.TID 0000.0001) %MON dynstat_salt_max             =   9.6964258541370E-01
(PID.TID 0000.0001) %MON dynstat_salt_min             =   0.0000000000000E+00
(PID.TID 0000.0001) %MON dynstat_salt_mean            =   6.6909333292948E-03
(PID.TID 0000.0001) %MON dynstat_salt_sd              =   6.1908067065611E-02
(PID.TID 0000.0001) %MON dynstat_salt_del2            =   1.5501836877532E-04
(PID.TID 0000.0001) %MON trAdv_CFL_u_max              =   0.0000000000000E+00
(PID.TID 0000.0001) %MON trAdv_CFL_v_max              =   0.0000000000000E+00
(PID.TID 0000.0001) %MON trAdv_CFL_w_max              =   0.0000000000000E+00
(PID.TID 0000.0001) %MON advcfl_uvel_max              =   3.0654575871251E-01
(PID.TID 0000.0001) %MON advcfl_vvel_max              =   3.0654575871251E-01
(PID.TID 0000.0001) %MON advcfl_wvel_max              =   1.4429674484245E-16
(PID.TID 0000.0001) %MON advcfl_W_hf_max              =   0.0000000000000E+00
(PID.TID 0000.0001) %MON am_eta_mean                  =  -6.8985247032533E+11
(PID.TID 0000.0001) %MON am_uZo_mean                  =   2.9895733533937E+12
(PID.TID 0000.0001) %MON am_tot_mean                  =   2.2997208830684E+12
(PID.TID 0000.0001) %MON pe_b_mean                    =   8.2938569190523E+02
(PID.TID 0000.0001) %MON ke_max                       =   3.1990650868103E+03
(PID.TID 0000.0001) %MON ke_mean                      =   2.1327695874331E+03
(PID.TID 0000.0001) %MON ke_vol                       =   3.8018800512493E+19
(PID.TID 0000.0001) %MON vort_r_min                   =  -2.9075885266157E-05
(PID.TID 0000.0001) %MON vort_r_max                   =   2.9075885266157E-05
(PID.TID 0000.0001) %MON vort_a_mean                  =   3.2877278286968E-21
(PID.TID 0000.0001) %MON vort_a_sd                    =   8.3967356286704E-05
(PID.TID 0000.0001) %MON vort_p_mean                  =   3.2877278286968E-21
(PID.TID 0000.0001) %MON vort_p_sd                    =   8.3967356286704E-05
(PID.TID 0000.0001) %MON surfExpan_theta_mean         =  -3.4676511547669E-15
(PID.TID 0000.0001) %MON surfExpan_salt_mean          =   1.4414718757196E-33
(PID.TID 0000.0001) %MON surfExpan_Heat_mean          =  -2.9113306747546E-13
(PID.TID 0000.0001) %MON En_Budget_T2PE_mean          =   0.0000000000000E+00
(PID.TID 0000.0001) // =======================================================
(PID.TID 0000.0001) // End MONITOR dynamic field statistics
(PID.TID 0000.0001) // =======================================================
(PID.TID 0000.0001) SOLVE_FOR_PRESSURE: putPmEinXvector =    F
 cg2d: Sum(rhs),rhsMax =   1.62004842762037E+03  1.10063408301772E+05
(PID.TID 0000.0001)      cg2d_init_res =   4.33885442988156E-02
(PID.TID 0000.0001)      cg2d_iters(min,last) =      -1      14
(PID.TID 0000.0001)      cg2d_last_res =   2.28464705658595E-13
(PID.TID 0000.0001) // =======================================================
(PID.TID 0000.0001) // Begin MONITOR dynamic field statistics
(PID.TID 0000.0001) // =======================================================
(PID.TID 0000.0001) %MON time_tsnumber                =                     1
(PID.TID 0000.0001) %MON time_secondsf                =   4.5000000000000E+02
(PID.TID 0000.0001) %MON dynstat_eta_max              =  -1.6096600264128E+01
(PID.TID 0000.0001) %MON dynstat_eta_min              =  -2.8762725656504E+04
(PID.TID 0000.0001) %MON dynstat_eta_mean             =  -9.6000080157063E+03
(PID.TID 0000.0001) %MON dynstat_eta_sd               =   8.5858405182131E+03
(PID.TID 0000.0001) %MON dynstat_eta_del2             =   1.3936586119501E+00
(PID.TID 0000.0001) %MON dynstat_uvel_max             =   7.9970200199173E+01
(PID.TID 0000.0001) %MON dynstat_uvel_min             =  -5.5209288742705E+01
(PID.TID 0000.0001) %MON dynstat_uvel_mean            =   2.4386692941690E+01
(PID.TID 0000.0001) %MON dynstat_uvel_sd              =   3.9219484647386E+01
(PID.TID 0000.0001) %MON dynstat_uvel_del2            =   2.9984179732747E-02
(PID.TID 0000.0001) %MON dynstat_vvel_max             =   7.9970200199173E+01
(PID.TID 0000.0001) %MON dynstat_vvel_min             =  -5.5209288742705E+01
(PID.TID 0000.0001) %MON dynstat_vvel_mean            =   2.4386692941690E+01
(PID.TID 0000.0001) %MON dynstat_vvel_sd              =   3.9219484647386E+01
(PID.TID 0000.0001) %MON dynstat_vvel_del2            =   2.9984179732747E-02
(PID.TID 0000.0001) %MON dynstat_wvel_max             =   5.6009151903407E-01
(PID.TID 0000.0001) %MON dynstat_wvel_min             =  -3.2065450937057E-01
(PID.TID 0000.0001) %MON dynstat_wvel_mean            =  -1.9753384901063E-17
(PID.TID 0000.0001) %MON dynstat_wvel_sd              =   1.1296240913204E-02
(PID.TID 0000.0001) %MON dynstat_wvel_del2            =   1.3008447734542E-03
(PID.TID 0000.0001) %MON dynstat_theta_max            =   3.0000000000000E+02
(PID.TID 0000.0001) %MON dynstat_theta_min            =   3.0000000000000E+02
(PID.TID 0000.0001) %MON dynstat_theta_mean           =   3.0000000000000E+02
(PID.TID 0000.0001) %MON dynstat_theta_sd             =   1.1368683772162E-13
(PID.TID 0000.0001) %MON dynstat_theta_del2           =   0.0000000000000E+00
(PID.TID 0000.0001) %MON dynstat_salt_max             =   9.7526737337999E-01
(PID.TID 0000.0001) %MON dynstat_salt_min             =  -2.8989386644450E-03
(PID.TID 0000.0001) %MON dynstat_salt_mean            =   6.6909333292948E-03
(PID.TID 0000.0001) %MON dynstat_salt_sd              =   6.1932463361172E-02
(PID.TID 0000.0001) %MON dynstat_salt_del2            =   1.5517615561072E-04
(PID.TID 0000.0001) %MON trAdv_CFL_u_max              =   3.0178391505244E-01
(PID.TID 0000.0001) %MON trAdv_CFL_v_max              =   3.0178391505244E-01
(PID.TID 0000.0001) %MON trAdv_CFL_w_max              =   7.2148372421225E-17
(PID.TID 0000.0001) %MON advcfl_uvel_max              =   3.0654575871251E-01
(PID.TID 0000.0001) %MON advcfl_vvel_max              =   3.0654575871251E-01
(PID.TID 0000.0001) %MON advcfl_wvel_max              =   5.0408236713067E-03
(PID.TID 0000.0001) %MON advcfl_W_hf_max              =   0.0000000000000E+00
(PID.TID 0000.0001) %MON am_eta_mean                  =  -6.8985357212470E+11
(PID.TID 0000.0001) %MON am_uZo_mean                  =   2.9895733533937E+12
(PID.TID 0000.0001) %MON am_tot_mean                  =   2.2997197812690E+12
(PID.TID 0000.0001) %MON pe_b_mean                    =   8.2938405652907E+02
(PID.TID 0000.0001) %MON ke_max                       =   3.1990651105736E+03
(PID.TID 0000.0001) %MON ke_mean                      =   2.1327696131323E+03
(PID.TID 0000.0001) %MON ke_vol                       =   3.8018800512493E+19
(PID.TID 0000.0001) %MON vort_r_min                   =  -2.9075885266157E-05
(PID.TID 0000.0001) %MON vort_r_max                   =   2.9075885266157E-05
(PID.TID 0000.0001) %MON vort_a_mean                  =  -9.8631834860904E-21
(PID.TID 0000.0001) %MON vort_a_sd                    =   8.3967360200706E-05
(PID.TID 0000.0001) %MON vort_p_mean                  =  -9.8631834860904E-21
(PID.TID 0000.0001) %MON vort_p_sd                    =   8.3967360200706E-05
(PID.TID 0000.0001) %MON surfExpan_theta_mean         =  -5.7537322864281E-15
(PID.TID 0000.0001) %MON surfExpan_salt_mean          =   4.2927897694613E-07
(PID.TID 0000.0001) %MON surfExpan_Heat_mean          =  -4.9602585023524E-13
(PID.TID 0000.0001) %MON En_Budget_T2PE_mean          =   0.0000000000000E+00
(PID.TID 0000.0001) // =======================================================
(PID.TID 0000.0001) // End MONITOR dynamic field statistics
(PID.TID 0000.0001) // =======================================================
 Computing Diagnostic #    148  momKE        Counter:       1   Parms: SMR     MR      
 Computing Diagnostic #    150  momVort3     Counter:       1   Parms: SZR     MR      
 Compute Stats, Diag. #     23  ETAN      vol(   0 ): 3.802E+14  Parms: SM      M1      
 Compute Stats, Diag. #     37  UE_VEL_C  vol(   0 ): 3.802E+19  Parms: UMR     MR      
 Compute Stats, Diag. #     38  VN_VEL_C  vol(   0 ): 3.802E+19  Parms: VMR     MR      
 Compute Stats, Diag. #    148  momKE     vol(   0 ): 3.802E+19  Parms: SMR     MR      
 Compute Stats, Diag. #    150  momVort3  vol(   0 ): 3.985E+19  Parms: SZR     MR      
 Compute Stats, Diag. #     27  SALT      vol(   0 ): 3.802E+19  Parms: SMR     MR      
 Compute Stats, Diag. #     33  SALTSQ    vol(   0 ): 3.802E+19  Parms: SMRP    MR      
 cg2d: Sum(rhs),rhsMax =   1.62006071242759E+03  1.10062573698636E+05
(PID.TID 0000.0001)      cg2d_init_res =   9.53361036166943E-03
(PID.TID 0000.0001)      cg2d_iters(min,last) =      -1      13
(PID.TID 0000.0001)      cg2d_last_res =   5.60327991543918E-13
(PID.TID 0000.0001) // =======================================================
(PID.TID 0000.0001) // Begin MONITOR dynamic field statistics
(PID.TID 0000.0001) // =======================================================
(PID.TID 0000.0001) %MON time_tsnumber                =                     2
(PID.TID 0000.0001) %MON time_secondsf                =   9.0000000000000E+02
(PID.TID 0000.0001) %MON dynstat_eta_max              =  -1.6065778058485E+01
(PID.TID 0000.0001) %MON dynstat_eta_min              =  -2.8762508622238E+04
(PID.TID 0000.0001) %MON dynstat_eta_mean             =  -9.6000080157063E+03
(PID.TID 0000.0001) %MON dynstat_eta_sd               =   8.5858004307264E+03
(PID.TID 0000.0001) %MON dynstat_eta_del2             =   1.4534585550290E+00
(PID.TID 0000.0001) %MON dynstat_uvel_max             =   7.9970199617599E+01
(PID.TID 0000.0001) %MON dynstat_uvel_min             =  -5.5209454493246E+01
(PID.TID 0000.0001) %MON dynstat_uvel_mean            =   2.4386692773828E+01
(PID.TID 0000.0001) %MON dynstat_uvel_sd              =   3.9219524711133E+01
(PID.TID 0000.0001) %MON dynstat_uvel_del2            =   3.0016942249267E-02
(PID.TID 0000.0001) %MON dynstat_vvel_max             =   7.9970199617599E+01
(PID.TID 0000.0001) %MON dynstat_vvel_min             =  -5.5209454493246E+01
(PID.TID 0000.0001) %MON dynstat_vvel_mean            =   2.4386692773828E+01
(PID.TID 0000.0001) %MON dynstat_vvel_sd              =   3.9219524711133E+01
(PID.TID 0000.0001) %MON dynstat_vvel_del2            =   3.0016942249267E-02
(PID.TID 0000.0001) %MON dynstat_wvel_max             =   1.2422457270775E-01
(PID.TID 0000.0001) %MON dynstat_wvel_min             =  -9.2094790743295E-02
(PID.TID 0000.0001) %MON dynstat_wvel_mean            =  -4.0900816938952E-18
(PID.TID 0000.0001) %MON dynstat_wvel_sd              =   3.5464653521441E-03
(PID.TID 0000.0001) %MON dynstat_wvel_del2            =   2.8659734087370E-04
(PID.TID 0000.0001) %MON dynstat_theta_max            =   3.0000000000000E+02
(PID.TID 0000.0001) %MON dynstat_theta_min            =   3.0000000000000E+02
(PID.TID 0000.0001) %MON dynstat_theta_mean           =   3.0000000000000E+02
(PID.TID 0000.0001) %MON dynstat_theta_sd             =   1.1368683772162E-13
(PID.TID 0000.0001) %MON dynstat_theta_del2           =   0.0000000000000E+00
(PID.TID 0000.0001) %MON dynstat_salt_max             =   9.7927933477160E-01
(PID.TID 0000.0001) %MON dynstat_salt_min             =  -4.9125399633128E-03
(PID.TID 0000.0001) %MON dynstat_salt_mean            =   6.6909302384862E-03
(PID.TID 0000.0001) %MON dynstat_salt_sd              =   6.1927696868074E-02
(PID.TID 0000.0001) %MON dynstat_salt_del2            =   1.5514032858588E-04
(PID.TID 0000.0001) %MON trAdv_CFL_u_max              =   3.0182852969673E-01
(PID.TID 0000.0001) %MON trAdv_CFL_v_max              =   3.0182852969673E-01
(PID.TID 0000.0001) %MON trAdv_CFL_w_max              =   2.5204118356533E-03
(PID.TID 0000.0001) %MON advcfl_uvel_max              =   3.0663235905274E-01
(PID.TID 0000.0001) %MON advcfl_vvel_max              =   3.0663235905274E-01
(PID.TID 0000.0001) %MON advcfl_wvel_max              =   1.1180211543698E-03
(PID.TID 0000.0001) %MON advcfl_W_hf_max              =   0.0000000000000E+00
(PID.TID 0000.0001) %MON am_eta_mean                  =  -6.8985576428632E+11
(PID.TID 0000.0001) %MON am_uZo_mean                  =   2.9895747123751E+12
(PID.TID 0000.0001) %MON am_tot_mean                  =   2.2997189480888E+12
(PID.TID 0000.0001) %MON pe_b_mean                    =   8.2938061468943E+02
(PID.TID 0000.0001) %MON ke_max                       =   3.1990652100554E+03
(PID.TID 0000.0001) %MON ke_mean                      =   2.1327727117636E+03
(PID.TID 0000.0001) %MON ke_vol                       =   3.8018800512493E+19
(PID.TID 0000.0001) %MON vort_r_min                   =  -2.9076139370660E-05
(PID.TID 0000.0001) %MON vort_r_max                   =   2.9076139370660E-05
(PID.TID 0000.0001) %MON vort_a_mean                  =  -2.3014094800878E-20
(PID.TID 0000.0001) %MON vort_a_sd                    =   8.3967370323952E-05
(PID.TID 0000.0001) %MON vort_p_mean                  =  -2.3014094800878E-20
(PID.TID 0000.0001) %MON vort_p_sd                    =   8.3967370323952E-05
(PID.TID 0000.0001) %MON surfExpan_theta_mean         =  -1.1404719353456E-15
(PID.TID 0000.0001) %MON surfExpan_salt_mean          =   8.4492024666440E-07
(PID.TID 0000.0001) %MON surfExpan_Heat_mean          =  -9.6255827153758E-14
(PID.TID 0000.0001) %MON En_Budget_T2PE_mean          =   0.0000000000000E+00
(PID.TID 0000.0001) // =======================================================
(PID.TID 0000.0001) // End MONITOR dynamic field statistics
(PID.TID 0000.0001) // =======================================================
 cg2d: Sum(rhs),rhsMax =   1.62007888771490E+03  1.10061338932282E+05
(PID.TID 0000.0001)      cg2d_init_res =   3.11902038248707E-03
(PID.TID 0000.0001)      cg2d_iters(min,last) =      -1      13
(PID.TID 0000.0001)      cg2d_last_res =   2.10246962500561E-13
(PID.TID 0000.0001) // =======================================================
(PID.TID 0000.0001) // Begin MONITOR dynamic field statistics
(PID.TID 0000.0001) // =======================================================
(PID.TID 0000.0001) %MON time_tsnumber                =                     3
(PID.TID 0000.0001) %MON time_secondsf                =   1.3500000000000E+03
(PID.TID 0000.0001) %MON dynstat_eta_max              =  -1.6018596396259E+01
(PID.TID 0000.0001) %MON dynstat_eta_min              =  -2.8762187522066E+04
(PID.TID 0000.0001) %MON dynstat_eta_mean             =  -9.6000080157063E+03
(PID.TID 0000.0001) %MON dynstat_eta_sd               =   8.5857392548448E+03
(PID.TID 0000.0001) %MON dynstat_eta_del2             =   1.4373476913586E+00
(PID.TID 0000.0001) %MON dynstat_uvel_max             =   7.9970197288603E+01
(PID.TID 0000.0001) %MON dynstat_uvel_min             =  -5.5209721661419E+01
(PID.TID 0000.0001) %MON dynstat_uvel_mean            =   2.4386692778848E+01
(PID.TID 0000.0001) %MON dynstat_uvel_sd              =   3.9219589189151E+01
(PID.TID 0000.0001) %MON dynstat_uvel_del2            =   3.0032216163449E-02
(PID.TID 0000.0001) %MON dynstat_vvel_max             =   7.9970197288603E+01
(PID.TID 0000.0001) %MON dynstat_vvel_min             =  -5.5209721661419E+01
(PID.TID 0000.0001) %MON dynstat_vvel_mean            =   2.4386692778848E+01
(PID.TID 0000.0001) %MON dynstat_vvel_sd              =   3.9219589189151E+01
(PID.TID 0000.0001) %MON dynstat_vvel_del2            =   3.0032216163449E-02
(PID.TID 0000.0001) %MON dynstat_wvel_max             =   1.6316566973650E-02
(PID.TID 0000.0001) %MON dynstat_wvel_min             =  -3.3485512677330E-02
(PID.TID 0000.0001) %MON dynstat_wvel_mean            =  -2.2528327786631E-17
(PID.TID 0000.0001) %MON dynstat_wvel_sd              =   1.4846043281972E-03
(PID.TID 0000.0001) %MON dynstat_wvel_del2            =   8.4069060312070E-05
(PID.TID 0000.0001) %MON dynstat_theta_max            =   3.0000000000000E+02
(PID.TID 0000.0001) %MON dynstat_theta_min            =   3.0000000000000E+02
(PID.TID 0000.0001) %MON dynstat_theta_mean           =   3.0000000000000E+02
(PID.TID 0000.0001) %MON dynstat_theta_sd             =   1.1368683772162E-13
(PID.TID 0000.0001) %MON dynstat_theta_del2           =   0.0000000000000E+00
(PID.TID 0000.0001) %MON dynstat_salt_max             =   9.8225284982911E-01
(PID.TID 0000.0001) %MON dynstat_salt_min             =  -6.4458453825200E-03
(PID.TID 0000.0001) %MON dynstat_salt_mean            =   6.6909253141137E-03
(PID.TID 0000.0001) %MON dynstat_salt_sd              =   6.1922781736331E-02
(PID.TID 0000.0001) %MON dynstat_salt_del2            =   1.5509875838938E-04
(PID.TID 0000.0001) %MON trAdv_CFL_u_max              =   3.0152072087536E-01
(PID.TID 0000.0001) %MON trAdv_CFL_v_max              =   3.0152072087536E-01
(PID.TID 0000.0001) %MON trAdv_CFL_w_max              =   5.5901057718489E-04
(PID.TID 0000.0001) %MON advcfl_uvel_max              =   3.0667948380838E-01
(PID.TID 0000.0001) %MON advcfl_vvel_max              =   3.0667948380838E-01
(PID.TID 0000.0001) %MON advcfl_wvel_max              =   3.0136961409597E-04
(PID.TID 0000.0001) %MON advcfl_W_hf_max              =   0.0000000000000E+00
(PID.TID 0000.0001) %MON am_eta_mean                  =  -6.8985902730236E+11
(PID.TID 0000.0001) %MON am_uZo_mean                  =   2.9895774225221E+12
(PID.TID 0000.0001) %MON am_tot_mean                  =   2.2997183952197E+12
(PID.TID 0000.0001) %MON pe_b_mean                    =   8.2937536226904E+02
(PID.TID 0000.0001) %MON ke_max                       =   3.1990653589967E+03
(PID.TID 0000.0001) %MON ke_mean                      =   2.1327777487028E+03
(PID.TID 0000.0001) %MON ke_vol                       =   3.8018800512493E+19
(PID.TID 0000.0001) %MON vort_r_min                   =  -2.9076548446941E-05
(PID.TID 0000.0001) %MON vort_r_max                   =   2.9076548446941E-05
(PID.TID 0000.0001) %MON vort_a_mean                  =   0.0000000000000E+00
(PID.TID 0000.0001) %MON vort_a_sd                    =   8.3967389734865E-05
(PID.TID 0000.0001) %MON vort_p_mean                  =   0.0000000000000E+00
(PID.TID 0000.0001) %MON vort_p_sd                    =   8.3967389734865E-05
(PID.TID 0000.0001) %MON surfExpan_theta_mean         =  -6.7760472194630E-15
(PID.TID 0000.0001) %MON surfExpan_salt_mean          =   1.2392867594871E-06
(PID.TID 0000.0001) %MON surfExpan_Heat_mean          =  -5.7324500962322E-13
(PID.TID 0000.0001) %MON En_Budget_T2PE_mean          =   0.0000000000000E+00
(PID.TID 0000.0001) // =======================================================
(PID.TID 0000.0001) // End MONITOR dynamic field statistics
(PID.TID 0000.0001) // =======================================================
 cg2d: Sum(rhs),rhsMax =   1.62010269043858E+03  1.10059721899206E+05
(PID.TID 0000.0001)      cg2d_init_res =   1.95602905543340E-03
(PID.TID 0000.0001)      cg2d_iters(min,last) =      -1      13
(PID.TID 0000.0001)      cg2d_last_res =   2.04321681811888E-13
(PID.TID 0000.0001) // =======================================================
(PID.TID 0000.0001) // Begin MONITOR dynamic field statistics
(PID.TID 0000.0001) // =======================================================
(PID.TID 0000.0001) %MON time_tsnumber                =                     4
(PID.TID 0000.0001) %MON time_secondsf                =   1.8000000000000E+03
(PID.TID 0000.0001) %MON dynstat_eta_max              =  -1.5954181307024E+01
(PID.TID 0000.0001) %MON dynstat_eta_min              =  -2.8761767003316E+04
(PID.TID 0000.0001) %MON dynstat_eta_mean             =  -9.6000080157063E+03
(PID.TID 0000.0001) %MON dynstat_eta_sd               =   8.5856584670408E+03
(PID.TID 0000.0001) %MON dynstat_eta_del2             =   1.4273586984938E+00
(PID.TID 0000.0001) %MON dynstat_uvel_max             =   7.9970191628581E+01
(PID.TID 0000.0001) %MON dynstat_uvel_min             =  -5.5210185934060E+01
(PID.TID 0000.0001) %MON dynstat_uvel_mean            =   2.4386693743759E+01
(PID.TID 0000.0001) %MON dynstat_uvel_sd              =   3.9219677340575E+01
(PID.TID 0000.0001) %MON dynstat_uvel_del2            =   3.0049505055686E-02
(PID.TID 0000.0001) %MON dynstat_vvel_max             =   7.9970191628581E+01
(PID.TID 0000.0001) %MON dynstat_vvel_min             =  -5.5210185934060E+01
(PID.TID 0000.0001) %MON dynstat_vvel_mean            =   2.4386693743759E+01
(PID.TID 0000.0001) %MON dynstat_vvel_sd              =   3.9219677340575E+01
(PID.TID 0000.0001) %MON dynstat_vvel_del2            =   3.0049505055686E-02
(PID.TID 0000.0001) %MON dynstat_wvel_max             =   1.4138085066513E-02
(PID.TID 0000.0001) %MON dynstat_wvel_min             =  -2.3503298897979E-02
(PID.TID 0000.0001) %MON dynstat_wvel_mean            =   4.0440518356037E-18
(PID.TID 0000.0001) %MON dynstat_wvel_sd              =   1.1288185171552E-03
(PID.TID 0000.0001) %MON dynstat_wvel_del2            =   5.2671505512492E-05
(PID.TID 0000.0001) %MON dynstat_theta_max            =   3.0000000000000E+02
(PID.TID 0000.0001) %MON dynstat_theta_min            =   3.0000000000000E+02
(PID.TID 0000.0001) %MON dynstat_theta_mean           =   3.0000000000000E+02
(PID.TID 0000.0001) %MON dynstat_theta_sd             =   1.1368683772162E-13
(PID.TID 0000.0001) %MON dynstat_theta_del2           =   0.0000000000000E+00
(PID.TID 0000.0001) %MON dynstat_salt_max             =   9.8418901561349E-01
(PID.TID 0000.0001) %MON dynstat_salt_min             =  -7.5273843973090E-03
(PID.TID 0000.0001) %MON dynstat_salt_mean            =   6.6909186725337E-03
(PID.TID 0000.0001) %MON dynstat_salt_sd              =   6.1917880193661E-02
(PID.TID 0000.0001) %MON dynstat_salt_del2            =   1.5505368269907E-04
(PID.TID 0000.0001) %MON trAdv_CFL_u_max              =   3.0135715504781E-01
(PID.TID 0000.0001) %MON trAdv_CFL_v_max              =   3.0135715504781E-01
(PID.TID 0000.0001) %MON trAdv_CFL_w_max              =   7.3424551381423E-05
(PID.TID 0000.0001) %MON advcfl_uvel_max              =   3.0678396430018E-01
(PID.TID 0000.0001) %MON advcfl_vvel_max              =   3.0678396430018E-01
(PID.TID 0000.0001) %MON advcfl_wvel_max              =   2.1152969008181E-04
(PID.TID 0000.0001) %MON advcfl_W_hf_max              =   0.0000000000000E+00
(PID.TID 0000.0001) %MON am_eta_mean                  =  -6.8986333536339E+11
(PID.TID 0000.0001) %MON am_uZo_mean                  =   2.9895814611130E+12
(PID.TID 0000.0001) %MON am_tot_mean                  =   2.2997181257496E+12
(PID.TID 0000.0001) %MON pe_b_mean                    =   8.2936842607147E+02
(PID.TID 0000.0001) %MON ke_max                       =   3.1990654973652E+03
(PID.TID 0000.0001) %MON ke_mean                      =   2.1327846692722E+03
(PID.TID 0000.0001) %MON ke_vol                       =   3.8018800512493E+19
(PID.TID 0000.0001) %MON vort_r_min                   =  -2.9077105515988E-05
(PID.TID 0000.0001) %MON vort_r_max                   =   2.9077105515988E-05
(PID.TID 0000.0001) %MON vort_a_mean                  =  -3.2877278286968E-21
(PID.TID 0000.0001) %MON vort_a_sd                    =   8.3967416626766E-05
(PID.TID 0000.0001) %MON vort_p_mean                  =  -3.2877278286968E-21
(PID.TID 0000.0001) %MON vort_p_sd                    =   8.3967416626766E-05
(PID.TID 0000.0001) %MON surfExpan_theta_mean         =   1.2278053718360E-15
(PID.TID 0000.0001) %MON surfExpan_salt_mean          =   1.6045884487810E-06
(PID.TID 0000.0001) %MON surfExpan_Heat_mean          =   1.0832132080813E-13
(PID.TID 0000.0001) %MON En_Budget_T2PE_mean          =   0.0000000000000E+00
(PID.TID 0000.0001) // =======================================================
(PID.TID 0000.0001) // End MONITOR dynamic field statistics
(PID.TID 0000.0001) // =======================================================
 cg2d: Sum(rhs),rhsMax =   1.62013179462305E+03  1.10057744777061E+05
(PID.TID 0000.0001)      cg2d_init_res =   1.05741093463391E-03
(PID.TID 0000.0001)      cg2d_iters(min,last) =      -1      12
(PID.TID 0000.0001)      cg2d_last_res =   6.29453760595926E-13
(PID.TID 0000.0001) // =======================================================
(PID.TID 0000.0001) // Begin MONITOR dynamic field statistics
(PID.TID 0000.0001) // =======================================================
(PID.TID 0000.0001) %MON time_tsnumber                =                     5
(PID.TID 0000.0001) %MON time_secondsf                =   2.2500000000000E+03
(PID.TID 0000.0001) %MON dynstat_eta_max              =  -1.5871460459111E+01
(PID.TID 0000.0001) %MON dynstat_eta_min              =  -2.8761252825240E+04
(PID.TID 0000.0001) %MON dynstat_eta_mean             =  -9.6000080157063E+03
(PID.TID 0000.0001) %MON dynstat_eta_sd               =   8.5855588124841E+03
(PID.TID 0000.0001) %MON dynstat_eta_del2             =   1.4263522536160E+00
(PID.TID 0000.0001) %MON dynstat_uvel_max             =   7.9970180589361E+01
(PID.TID 0000.0001) %MON dynstat_uvel_min             =  -5.5210898403937E+01
(PID.TID 0000.0001) %MON dynstat_uvel_mean            =   2.4386696017829E+01
(PID.TID 0000.0001) %MON dynstat_uvel_sd              =   3.9219788155186E+01
(PID.TID 0000.0001) %MON dynstat_uvel_del2            =   3.0069714683627E-02
(PID.TID 0000.0001) %MON dynstat_vvel_max             =   7.9970180589361E+01
(PID.TID 0000.0001) %MON dynstat_vvel_min             =  -5.5210898403937E+01
(PID.TID 0000.0001) %MON dynstat_vvel_mean            =   2.4386696017829E+01
(PID.TID 0000.0001) %MON dynstat_vvel_sd              =   3.9219788155186E+01
(PID.TID 0000.0001) %MON dynstat_vvel_del2            =   3.0069714683627E-02
(PID.TID 0000.0001) %MON dynstat_wvel_max             =   3.4752365291573E-03
(PID.TID 0000.0001) %MON dynstat_wvel_min             =  -1.0074597055208E-02
(PID.TID 0000.0001) %MON dynstat_wvel_mean            =  -1.8017401674072E-17
(PID.TID 0000.0001) %MON dynstat_wvel_sd              =   9.2990891849354E-04
(PID.TID 0000.0001) %MON dynstat_wvel_del2            =   1.7818158688106E-05
(PID.TID 0000.0001) %MON dynstat_theta_max            =   3.0000000000000E+02
(PID.TID 0000.0001) %MON dynstat_theta_min            =   3.0000000000000E+02
(PID.TID 0000.0001) %MON dynstat_theta_mean           =   3.0000000000000E+02
(PID.TID 0000.0001) %MON dynstat_theta_sd             =   1.1368683772162E-13
(PID.TID 0000.0001) %MON dynstat_theta_del2           =   0.0000000000000E+00
(PID.TID 0000.0001) %MON dynstat_salt_max             =   9.8508372020935E-01
(PID.TID 0000.0001) %MON dynstat_salt_min             =  -8.1950559060734E-03
(PID.TID 0000.0001) %MON dynstat_salt_mean            =   6.6909104655711E-03
(PID.TID 0000.0001) %MON dynstat_salt_sd              =   6.1912972996496E-02
(PID.TID 0000.0001) %MON dynstat_salt_del2            =   1.5500484147704E-04
(PID.TID 0000.0001) %MON trAdv_CFL_u_max              =   3.0121120732229E-01
(PID.TID 0000.0001) %MON trAdv_CFL_v_max              =   3.0121120732229E-01
(PID.TID 0000.0001) %MON trAdv_CFL_w_max              =   6.3621382799310E-05
(PID.TID 0000.0001) %MON advcfl_uvel_max              =   3.0692027974141E-01
(PID.TID 0000.0001) %MON advcfl_vvel_max              =   3.0692027974141E-01
(PID.TID 0000.0001) %MON advcfl_wvel_max              =   9.0671373496870E-05
(PID.TID 0000.0001) %MON advcfl_W_hf_max              =   0.0000000000000E+00
(PID.TID 0000.0001) %MON am_eta_mean                  =  -6.8986865553581E+11
(PID.TID 0000.0001) %MON am_uZo_mean                  =   2.9895867967878E+12
(PID.TID 0000.0001) %MON am_tot_mean                  =   2.2997181412520E+12
(PID.TID 0000.0001) %MON pe_b_mean                    =   8.2935987012125E+02
(PID.TID 0000.0001) %MON ke_max                       =   3.1990655298470E+03
(PID.TID 0000.0001) %MON ke_mean                      =   2.1327934186819E+03
(PID.TID 0000.0001) %MON ke_vol                       =   3.8018800512493E+19
(PID.TID 0000.0001) %MON vort_r_min                   =  -2.9077802937794E-05
(PID.TID 0000.0001) %MON vort_r_max                   =   2.9077802937794E-05
(PID.TID 0000.0001) %MON vort_a_mean                  =  -6.5754556573936E-21
(PID.TID 0000.0001) %MON vort_a_sd                    =   8.3967450558335E-05
(PID.TID 0000.0001) %MON vort_p_mean                  =  -6.5754556573936E-21
(PID.TID 0000.0001) %MON vort_p_sd                    =   8.3967450558335E-05
(PID.TID 0000.0001) %MON surfExpan_theta_mean         =  -5.3941240185263E-15
(PID.TID 0000.0001) %MON surfExpan_salt_mean          =   1.9321182211463E-06
(PID.TID 0000.0001) %MON surfExpan_Heat_mean          =  -4.4990885226743E-13
(PID.TID 0000.0001) %MON En_Budget_T2PE_mean          =   0.0000000000000E+00
(PID.TID 0000.0001) // =======================================================
(PID.TID 0000.0001) // End MONITOR dynamic field statistics
(PID.TID 0000.0001) // =======================================================
 cg2d: Sum(rhs),rhsMax =   1.62016581610934E+03  1.10055433699999E+05
(PID.TID 0000.0001)      cg2d_init_res =   8.91151654191398E-04
(PID.TID 0000.0001)      cg2d_iters(min,last) =      -1      12
(PID.TID 0000.0001)      cg2d_last_res =   3.53152047814620E-13
(PID.TID 0000.0001) // =======================================================
(PID.TID 0000.0001) // Begin MONITOR dynamic field statistics
(PID.TID 0000.0001) // =======================================================
(PID.TID 0000.0001) %MON time_tsnumber                =                     6
(PID.TID 0000.0001) %MON time_secondsf                =   2.7000000000000E+03
(PID.TID 0000.0001) %MON dynstat_eta_max              =  -1.5769141656766E+01
(PID.TID 0000.0001) %MON dynstat_eta_min              =  -2.8760651775000E+04
(PID.TID 0000.0001) %MON dynstat_eta_mean             =  -9.6000080157063E+03
(PID.TID 0000.0001) %MON dynstat_eta_sd               =   8.5854409748845E+03
(PID.TID 0000.0001) %MON dynstat_eta_del2             =   1.4271287079646E+00
(PID.TID 0000.0001) %MON dynstat_uvel_max             =   7.9970170516317E+01
(PID.TID 0000.0001) %MON dynstat_uvel_min             =  -5.5211677613014E+01
(PID.TID 0000.0001) %MON dynstat_uvel_mean            =   2.4386700103283E+01
(PID.TID 0000.0001) %MON dynstat_uvel_sd              =   3.9219920425468E+01
(PID.TID 0000.0001) %MON dynstat_uvel_del2            =   3.0091400891565E-02
(PID.TID 0000.0001) %MON dynstat_vvel_max             =   7.9970170516317E+01
(PID.TID 0000.0001) %MON dynstat_vvel_min             =  -5.5211677613014E+01
(PID.TID 0000.0001) %MON dynstat_vvel_mean            =   2.4386700103283E+01
(PID.TID 0000.0001) %MON dynstat_vvel_sd              =   3.9219920425468E+01
(PID.TID 0000.0001) %MON dynstat_vvel_del2            =   3.0091400891565E-02
(PID.TID 0000.0001) %MON dynstat_wvel_max             =   1.5385336406147E-03
(PID.TID 0000.0001) %MON dynstat_wvel_min             =  -7.9579994915719E-03
(PID.TID 0000.0001) %MON dynstat_wvel_mean            =  -1.0389596585779E-18
(PID.TID 0000.0001) %MON dynstat_wvel_sd              =   8.6871958655974E-04
(PID.TID 0000.0001) %MON dynstat_wvel_del2            =   1.0956270669315E-05
(PID.TID 0000.0001) %MON dynstat_theta_max            =   3.0000000000000E+02
(PID.TID 0000.0001) %MON dynstat_theta_min            =   3.0000000000000E+02
(PID.TID 0000.0001) %MON dynstat_theta_mean           =   3.0000000000000E+02
(PID.TID 0000.0001) %MON dynstat_theta_sd             =   1.1368683772162E-13
(PID.TID 0000.0001) %MON dynstat_theta_del2           =   0.0000000000000E+00
(PID.TID 0000.0001) %MON dynstat_salt_max             =   9.8493546841974E-01
(PID.TID 0000.0001) %MON dynstat_salt_min             =  -9.7755174581448E-03
(PID.TID 0000.0001) %MON dynstat_salt_mean            =   6.6909008867087E-03
(PID.TID 0000.0001) %MON dynstat_salt_sd              =   6.1908060646821E-02
(PID.TID 0000.0001) %MON dynstat_salt_del2            =   1.5495222474410E-04
(PID.TID 0000.0001) %MON trAdv_CFL_u_max              =   3.0108990105076E-01
(PID.TID 0000.0001) %MON trAdv_CFL_v_max              =   3.0108990105076E-01
(PID.TID 0000.0001) %MON trAdv_CFL_w_max              =   1.5638564381208E-05
(PID.TID 0000.0001) %MON advcfl_uvel_max              =   3.0707406154299E-01
(PID.TID 0000.0001) %MON advcfl_vvel_max              =   3.0707406154299E-01
(PID.TID 0000.0001) %MON advcfl_wvel_max              =   7.1621995424147E-05
(PID.TID 0000.0001) %MON advcfl_W_hf_max              =   0.0000000000000E+00
(PID.TID 0000.0001) %MON am_eta_mean                  =  -6.8987494844356E+11
(PID.TID 0000.0001) %MON am_uZo_mean                  =   2.9895933898873E+12
(PID.TID 0000.0001) %MON am_tot_mean                  =   2.2997184414437E+12
(PID.TID 0000.0001) %MON pe_b_mean                    =   8.2934975317426E+02
(PID.TID 0000.0001) %MON ke_max                       =   3.1990653242526E+03
(PID.TID 0000.0001) %MON ke_mean                      =   2.1328039320487E+03
(PID.TID 0000.0001) %MON ke_vol                       =   3.8018800512493E+19
(PID.TID 0000.0001) %MON vort_r_min                   =  -2.9078631380331E-05
(PID.TID 0000.0001) %MON vort_r_max                   =   2.9078631380331E-05
(PID.TID 0000.0001) %MON vort_a_mean                  =  -9.8631834860904E-21
(PID.TID 0000.0001) %MON vort_a_sd                    =   8.3967491411678E-05
(PID.TID 0000.0001) %MON vort_p_mean                  =  -9.8631834860904E-21
(PID.TID 0000.0001) %MON vort_p_sd                    =   8.3967491411678E-05
(PID.TID 0000.0001) %MON surfExpan_theta_mean         =  -2.9025524480642E-16
(PID.TID 0000.0001) %MON surfExpan_salt_mean          =   2.2122055864904E-06
(PID.TID 0000.0001) %MON surfExpan_Heat_mean          =  -2.9225306851698E-14
(PID.TID 0000.0001) %MON En_Budget_T2PE_mean          =   0.0000000000000E+00
(PID.TID 0000.0001) // =======================================================
(PID.TID 0000.0001) // End MONITOR dynamic field statistics
(PID.TID 0000.0001) // =======================================================
 cg2d: Sum(rhs),rhsMax =   1.62020431811161E+03  1.10052818378887E+05
(PID.TID 0000.0001)      cg2d_init_res =   8.29561226836835E-04
(PID.TID 0000.0001)      cg2d_iters(min,last) =      -1      12
(PID.TID 0000.0001)      cg2d_last_res =   2.04852802367666E-13
(PID.TID 0000.0001) // =======================================================
(PID.TID 0000.0001) // Begin MONITOR dynamic field statistics
(PID.TID 0000.0001) // =======================================================
(PID.TID 0000.0001) %MON time_tsnumber                =                     7
(PID.TID 0000.0001) %MON time_secondsf                =   3.1500000000000E+03
(PID.TID 0000.0001) %MON dynstat_eta_max              =  -1.5645685426455E+01
(PID.TID 0000.0001) %MON dynstat_eta_min              =  -2.8759971569384E+04
(PID.TID 0000.0001) %MON dynstat_eta_mean             =  -9.6000080157063E+03
(PID.TID 0000.0001) %MON dynstat_eta_sd               =   8.5853057810630E+03
(PID.TID 0000.0001) %MON dynstat_eta_del2             =   1.4275733491640E+00
(PID.TID 0000.0001) %MON dynstat_uvel_max             =   7.9970184915622E+01
(PID.TID 0000.0001) %MON dynstat_uvel_min             =  -5.5212512930973E+01
(PID.TID 0000.0001) %MON dynstat_uvel_mean            =   2.4386706598960E+01
(PID.TID 0000.0001) %MON dynstat_uvel_sd              =   3.9220072819356E+01
(PID.TID 0000.0001) %MON dynstat_uvel_del2            =   3.0114632788840E-02
(PID.TID 0000.0001) %MON dynstat_vvel_max             =   7.9970184915622E+01
(PID.TID 0000.0001) %MON dynstat_vvel_min             =  -5.5212512930973E+01
(PID.TID 0000.0001) %MON dynstat_vvel_mean            =   2.4386706598960E+01
(PID.TID 0000.0001) %MON dynstat_vvel_sd              =   3.9220072819356E+01
(PID.TID 0000.0001) %MON dynstat_vvel_del2            =   3.0114632788840E-02
(PID.TID 0000.0001) %MON dynstat_wvel_max             =   1.5115680346787E-03
(PID.TID 0000.0001) %MON dynstat_wvel_min             =  -5.8909028375435E-03
(PID.TID 0000.0001) %MON dynstat_wvel_mean            =  -1.4716403265173E-17
(PID.TID 0000.0001) %MON dynstat_wvel_sd              =   8.4854605580235E-04
(PID.TID 0000.0001) %MON dynstat_wvel_del2            =   7.1749429954498E-06
(PID.TID 0000.0001) %MON dynstat_theta_max            =   3.0000000000000E+02
(PID.TID 0000.0001) %MON dynstat_theta_min            =   3.0000000000000E+02
(PID.TID 0000.0001) %MON dynstat_theta_mean           =   3.0000000000000E+02
(PID.TID 0000.0001) %MON dynstat_theta_sd             =   1.1368683772162E-13
(PID.TID 0000.0001) %MON dynstat_theta_del2           =   0.0000000000000E+00
(PID.TID 0000.0001) %MON dynstat_salt_max             =   9.8374497394885E-01
(PID.TID 0000.0001) %MON dynstat_salt_min             =  -1.1393903839203E-02
(PID.TID 0000.0001) %MON dynstat_salt_mean            =   6.6908901755477E-03
(PID.TID 0000.0001) %MON dynstat_salt_sd              =   6.1903144176892E-02
(PID.TID 0000.0001) %MON dynstat_salt_del2            =   1.5489583121961E-04
(PID.TID 0000.0001) %MON trAdv_CFL_u_max              =   3.0099942255405E-01
(PID.TID 0000.0001) %MON trAdv_CFL_v_max              =   3.0099942255405E-01
(PID.TID 0000.0001) %MON trAdv_CFL_w_max              =   6.9234013827660E-06
(PID.TID 0000.0001) %MON advcfl_uvel_max              =   3.0724536706382E-01
(PID.TID 0000.0001) %MON advcfl_vvel_max              =   3.0724536706382E-01
(PID.TID 0000.0001) %MON advcfl_wvel_max              =   5.3018125537892E-05
(PID.TID 0000.0001) %MON advcfl_W_hf_max              =   0.0000000000000E+00
(PID.TID 0000.0001) %MON am_eta_mean                  =  -6.8988216868268E+11
(PID.TID 0000.0001) %MON am_uZo_mean                  =   2.9896011933346E+12
(PID.TID 0000.0001) %MON am_tot_mean                  =   2.2997190246519E+12
(PID.TID 0000.0001) %MON pe_b_mean                    =   8.2933814627989E+02
(PID.TID 0000.0001) %MON ke_max                       =   3.1990647097522E+03
(PID.TID 0000.0001) %MON ke_mean                      =   2.1328161347387E+03
(PID.TID 0000.0001) %MON ke_vol                       =   3.8018800512493E+19
(PID.TID 0000.0001) %MON vort_r_min                   =  -2.9079580091932E-05
(PID.TID 0000.0001) %MON vort_r_max                   =   2.9079580091932E-05
(PID.TID 0000.0001) %MON vort_a_mean                  =   3.2877278286968E-21
(PID.TID 0000.0001) %MON vort_a_sd                    =   8.3967538932507E-05
(PID.TID 0000.0001) %MON vort_p_mean                  =   3.2877278286968E-21
(PID.TID 0000.0001) %MON vort_p_sd                    =   8.3967538932507E-05
(PID.TID 0000.0001) %MON surfExpan_theta_mean         =  -4.4360248476166E-15
(PID.TID 0000.0001) %MON surfExpan_salt_mean          =   2.4345511271086E-06
(PID.TID 0000.0001) %MON surfExpan_Heat_mean          =  -3.6893598374254E-13
(PID.TID 0000.0001) %MON En_Budget_T2PE_mean          =   0.0000000000000E+00
(PID.TID 0000.0001) // =======================================================
(PID.TID 0000.0001) // End MONITOR dynamic field statistics
(PID.TID 0000.0001) // =======================================================
 cg2d: Sum(rhs),rhsMax =   1.62024681733372E+03  1.10049931683402E+05
(PID.TID 0000.0001)      cg2d_init_res =   8.17208156135272E-04
(PID.TID 0000.0001)      cg2d_iters(min,last) =      -1      12
(PID.TID 0000.0001)      cg2d_last_res =   1.89833260816584E-13
(PID.TID 0000.0001) // =======================================================
(PID.TID 0000.0001) // Begin MONITOR dynamic field statistics
(PID.TID 0000.0001) // =======================================================
(PID.TID 0000.0001) %MON time_tsnumber                =                     8
(PID.TID 0000.0001) %MON time_secondsf                =   3.6000000000000E+03
(PID.TID 0000.0001) %MON dynstat_eta_max              =  -1.5499307793036E+01
(PID.TID 0000.0001) %MON dynstat_eta_min              =  -2.8759220746630E+04
(PID.TID 0000.0001) %MON dynstat_eta_mean             =  -9.6000080157063E+03
(PID.TID 0000.0001) %MON dynstat_eta_sd               =   8.5851541852219E+03
(PID.TID 0000.0001) %MON dynstat_eta_del2             =   1.4277657358462E+00
(PID.TID 0000.0001) %MON dynstat_uvel_max             =   7.9970198334046E+01
(PID.TID 0000.0001) %MON dynstat_uvel_min             =  -5.5213391838265E+01
(PID.TID 0000.0001) %MON dynstat_uvel_mean            =   2.4386716136963E+01
(PID.TID 0000.0001) %MON dynstat_uvel_sd              =   3.9220243848807E+01
(PID.TID 0000.0001) %MON dynstat_uvel_del2            =   3.0139040145195E-02
(PID.TID 0000.0001) %MON dynstat_vvel_max             =   7.9970198334046E+01
(PID.TID 0000.0001) %MON dynstat_vvel_min             =  -5.5213391838265E+01
(PID.TID 0000.0001) %MON dynstat_vvel_mean            =   2.4386716136963E+01
(PID.TID 0000.0001) %MON dynstat_vvel_sd              =   3.9220243848807E+01
(PID.TID 0000.0001) %MON dynstat_vvel_del2            =   3.0139040145195E-02
(PID.TID 0000.0001) %MON dynstat_wvel_max             =   1.6684950097878E-03
(PID.TID 0000.0001) %MON dynstat_wvel_min             =  -4.9461365932722E-03
(PID.TID 0000.0001) %MON dynstat_wvel_mean            =   1.3519626949596E-17
(PID.TID 0000.0001) %MON dynstat_wvel_sd              =   8.4465308468668E-04
(PID.TID 0000.0001) %MON dynstat_wvel_del2            =   5.2735583453525E-06
(PID.TID 0000.0001) %MON dynstat_theta_max            =   3.0000000000000E+02
(PID.TID 0000.0001) %MON dynstat_theta_min            =   3.0000000000000E+02
(PID.TID 0000.0001) %MON dynstat_theta_mean           =   3.0000000000000E+02
(PID.TID 0000.0001) %MON dynstat_theta_sd             =   1.1368683772162E-13
(PID.TID 0000.0001) %MON dynstat_theta_del2           =   0.0000000000000E+00
(PID.TID 0000.0001) %MON dynstat_salt_max             =   9.8151515092295E-01
(PID.TID 0000.0001) %MON dynstat_salt_min             =  -1.2575404473626E-02
(PID.TID 0000.0001) %MON dynstat_salt_mean            =   6.6908786197346E-03
(PID.TID 0000.0001) %MON dynstat_salt_sd              =   6.1898224812420E-02
(PID.TID 0000.0001) %MON dynstat_salt_del2            =   1.5483565884964E-04
(PID.TID 0000.0001) %MON trAdv_CFL_u_max              =   3.0094013473453E-01
(PID.TID 0000.0001) %MON trAdv_CFL_v_max              =   3.0094013473453E-01
(PID.TID 0000.0001) %MON trAdv_CFL_w_max              =   6.8020561560539E-06
(PID.TID 0000.0001) %MON advcfl_uvel_max              =   3.0743161172300E-01
(PID.TID 0000.0001) %MON advcfl_vvel_max              =   3.0743161172300E-01
(PID.TID 0000.0001) %MON advcfl_wvel_max              =   4.4515229339450E-05
(PID.TID 0000.0001) %MON advcfl_W_hf_max              =   0.0000000000000E+00
(PID.TID 0000.0001) %MON am_eta_mean                  =  -6.8989026517138E+11
(PID.TID 0000.0001) %MON am_uZo_mean                  =   2.9896101529042E+12
(PID.TID 0000.0001) %MON am_tot_mean                  =   2.2997198877329E+12
(PID.TID 0000.0001) %MON pe_b_mean                    =   8.2932513142829E+02
(PID.TID 0000.0001) %MON ke_max                       =   3.1990634746191E+03
(PID.TID 0000.0001) %MON ke_mean                      =   2.1328299422072E+03
(PID.TID 0000.0001) %MON ke_vol                       =   3.8018800512493E+19
(PID.TID 0000.0001) %MON vort_r_min                   =  -2.9080637056352E-05
(PID.TID 0000.0001) %MON vort_r_max                   =   2.9080637056352E-05
(PID.TID 0000.0001) %MON vort_a_mean                  =   1.3150911314787E-20
(PID.TID 0000.0001) %MON vort_a_sd                    =   8.3967592779607E-05
(PID.TID 0000.0001) %MON vort_p_mean                  =   1.3150911314787E-20
(PID.TID 0000.0001) %MON vort_p_sd                    =   8.3967592779607E-05
(PID.TID 0000.0001) %MON surfExpan_theta_mean         =   4.0301812309847E-15
(PID.TID 0000.0001) %MON surfExpan_salt_mean          =   2.5891391175414E-06
(PID.TID 0000.0001) %MON surfExpan_Heat_mean          =   3.3595696775392E-13
(PID.TID 0000.0001) %MON En_Budget_T2PE_mean          =   0.0000000000000E+00
(PID.TID 0000.0001) // =======================================================
(PID.TID 0000.0001) // End MONITOR dynamic field statistics
(PID.TID 0000.0001) // =======================================================
 cg2d: Sum(rhs),rhsMax =   1.62029279055420E+03  1.10046809192330E+05
(PID.TID 0000.0001)      cg2d_init_res =   8.20302103383185E-04
(PID.TID 0000.0001)      cg2d_iters(min,last) =      -1      12
(PID.TID 0000.0001)      cg2d_last_res =   2.01464231646907E-13
(PID.TID 0000.0001) // =======================================================
(PID.TID 0000.0001) // Begin MONITOR dynamic field statistics
(PID.TID 0000.0001) // =======================================================
(PID.TID 0000.0001) %MON time_tsnumber                =                     9
(PID.TID 0000.0001) %MON time_secondsf                =   4.0500000000000E+03
(PID.TID 0000.0001) %MON dynstat_eta_max              =  -1.5328088148736E+01
(PID.TID 0000.0001) %MON dynstat_eta_min              =  -2.8758408549944E+04
(PID.TID 0000.0001) %MON dynstat_eta_mean             =  -9.6000080157063E+03
(PID.TID 0000.0001) %MON dynstat_eta_sd               =   8.5849872435933E+03
(PID.TID 0000.0001) %MON dynstat_eta_del2             =   1.4279240432845E+00
(PID.TID 0000.0001) %MON dynstat_uvel_max             =   7.9970246992361E+01
(PID.TID 0000.0001) %MON dynstat_uvel_min             =  -5.5214299657334E+01
(PID.TID 0000.0001) %MON dynstat_uvel_mean            =   2.4386729338116E+01
(PID.TID 0000.0001) %MON dynstat_uvel_sd              =   3.9220431901831E+01
(PID.TID 0000.0001) %MON dynstat_uvel_del2            =   3.0163964479731E-02
(PID.TID 0000.0001) %MON dynstat_vvel_max             =   7.9970246992361E+01
(PID.TID 0000.0001) %MON dynstat_vvel_min             =  -5.5214299657334E+01
(PID.TID 0000.0001) %MON dynstat_vvel_mean            =   2.4386729338116E+01
(PID.TID 0000.0001) %MON dynstat_vvel_sd              =   3.9220431901831E+01
(PID.TID 0000.0001) %MON dynstat_vvel_del2            =   3.0163964479731E-02
(PID.TID 0000.0001) %MON dynstat_wvel_max             =   1.8048815237994E-03
(PID.TID 0000.0001) %MON dynstat_wvel_min             =  -4.0979411386740E-03
(PID.TID 0000.0001) %MON dynstat_wvel_mean            =  -5.9838815778852E-18
(PID.TID 0000.0001) %MON dynstat_wvel_sd              =   8.4532011758577E-04
(PID.TID 0000.0001) %MON dynstat_wvel_del2            =   4.1953144940517E-06
(PID.TID 0000.0001) %MON dynstat_theta_max            =   3.0000000000000E+02
(PID.TID 0000.0001) %MON dynstat_theta_min            =   3.0000000000000E+02
(PID.TID 0000.0001) %MON dynstat_theta_mean           =   3.0000000000000E+02
(PID.TID 0000.0001) %MON dynstat_theta_sd             =   1.1368683772162E-13
(PID.TID 0000.0001) %MON dynstat_theta_del2           =   0.0000000000000E+00
(PID.TID 0000.0001) %MON dynstat_salt_max             =   9.7825110854639E-01
(PID.TID 0000.0001) %MON dynstat_salt_min             =  -1.3348498067933E-02
(PID.TID 0000.0001) %MON dynstat_salt_mean            =   6.6908665512210E-03
(PID.TID 0000.0001) %MON dynstat_salt_sd              =   6.1893304005120E-02
(PID.TID 0000.0001) %MON dynstat_salt_del2            =   1.5477170539439E-04
(PID.TID 0000.0001) %MON trAdv_CFL_u_max              =   3.0091427100271E-01
(PID.TID 0000.0001) %MON trAdv_CFL_v_max              =   3.0091427100271E-01
(PID.TID 0000.0001) %MON trAdv_CFL_w_max              =   7.5082275440452E-06
(PID.TID 0000.0001) %MON advcfl_uvel_max              =   3.0762826357601E-01
(PID.TID 0000.0001) %MON advcfl_vvel_max              =   3.0762826357601E-01
(PID.TID 0000.0001) %MON advcfl_wvel_max              =   3.6881470248066E-05
(PID.TID 0000.0001) %MON advcfl_W_hf_max              =   0.0000000000000E+00
(PID.TID 0000.0001) %MON am_eta_mean                  =  -6.8989918154137E+11
(PID.TID 0000.0001) %MON am_uZo_mean                  =   2.9896202074112E+12
(PID.TID 0000.0001) %MON am_tot_mean                  =   2.2997210258699E+12
(PID.TID 0000.0001) %MON pe_b_mean                    =   8.2931079937142E+02
(PID.TID 0000.0001) %MON ke_max                       =   3.1990613642837E+03
(PID.TID 0000.0001) %MON ke_mean                      =   2.1328452601996E+03
(PID.TID 0000.0001) %MON ke_vol                       =   3.8018800512493E+19
(PID.TID 0000.0001) %MON vort_r_min                   =  -2.9081789158377E-05
(PID.TID 0000.0001) %MON vort_r_max                   =   2.9081789158377E-05
(PID.TID 0000.0001) %MON vort_a_mean                  =  -6.5754556573936E-21
(PID.TID 0000.0001) %MON vort_a_sd                    =   8.3967652569745E-05
(PID.TID 0000.0001) %MON vort_p_mean                  =  -6.5754556573936E-21
(PID.TID 0000.0001) %MON vort_p_sd                    =   8.3967652569745E-05
(PID.TID 0000.0001) %MON surfExpan_theta_mean         =  -1.8519825796940E-15
(PID.TID 0000.0001) %MON surfExpan_salt_mean          =   2.6676121637915E-06
(PID.TID 0000.0001) %MON surfExpan_Heat_mean          =  -1.5202522004507E-13
(PID.TID 0000.0001) %MON En_Budget_T2PE_mean          =   0.0000000000000E+00
(PID.TID 0000.0001) // =======================================================
(PID.TID 0000.0001) // End MONITOR dynamic field statistics
(PID.TID 0000.0001) // =======================================================
 Compute Stats, Diag. #     23  ETAN      vol(   0 ): 3.802E+14  Parms: SM      M1      
 Compute Stats, Diag. #     37  UE_VEL_C  vol(   0 ): 3.802E+19  Parms: UMR     MR      
 Compute Stats, Diag. #     38  VN_VEL_C  vol(   0 ): 3.802E+19  Parms: VMR     MR      
 Compute Stats, Diag. #    148  momKE     vol(   0 ): 3.802E+19  Parms: SMR     MR      
 Compute Stats, Diag. #    150  momVort3  vol(   0 ): 3.985E+19  Parms: SZR     MR      
 Compute Stats, Diag. #     27  SALT      vol(   0 ): 3.802E+19  Parms: SMR     MR      
 Compute Stats, Diag. #     33  SALTSQ    vol(   0 ): 3.802E+19  Parms: SMRP    MR      
 cg2d: Sum(rhs),rhsMax =   1.62034168157550E+03  1.10043488719276E+05
(PID.TID 0000.0001)      cg2d_init_res =   8.27344468147466E-04
(PID.TID 0000.0001)      cg2d_iters(min,last) =      -1      12
(PID.TID 0000.0001)      cg2d_last_res =   1.99445320859157E-13
(PID.TID 0000.0001) // =======================================================
(PID.TID 0000.0001) // Begin MONITOR dynamic field statistics
(PID.TID 0000.0001) // =======================================================
(PID.TID 0000.0001) %MON time_tsnumber                =                    10
(PID.TID 0000.0001) %MON time_secondsf                =   4.5000000000000E+03
(PID.TID 0000.0001) %MON dynstat_eta_max              =  -1.5130292450007E+01
(PID.TID 0000.0001) %MON dynstat_eta_min              =  -2.8757544804509E+04
(PID.TID 0000.0001) %MON dynstat_eta_mean             =  -9.6000080157063E+03
(PID.TID 0000.0001) %MON dynstat_eta_sd               =   8.5848061022658E+03
(PID.TID 0000.0001) %MON dynstat_eta_del2             =   1.4281096483716E+00
(PID.TID 0000.0001) %MON dynstat_uvel_max             =   7.9970341045299E+01
(PID.TID 0000.0001) %MON dynstat_uvel_min             =  -5.5215219594604E+01
(PID.TID 0000.0001) %MON dynstat_uvel_mean            =   2.4386746792218E+01
(PID.TID 0000.0001) %MON dynstat_uvel_sd              =   3.9220635269378E+01
(PID.TID 0000.0001) %MON dynstat_uvel_del2            =   3.0188773108511E-02
(PID.TID 0000.0001) %MON dynstat_vvel_max             =   7.9970341045299E+01
(PID.TID 0000.0001) %MON dynstat_vvel_min             =  -5.5215219594604E+01
(PID.TID 0000.0001) %MON dynstat_vvel_mean            =   2.4386746792218E+01
(PID.TID 0000.0001) %MON dynstat_vvel_sd              =   3.9220635269378E+01
(PID.TID 0000.0001) %MON dynstat_vvel_del2            =   3.0188773108511E-02
(PID.TID 0000.0001) %MON dynstat_wvel_max             =   1.9194343009505E-03
(PID.TID 0000.0001) %MON dynstat_wvel_min             =  -3.5013046667838E-03
(PID.TID 0000.0001) %MON dynstat_wvel_mean            =   2.4172251297040E-17
(PID.TID 0000.0001) %MON dynstat_wvel_sd              =   8.4524338223978E-04
(PID.TID 0000.0001) %MON dynstat_wvel_del2            =   3.5479242960668E-06
(PID.TID 0000.0001) %MON dynstat_theta_max            =   3.0000000000000E+02
(PID.TID 0000.0001) %MON dynstat_theta_min            =   3.0000000000000E+02
(PID.TID 0000.0001) %MON dynstat_theta_mean           =   3.0000000000000E+02
(PID.TID 0000.0001) %MON dynstat_theta_sd             =   1.1368683772162E-13
(PID.TID 0000.0001) %MON dynstat_theta_del2           =   0.0000000000000E+00
(PID.TID 0000.0001) %MON dynstat_salt_max             =   9.7396014094746E-01
(PID.TID 0000.0001) %MON dynstat_salt_min             =  -1.4879341063605E-02
(PID.TID 0000.0001) %MON dynstat_salt_mean            =   6.6908543350891E-03
(PID.TID 0000.0001) %MON dynstat_salt_sd              =   6.1888383425676E-02
(PID.TID 0000.0001) %MON dynstat_salt_del2            =   1.5470396884716E-04
(PID.TID 0000.0001) %MON trAdv_CFL_u_max              =   3.0092390572649E-01
(PID.TID 0000.0001) %MON trAdv_CFL_v_max              =   3.0092390572649E-01
(PID.TID 0000.0001) %MON trAdv_CFL_w_max              =   8.1219668570972E-06
(PID.TID 0000.0001) %MON advcfl_uvel_max              =   3.0783072123438E-01
(PID.TID 0000.0001) %MON advcfl_vvel_max              =   3.0783072123438E-01
(PID.TID 0000.0001) %MON advcfl_wvel_max              =   3.1511742001054E-05
(PID.TID 0000.0001) %MON advcfl_W_hf_max              =   0.0000000000000E+00
(PID.TID 0000.0001) %MON am_eta_mean                  =  -6.8990885657506E+11
(PID.TID 0000.0001) %MON am_uZo_mean                  =   2.9896312890225E+12
(PID.TID 0000.0001) %MON am_tot_mean                  =   2.2997224324474E+12
(PID.TID 0000.0001) %MON pe_b_mean                    =   8.2929524857563E+02
(PID.TID 0000.0001) %MON ke_max                       =   3.1990580818268E+03
(PID.TID 0000.0001) %MON ke_mean                      =   2.1328619853215E+03
(PID.TID 0000.0001) %MON ke_vol                       =   3.8018800512493E+19
(PID.TID 0000.0001) %MON vort_r_min                   =  -2.9083022360116E-05
(PID.TID 0000.0001) %MON vort_r_max                   =   2.9083022360116E-05
(PID.TID 0000.0001) %MON vort_a_mean                  =  -9.8631834860904E-21
(PID.TID 0000.0001) %MON vort_a_sd                    =   8.3967717885295E-05
(PID.TID 0000.0001) %MON vort_p_mean                  =  -9.8631834860904E-21
(PID.TID 0000.0001) %MON vort_p_sd                    =   8.3967717885295E-05
(PID.TID 0000.0001) %MON surfExpan_theta_mean         =   7.1973026190051E-15
(PID.TID 0000.0001) %MON surfExpan_salt_mean          =   2.6647617450801E-06
(PID.TID 0000.0001) %MON surfExpan_Heat_mean          =   6.0997773474874E-13
(PID.TID 0000.0001) %MON En_Budget_T2PE_mean          =   0.0000000000000E+00
(PID.TID 0000.0001) // =======================================================
(PID.TID 0000.0001) // End MONITOR dynamic field statistics
(PID.TID 0000.0001) // =======================================================
 cg2d: Sum(rhs),rhsMax =   1.62039290844177E+03  1.10040009820391E+05
(PID.TID 0000.0001)      cg2d_init_res =   8.33286164340744E-04
(PID.TID 0000.0001)      cg2d_iters(min,last) =      -1      12
(PID.TID 0000.0001)      cg2d_last_res =   1.96231423258547E-13
(PID.TID 0000.0001) // =======================================================
(PID.TID 0000.0001) // Begin MONITOR dynamic field statistics
(PID.TID 0000.0001) // =======================================================
(PID.TID 0000.0001) %MON time_tsnumber                =                    11
(PID.TID 0000.0001) %MON time_secondsf                =   4.9500000000000E+03
(PID.TID 0000.0001) %MON dynstat_eta_max              =  -1.4905026869025E+01
(PID.TID 0000.0001) %MON dynstat_eta_min              =  -2.8756639789497E+04
(PID.TID 0000.0001) %MON dynstat_eta_mean             =  -9.6000080157063E+03
(PID.TID 0000.0001) %MON dynstat_eta_sd               =   8.5846119885180E+03
(PID.TID 0000.0001) %MON dynstat_eta_del2             =   1.4283208946446E+00
(PID.TID 0000.0001) %MON dynstat_uvel_max             =   7.9970519166690E+01
(PID.TID 0000.0001) %MON dynstat_uvel_min             =  -5.5216133304185E+01
(PID.TID 0000.0001) %MON dynstat_uvel_mean            =   2.4386769042726E+01
(PID.TID 0000.0001) %MON dynstat_uvel_sd              =   3.9220852164241E+01
(PID.TID 0000.0001) %MON dynstat_uvel_del2            =   3.0212887648285E-02
(PID.TID 0000.0001) %MON dynstat_vvel_max             =   7.9970519166690E+01
(PID.TID 0000.0001) %MON dynstat_vvel_min             =  -5.5216133304185E+01
(PID.TID 0000.0001) %MON dynstat_vvel_mean            =   2.4386769042726E+01
(PID.TID 0000.0001) %MON dynstat_vvel_sd              =   3.9220852164241E+01
(PID.TID 0000.0001) %MON dynstat_vvel_del2            =   3.0212887648285E-02
(PID.TID 0000.0001) %MON dynstat_wvel_max             =   2.0111444712179E-03
(PID.TID 0000.0001) %MON dynstat_wvel_min             =  -2.9596818298855E-03
(PID.TID 0000.0001) %MON dynstat_wvel_mean            =  -1.9095815496900E-17
(PID.TID 0000.0001) %MON dynstat_wvel_sd              =   8.4191377324902E-04
(PID.TID 0000.0001) %MON dynstat_wvel_del2            =   3.1815879538376E-06
(PID.TID 0000.0001) %MON dynstat_theta_max            =   3.0000000000000E+02
(PID.TID 0000.0001) %MON dynstat_theta_min            =   3.0000000000000E+02
(PID.TID 0000.0001) %MON dynstat_theta_mean           =   3.0000000000000E+02
(PID.TID 0000.0001) %MON dynstat_theta_sd             =   1.1368683772162E-13
(PID.TID 0000.0001) %MON dynstat_theta_del2           =   0.0000000000000E+00
(PID.TID 0000.0001) %MON dynstat_salt_max             =   9.7244092251981E-01
(PID.TID 0000.0001) %MON dynstat_salt_min             =  -1.6480788207910E-02
(PID.TID 0000.0001) %MON dynstat_salt_mean            =   6.6908423513573E-03
(PID.TID 0000.0001) %MON dynstat_salt_sd              =   6.1883464918871E-02
(PID.TID 0000.0001) %MON dynstat_salt_del2            =   1.5463244786089E-04
(PID.TID 0000.0001) %MON trAdv_CFL_u_max              =   3.0096994410836E-01
(PID.TID 0000.0001) %MON trAdv_CFL_v_max              =   3.0096994410836E-01
(PID.TID 0000.0001) %MON trAdv_CFL_w_max              =   8.6374543542773E-06
(PID.TID 0000.0001) %MON advcfl_uvel_max              =   3.0803440521419E-01
(PID.TID 0000.0001) %MON advcfl_vvel_max              =   3.0803440521419E-01
(PID.TID 0000.0001) %MON advcfl_wvel_max              =   2.6637136468969E-05
(PID.TID 0000.0001) %MON advcfl_W_hf_max              =   0.0000000000000E+00
(PID.TID 0000.0001) %MON am_eta_mean                  =  -6.8991922467718E+11
(PID.TID 0000.0001) %MON am_uZo_mean                  =   2.9896433236677E+12
(PID.TID 0000.0001) %MON am_tot_mean                  =   2.2997240989905E+12
(PID.TID 0000.0001) %MON pe_b_mean                    =   8.2927858447516E+02
(PID.TID 0000.0001) %MON ke_max                       =   3.1990532946334E+03
(PID.TID 0000.0001) %MON ke_mean                      =   2.1328800057348E+03
(PID.TID 0000.0001) %MON ke_vol                       =   3.8018800512493E+19
(PID.TID 0000.0001) %MON vort_r_min                   =  -2.9084321885208E-05
(PID.TID 0000.0001) %MON vort_r_max                   =   2.9084321885208E-05
(PID.TID 0000.0001) %MON vort_a_mean                  =   6.5754556573936E-21
(PID.TID 0000.0001) %MON vort_a_sd                    =   8.3967788276189E-05
(PID.TID 0000.0001) %MON vort_p_mean                  =   6.5754556573936E-21
(PID.TID 0000.0001) %MON vort_p_sd                    =   8.3967788276189E-05
(PID.TID 0000.0001) %MON surfExpan_theta_mean         =  -5.6561243279976E-15
(PID.TID 0000.0001) %MON surfExpan_salt_mean          =   2.5797007438388E-06
(PID.TID 0000.0001) %MON surfExpan_Heat_mean          =  -4.7725730455067E-13
(PID.TID 0000.0001) %MON En_Budget_T2PE_mean          =   0.0000000000000E+00
(PID.TID 0000.0001) // =======================================================
(PID.TID 0000.0001) // End MONITOR dynamic field statistics
(PID.TID 0000.0001) // =======================================================
 cg2d: Sum(rhs),rhsMax =   1.62044587085463E+03  1.10036413289007E+05
(PID.TID 0000.0001)      cg2d_init_res =   8.35532798786394E-04
(PID.TID 0000.0001)      cg2d_iters(min,last) =      -1      12
(PID.TID 0000.0001)      cg2d_last_res =   1.90370550048646E-13
(PID.TID 0000.0001) // =======================================================
(PID.TID 0000.0001) // Begin MONITOR dynamic field statistics
(PID.TID 0000.0001) // =======================================================
(PID.TID 0000.0001) %MON time_tsnumber                =                    12
(PID.TID 0000.0001) %MON time_secondsf                =   5.4000000000000E+03
(PID.TID 0000.0001) %MON dynstat_eta_max              =  -1.4653283135421E+01
(PID.TID 0000.0001) %MON dynstat_eta_min              =  -2.8755704106058E+04
(PID.TID 0000.0001) %MON dynstat_eta_mean             =  -9.6000080157063E+03
(PID.TID 0000.0001) %MON dynstat_eta_sd               =   8.5844062018002E+03
(PID.TID 0000.0001) %MON dynstat_eta_del2             =   1.4285488714975E+00
(PID.TID 0000.0001) %MON dynstat_uvel_max             =   7.9970757332680E+01
(PID.TID 0000.0001) %MON dynstat_uvel_min             =  -5.5217022045140E+01
(PID.TID 0000.0001) %MON dynstat_uvel_mean            =   2.4386796569643E+01
(PID.TID 0000.0001) %MON dynstat_uvel_sd              =   3.9221080741600E+01
(PID.TID 0000.0001) %MON dynstat_uvel_del2            =   3.0235783950164E-02
(PID.TID 0000.0001) %MON dynstat_vvel_max             =   7.9970757332680E+01
(PID.TID 0000.0001) %MON dynstat_vvel_min             =  -5.5217022045140E+01
(PID.TID 0000.0001) %MON dynstat_vvel_mean            =   2.4386796569643E+01
(PID.TID 0000.0001) %MON dynstat_vvel_sd              =   3.9221080741600E+01
(PID.TID 0000.0001) %MON dynstat_vvel_del2            =   3.0235783950164E-02
(PID.TID 0000.0001) %MON dynstat_wvel_max             =   2.0792965322232E-03
(PID.TID 0000.0001) %MON dynstat_wvel_min             =  -2.4507072489179E-03
(PID.TID 0000.0001) %MON dynstat_wvel_mean            =   1.8175218331071E-17
(PID.TID 0000.0001) %MON dynstat_wvel_sd              =   8.3417288630502E-04
(PID.TID 0000.0001) %MON dynstat_wvel_del2            =   2.9906125079819E-06
(PID.TID 0000.0001) %MON dynstat_theta_max            =   3.0000000000000E+02
(PID.TID 0000.0001) %MON dynstat_theta_min            =   3.0000000000000E+02
(PID.TID 0000.0001) %MON dynstat_theta_mean           =   3.0000000000000E+02
(PID.TID 0000.0001) %MON dynstat_theta_sd             =   1.1368683772162E-13
(PID.TID 0000.0001) %MON dynstat_theta_del2           =   0.0000000000000E+00
(PID.TID 0000.0001) %MON dynstat_salt_max             =   9.7733751578289E-01
(PID.TID 0000.0001) %MON dynstat_salt_min             =  -1.7852353858328E-02
(PID.TID 0000.0001) %MON dynstat_salt_mean            =   6.6908309723687E-03
(PID.TID 0000.0001) %MON dynstat_salt_sd              =   6.1878550415057E-02
(PID.TID 0000.0001) %MON dynstat_salt_del2            =   1.5455714207568E-04
(PID.TID 0000.0001) %MON trAdv_CFL_u_max              =   3.0105205598953E-01
(PID.TID 0000.0001) %MON trAdv_CFL_v_max              =   3.0105205598953E-01
(PID.TID 0000.0001) %MON trAdv_CFL_w_max              =   9.0501501204803E-06
(PID.TID 0000.0001) %MON advcfl_uvel_max              =   3.0823475055527E-01
(PID.TID 0000.0001) %MON advcfl_vvel_max              =   3.0823475055527E-01
(PID.TID 0000.0001) %MON advcfl_wvel_max              =   2.2056365240261E-05
(PID.TID 0000.0001) %MON advcfl_W_hf_max              =   0.0000000000000E+00
(PID.TID 0000.0001) %MON am_eta_mean                  =  -6.8993021637350E+11
(PID.TID 0000.0001) %MON am_uZo_mean                  =   2.9896562315177E+12
(PID.TID 0000.0001) %MON am_tot_mean                  =   2.2997260151442E+12
(PID.TID 0000.0001) %MON pe_b_mean                    =   8.2926091869565E+02
(PID.TID 0000.0001) %MON ke_max                       =   3.1990466519152E+03
(PID.TID 0000.0001) %MON ke_mean                      =   2.1328992019167E+03
(PID.TID 0000.0001) %MON ke_vol                       =   3.8018800512493E+19
(PID.TID 0000.0001) %MON vort_r_min                   =  -2.9085672408960E-05
(PID.TID 0000.0001) %MON vort_r_max                   =   2.9085672408960E-05
(PID.TID 0000.0001) %MON vort_a_mean                  =   3.2877278286968E-21
(PID.TID 0000.0001) %MON vort_a_sd                    =   8.3967863263265E-05
(PID.TID 0000.0001) %MON vort_p_mean                  =   3.2877278286968E-21
(PID.TID 0000.0001) %MON vort_p_sd                    =   8.3967863263265E-05
(PID.TID 0000.0001) %MON surfExpan_theta_mean         =   5.5533791085971E-15
(PID.TID 0000.0001) %MON surfExpan_salt_mean          =   2.4163876812364E-06
(PID.TID 0000.0001) %MON surfExpan_Heat_mean          =   4.6224246800300E-13
(PID.TID 0000.0001) %MON En_Budget_T2PE_mean          =   0.0000000000000E+00
(PID.TID 0000.0001) // =======================================================
(PID.TID 0000.0001) // End MONITOR dynamic field statistics
(PID.TID 0000.0001) // =======================================================
 cg2d: Sum(rhs),rhsMax =   1.62049995776733E+03  1.10032740638569E+05
(PID.TID 0000.0001)      cg2d_init_res =   8.32706633943544E-04
(PID.TID 0000.0001)      cg2d_iters(min,last) =      -1      12
(PID.TID 0000.0001)      cg2d_last_res =   1.72703693949499E-13
(PID.TID 0000.0001) // =======================================================
(PID.TID 0000.0001) // Begin MONITOR dynamic field statistics
(PID.TID 0000.0001) // =======================================================
(PID.TID 0000.0001) %MON time_tsnumber                =                    13
(PID.TID 0000.0001) %MON time_secondsf                =   5.8500000000000E+03
(PID.TID 0000.0001) %MON dynstat_eta_max              =  -1.4379312132620E+01
(PID.TID 0000.0001) %MON dynstat_eta_min              =  -2.8754748541172E+04
(PID.TID 0000.0001) %MON dynstat_eta_mean             =  -9.6000080157062E+03
(PID.TID 0000.0001) %MON dynstat_eta_sd               =   8.5841901041136E+03
(PID.TID 0000.0001) %MON dynstat_eta_del2             =   1.4287886026222E+00
(PID.TID 0000.0001) %MON dynstat_uvel_max             =   7.9971128860507E+01
(PID.TID 0000.0001) %MON dynstat_uvel_min             =  -5.5217868275388E+01
(PID.TID 0000.0001) %MON dynstat_uvel_mean            =   2.4386829773735E+01
(PID.TID 0000.0001) %MON dynstat_uvel_sd              =   3.9221319119985E+01
(PID.TID 0000.0001) %MON dynstat_uvel_del2            =   3.0257006781064E-02
(PID.TID 0000.0001) %MON dynstat_vvel_max             =   7.9971128860507E+01
(PID.TID 0000.0001) %MON dynstat_vvel_min             =  -5.5217868275388E+01
(PID.TID 0000.0001) %MON dynstat_vvel_mean            =   2.4386829773735E+01
(PID.TID 0000.0001) %MON dynstat_vvel_sd              =   3.9221319119985E+01
(PID.TID 0000.0001) %MON dynstat_vvel_del2            =   3.0257006781064E-02
(PID.TID 0000.0001) %MON dynstat_wvel_max             =   2.1234775242032E-03
(PID.TID 0000.0001) %MON dynstat_wvel_min             =  -2.0174893756585E-03
(PID.TID 0000.0001) %MON dynstat_wvel_mean            =  -1.0902500721026E-17
(PID.TID 0000.0001) %MON dynstat_wvel_sd              =   8.2160988317158E-04
(PID.TID 0000.0001) %MON dynstat_wvel_del2            =   2.8863325272250E-06
(PID.TID 0000.0001) %MON dynstat_theta_max            =   3.0000000000000E+02
(PID.TID 0000.0001) %MON dynstat_theta_min            =   3.0000000000000E+02
(PID.TID 0000.0001) %MON dynstat_theta_mean           =   3.0000000000000E+02
(PID.TID 0000.0001) %MON dynstat_theta_sd             =   1.1368683772162E-13
(PID.TID 0000.0001) %MON dynstat_theta_del2           =   0.0000000000000E+00
(PID.TID 0000.0001) %MON dynstat_salt_max             =   9.8120697080247E-01
(PID.TID 0000.0001) %MON dynstat_salt_min             =  -1.9369217146927E-02
(PID.TID 0000.0001) %MON dynstat_salt_mean            =   6.6908205395694E-03
(PID.TID 0000.0001) %MON dynstat_salt_sd              =   6.1873641803655E-02
(PID.TID 0000.0001) %MON dynstat_salt_del2            =   1.5447805221766E-04
(PID.TID 0000.0001) %MON trAdv_CFL_u_max              =   3.0116865182768E-01
(PID.TID 0000.0001) %MON trAdv_CFL_v_max              =   3.0116865182768E-01
(PID.TID 0000.0001) %MON trAdv_CFL_w_max              =   9.3568343950043E-06
(PID.TID 0000.0001) %MON advcfl_uvel_max              =   3.0842734879969E-01
(PID.TID 0000.0001) %MON advcfl_vvel_max              =   3.0842734879969E-01
(PID.TID 0000.0001) %MON advcfl_wvel_max              =   1.9111297717829E-05
(PID.TID 0000.0001) %MON advcfl_W_hf_max              =   0.0000000000000E+00
(PID.TID 0000.0001) %MON am_eta_mean                  =  -6.8994175883118E+11
(PID.TID 0000.0001) %MON am_uZo_mean                  =   2.9896699275145E+12
(PID.TID 0000.0001) %MON am_tot_mean                  =   2.2997281686834E+12
(PID.TID 0000.0001) %MON pe_b_mean                    =   8.2924236822593E+02
(PID.TID 0000.0001) %MON ke_max                       =   3.1990420566882E+03
(PID.TID 0000.0001) %MON ke_mean                      =   2.1329194474763E+03
(PID.TID 0000.0001) %MON ke_vol                       =   3.8018800512493E+19
(PID.TID 0000.0001) %MON vort_r_min                   =  -2.9087058253540E-05
(PID.TID 0000.0001) %MON vort_r_max                   =   2.9087058253540E-05
(PID.TID 0000.0001) %MON vort_a_mean                  =  -3.2877278286968E-21
(PID.TID 0000.0001) %MON vort_a_sd                    =   8.3967942342140E-05
(PID.TID 0000.0001) %MON vort_p_mean                  =  -3.2877278286968E-21
(PID.TID 0000.0001) %MON vort_p_sd                    =   8.3967942342140E-05
(PID.TID 0000.0001) %MON surfExpan_theta_mean         =  -3.2107881062657E-15
(PID.TID 0000.0001) %MON surfExpan_salt_mean          =   2.1834078435653E-06
(PID.TID 0000.0001) %MON surfExpan_Heat_mean          =  -2.7509325531965E-13
(PID.TID 0000.0001) %MON En_Budget_T2PE_mean          =   0.0000000000000E+00
(PID.TID 0000.0001) // =======================================================
(PID.TID 0000.0001) // End MONITOR dynamic field statistics
(PID.TID 0000.0001) // =======================================================
 cg2d: Sum(rhs),rhsMax =   1.62055455522249E+03  1.10029033569526E+05
(PID.TID 0000.0001)      cg2d_init_res =   8.24243811026035E-04
(PID.TID 0000.0001)      cg2d_iters(min,last) =      -1      11
(PID.TID 0000.0001)      cg2d_last_res =   9.12331561139629E-13
(PID.TID 0000.0001) // =======================================================
(PID.TID 0000.0001) // Begin MONITOR dynamic field statistics
(PID.TID 0000.0001) // =======================================================
(PID.TID 0000.0001) %MON time_tsnumber                =                    14
(PID.TID 0000.0001) %MON time_secondsf                =   6.3000000000000E+03
(PID.TID 0000.0001) %MON dynstat_eta_max              =  -1.4092087655933E+01
(PID.TID 0000.0001) %MON dynstat_eta_min              =  -2.8753783925716E+04
(PID.TID 0000.0001) %MON dynstat_eta_mean             =  -9.6000080157062E+03
(PID.TID 0000.0001) %MON dynstat_eta_sd               =   8.5839651100158E+03
(PID.TID 0000.0001) %MON dynstat_eta_del2             =   1.4290374712104E+00
(PID.TID 0000.0001) %MON dynstat_uvel_max             =   7.9971553068111E+01
(PID.TID 0000.0001) %MON dynstat_uvel_min             =  -5.5218657313739E+01
(PID.TID 0000.0001) %MON dynstat_uvel_mean            =   2.4386868963694E+01
(PID.TID 0000.0001) %MON dynstat_uvel_sd              =   3.9221565401048E+01
(PID.TID 0000.0001) %MON dynstat_uvel_del2            =   3.0276180029060E-02
(PID.TID 0000.0001) %MON dynstat_vvel_max             =   7.9971553068111E+01
(PID.TID 0000.0001) %MON dynstat_vvel_min             =  -5.5218657313739E+01
(PID.TID 0000.0001) %MON dynstat_vvel_mean            =   2.4386868963694E+01
(PID.TID 0000.0001) %MON dynstat_vvel_sd              =   3.9221565401048E+01
(PID.TID 0000.0001) %MON dynstat_vvel_del2            =   3.0276180029060E-02
(PID.TID 0000.0001) %MON dynstat_wvel_max             =   2.1435899036026E-03
(PID.TID 0000.0001) %MON dynstat_wvel_min             =  -1.6967173266656E-03
(PID.TID 0000.0001) %MON dynstat_wvel_mean            =  -5.5235829949709E-19
(PID.TID 0000.0001) %MON dynstat_wvel_sd              =   8.0428075491215E-04
(PID.TID 0000.0001) %MON dynstat_wvel_del2            =   2.8143168852569E-06
(PID.TID 0000.0001) %MON dynstat_theta_max            =   3.0000000000000E+02
(PID.TID 0000.0001) %MON dynstat_theta_min            =   3.0000000000000E+02
(PID.TID 0000.0001) %MON dynstat_theta_mean           =   3.0000000000000E+02
(PID.TID 0000.0001) %MON dynstat_theta_sd             =   1.1368683772162E-13
(PID.TID 0000.0001) %MON dynstat_theta_del2           =   0.0000000000000E+00
(PID.TID 0000.0001) %MON dynstat_salt_max             =   9.8404133367063E-01
(PID.TID 0000.0001) %MON dynstat_salt_min             =  -2.0364489389561E-02
(PID.TID 0000.0001) %MON dynstat_salt_mean            =   6.6908113432797E-03
(PID.TID 0000.0001) %MON dynstat_salt_sd              =   6.1868740787184E-02
(PID.TID 0000.0001) %MON dynstat_salt_del2            =   1.5439517991898E-04
(PID.TID 0000.0001) %MON trAdv_CFL_u_max              =   3.0131689655236E-01
(PID.TID 0000.0001) %MON trAdv_CFL_v_max              =   3.0131689655236E-01
(PID.TID 0000.0001) %MON trAdv_CFL_w_max              =   9.5556488589145E-06
(PID.TID 0000.0001) %MON advcfl_uvel_max              =   3.0860808935584E-01
(PID.TID 0000.0001) %MON advcfl_vvel_max              =   3.0860808935584E-01
(PID.TID 0000.0001) %MON advcfl_wvel_max              =   1.9292309132424E-05
(PID.TID 0000.0001) %MON advcfl_W_hf_max              =   0.0000000000000E+00
(PID.TID 0000.0001) %MON am_eta_mean                  =  -6.8995377639641E+11
(PID.TID 0000.0001) %MON am_uZo_mean                  =   2.9896843219504E+12
(PID.TID 0000.0001) %MON am_tot_mean                  =   2.2997305455539E+12
(PID.TID 0000.0001) %MON pe_b_mean                    =   8.2922305455796E+02
(PID.TID 0000.0001) %MON ke_max                       =   3.1990446042340E+03
(PID.TID 0000.0001) %MON ke_mean                      =   2.1329406100296E+03
(PID.TID 0000.0001) %MON ke_vol                       =   3.8018800512493E+19
(PID.TID 0000.0001) %MON vort_r_min                   =  -2.9088463589263E-05
(PID.TID 0000.0001) %MON vort_r_max                   =   2.9088463589263E-05
(PID.TID 0000.0001) %MON vort_a_mean                  =   0.0000000000000E+00
(PID.TID 0000.0001) %MON vort_a_sd                    =   8.3968024987052E-05
(PID.TID 0000.0001) %MON vort_p_mean                  =   0.0000000000000E+00
(PID.TID 0000.0001) %MON vort_p_sd                    =   8.3968024987052E-05
(PID.TID 0000.0001) %MON surfExpan_theta_mean         =  -1.5411782910075E-16
(PID.TID 0000.0001) %MON surfExpan_salt_mean          =   1.8931614221732E-06
(PID.TID 0000.0001) %MON surfExpan_Heat_mean          =  -1.2869859897995E-14
(PID.TID 0000.0001) %MON En_Budget_T2PE_mean          =   0.0000000000000E+00
(PID.TID 0000.0001) // =======================================================
(PID.TID 0000.0001) // End MONITOR dynamic field statistics
(PID.TID 0000.0001) // =======================================================
 cg2d: Sum(rhs),rhsMax =   1.62060905461510E+03  1.10025333407860E+05
(PID.TID 0000.0001)      cg2d_init_res =   8.10123280058111E-04
(PID.TID 0000.0001)      cg2d_iters(min,last) =      -1      11
(PID.TID 0000.0001)      cg2d_last_res =   8.54883164953634E-13
(PID.TID 0000.0001) // =======================================================
(PID.TID 0000.0001) // Begin MONITOR dynamic field statistics
(PID.TID 0000.0001) // =======================================================
(PID.TID 0000.0001) %MON time_tsnumber                =                    15
(PID.TID 0000.0001) %MON time_secondsf                =   6.7500000000000E+03
(PID.TID 0000.0001) %MON dynstat_eta_max              =  -1.3806454822052E+01
(PID.TID 0000.0001) %MON dynstat_eta_min              =  -2.8752820983151E+04
(PID.TID 0000.0001) %MON dynstat_eta_mean             =  -9.6000080157062E+03
(PID.TID 0000.0001) %MON dynstat_eta_sd               =   8.5837326764006E+03
(PID.TID 0000.0001) %MON dynstat_eta_del2             =   1.4292931649858E+00
(PID.TID 0000.0001) %MON dynstat_uvel_max             =   7.9972110209934E+01
(PID.TID 0000.0001) %MON dynstat_uvel_min             =  -5.5219378627769E+01
(PID.TID 0000.0001) %MON dynstat_uvel_mean            =   2.4386914346247E+01
(PID.TID 0000.0001) %MON dynstat_uvel_sd              =   3.9221817688052E+01
(PID.TID 0000.0001) %MON dynstat_uvel_del2            =   3.0293012195625E-02
(PID.TID 0000.0001) %MON dynstat_vvel_max             =   7.9972110209934E+01
(PID.TID 0000.0001) %MON dynstat_vvel_min             =  -5.5219378627769E+01
(PID.TID 0000.0001) %MON dynstat_vvel_mean            =   2.4386914346247E+01
(PID.TID 0000.0001) %MON dynstat_vvel_sd              =   3.9221817688052E+01
(PID.TID 0000.0001) %MON dynstat_vvel_del2            =   3.0293012195625E-02
(PID.TID 0000.0001) %MON dynstat_wvel_max             =   2.1398723662766E-03
(PID.TID 0000.0001) %MON dynstat_wvel_min             =  -1.5980502554023E-03
(PID.TID 0000.0001) %MON dynstat_wvel_mean            =   2.8012456617353E-18
(PID.TID 0000.0001) %MON dynstat_wvel_sd              =   7.8257153272496E-04
(PID.TID 0000.0001) %MON dynstat_wvel_del2            =   2.7484005391382E-06
(PID.TID 0000.0001) %MON dynstat_theta_max            =   3.0000000000000E+02
(PID.TID 0000.0001) %MON dynstat_theta_min            =   3.0000000000000E+02
(PID.TID 0000.0001) %MON dynstat_theta_mean           =   3.0000000000000E+02
(PID.TID 0000.0001) %MON dynstat_theta_sd             =   1.1368683772162E-13
(PID.TID 0000.0001) %MON dynstat_theta_del2           =   0.0000000000000E+00
(PID.TID 0000.0001) %MON dynstat_salt_max             =   9.8583482943147E-01
(PID.TID 0000.0001) %MON dynstat_salt_min             =  -2.0876763310989E-02
(PID.TID 0000.0001) %MON dynstat_salt_mean            =   6.6908036077186E-03
(PID.TID 0000.0001) %MON dynstat_salt_sd              =   6.1863848742195E-02
(PID.TID 0000.0001) %MON dynstat_salt_del2            =   1.5430852732858E-04
(PID.TID 0000.0001) %MON trAdv_CFL_u_max              =   3.0149278490146E-01
(PID.TID 0000.0001) %MON trAdv_CFL_v_max              =   3.0149278490146E-01
(PID.TID 0000.0001) %MON trAdv_CFL_w_max              =   9.6461545662119E-06
(PID.TID 0000.0001) %MON advcfl_uvel_max              =   3.0877328314114E-01
(PID.TID 0000.0001) %MON advcfl_vvel_max              =   3.0877328314114E-01
(PID.TID 0000.0001) %MON advcfl_wvel_max              =   1.9258851296489E-05
(PID.TID 0000.0001) %MON advcfl_W_hf_max              =   0.0000000000000E+00
(PID.TID 0000.0001) %MON am_eta_mean                  =  -6.8996619114481E+11
(PID.TID 0000.0001) %MON am_uZo_mean                  =   2.9896993210911E+12
(PID.TID 0000.0001) %MON am_tot_mean                  =   2.2997331299463E+12
(PID.TID 0000.0001) %MON pe_b_mean                    =   8.2920310280766E+02
(PID.TID 0000.0001) %MON ke_max                       =   3.1990459677947E+03
(PID.TID 0000.0001) %MON ke_mean                      =   2.1329625521290E+03
(PID.TID 0000.0001) %MON ke_vol                       =   3.8018800512493E+19
(PID.TID 0000.0001) %MON vort_r_min                   =  -2.9089872645782E-05
(PID.TID 0000.0001) %MON vort_r_max                   =   2.9089872645782E-05
(PID.TID 0000.0001) %MON vort_a_mean                  =  -6.5754556573936E-21
(PID.TID 0000.0001) %MON vort_a_sd                    =   8.3968110654680E-05
(PID.TID 0000.0001) %MON vort_p_mean                  =  -6.5754556573936E-21
(PID.TID 0000.0001) %MON vort_p_sd                    =   8.3968110654680E-05
(PID.TID 0000.0001) %MON surfExpan_theta_mean         =   8.2196175520401E-16
(PID.TID 0000.0001) %MON surfExpan_salt_mean          =   1.5607535183021E-06
(PID.TID 0000.0001) %MON surfExpan_Heat_mean          =   7.7755403550389E-14
(PID.TID 0000.0001) %MON En_Budget_T2PE_mean          =   0.0000000000000E+00
(PID.TID 0000.0001) // =======================================================
(PID.TID 0000.0001) // End MONITOR dynamic field statistics
(PID.TID 0000.0001) // =======================================================
 cg2d: Sum(rhs),rhsMax =   1.62066286168895E+03  1.10021680494365E+05
(PID.TID 0000.0001)      cg2d_init_res =   7.90713110429907E-04
(PID.TID 0000.0001)      cg2d_iters(min,last) =      -1      11
(PID.TID 0000.0001)      cg2d_last_res =   9.10230567030004E-13
(PID.TID 0000.0001) // =======================================================
(PID.TID 0000.0001) // Begin MONITOR dynamic field statistics
(PID.TID 0000.0001) // =======================================================
(PID.TID 0000.0001) %MON time_tsnumber                =                    16
(PID.TID 0000.0001) %MON time_secondsf                =   7.2000000000000E+03
(PID.TID 0000.0001) %MON dynstat_eta_max              =  -1.3543475051791E+01
(PID.TID 0000.0001) %MON dynstat_eta_min              =  -2.8751870163596E+04
(PID.TID 0000.0001) %MON dynstat_eta_mean             =  -9.6000080157062E+03
(PID.TID 0000.0001) %MON dynstat_eta_sd               =   8.5834942921429E+03
(PID.TID 0000.0001) %MON dynstat_eta_del2             =   1.4295530237537E+00
(PID.TID 0000.0001) %MON dynstat_uvel_max             =   7.9972704553577E+01
(PID.TID 0000.0001) %MON dynstat_uvel_min             =  -5.5220026426616E+01
(PID.TID 0000.0001) %MON dynstat_uvel_mean            =   2.4386966019160E+01
(PID.TID 0000.0001) %MON dynstat_uvel_sd              =   3.9222074103134E+01
(PID.TID 0000.0001) %MON dynstat_uvel_del2            =   3.0307299815898E-02
(PID.TID 0000.0001) %MON dynstat_vvel_max             =   7.9972704553577E+01
(PID.TID 0000.0001) %MON dynstat_vvel_min             =  -5.5220026426616E+01
(PID.TID 0000.0001) %MON dynstat_vvel_mean            =   2.4386966019160E+01
(PID.TID 0000.0001) %MON dynstat_vvel_sd              =   3.9222074103134E+01
(PID.TID 0000.0001) %MON dynstat_vvel_del2            =   3.0307299815898E-02
(PID.TID 0000.0001) %MON dynstat_wvel_max             =   2.1129323455499E-03
(PID.TID 0000.0001) %MON dynstat_wvel_min             =  -1.5232200628198E-03
(PID.TID 0000.0001) %MON dynstat_wvel_mean            =  -1.5281912952753E-17
(PID.TID 0000.0001) %MON dynstat_wvel_sd              =   7.5716229286945E-04
(PID.TID 0000.0001) %MON dynstat_wvel_del2            =   2.6752214721679E-06
(PID.TID 0000.0001) %MON dynstat_theta_max            =   3.0000000000000E+02
(PID.TID 0000.0001) %MON dynstat_theta_min            =   3.0000000000000E+02
(PID.TID 0000.0001) %MON dynstat_theta_mean           =   3.0000000000000E+02
(PID.TID 0000.0001) %MON dynstat_theta_sd             =   1.1368683772162E-13
(PID.TID 0000.0001) %MON dynstat_theta_del2           =   0.0000000000000E+00
(PID.TID 0000.0001) %MON dynstat_salt_max             =   9.8658387625159E-01
(PID.TID 0000.0001) %MON dynstat_salt_min             =  -2.0945726759043E-02
(PID.TID 0000.0001) %MON dynstat_salt_mean            =   6.6907974818291E-03
(PID.TID 0000.0001) %MON dynstat_salt_sd              =   6.1858966612942E-02
(PID.TID 0000.0001) %MON dynstat_salt_del2            =   1.5421809668177E-04
(PID.TID 0000.0001) %MON trAdv_CFL_u_max              =   3.0169126797397E-01
(PID.TID 0000.0001) %MON trAdv_CFL_v_max              =   3.0169126797397E-01
(PID.TID 0000.0001) %MON trAdv_CFL_w_max              =   9.6294256482447E-06
(PID.TID 0000.0001) %MON advcfl_uvel_max              =   3.0891977827294E-01
(PID.TID 0000.0001) %MON advcfl_vvel_max              =   3.0891977827294E-01
(PID.TID 0000.0001) %MON advcfl_wvel_max              =   1.9016391109949E-05
(PID.TID 0000.0001) %MON advcfl_W_hf_max              =   0.0000000000000E+00
(PID.TID 0000.0001) %MON am_eta_mean                  =  -6.8997892343994E+11
(PID.TID 0000.0001) %MON am_uZo_mean                  =   2.9897148278422E+12
(PID.TID 0000.0001) %MON am_tot_mean                  =   2.2997359044022E+12
(PID.TID 0000.0001) %MON pe_b_mean                    =   8.2918264082437E+02
(PID.TID 0000.0001) %MON ke_max                       =   3.1990457970916E+03
(PID.TID 0000.0001) %MON ke_mean                      =   2.1329851322447E+03
(PID.TID 0000.0001) %MON ke_vol                       =   3.8018800512493E+19
(PID.TID 0000.0001) %MON vort_r_min                   =  -2.9091269940033E-05
(PID.TID 0000.0001) %MON vort_r_max                   =   2.9091269940033E-05
(PID.TID 0000.0001) %MON vort_a_mean                  =  -9.8631834860904E-21
(PID.TID 0000.0001) %MON vort_a_sd                    =   8.3968198788044E-05
(PID.TID 0000.0001) %MON vort_p_mean                  =  -9.8631834860904E-21
(PID.TID 0000.0001) %MON vort_p_sd                    =   8.3968198788044E-05
(PID.TID 0000.0001) %MON surfExpan_theta_mean         =  -4.5105151316820E-15
(PID.TID 0000.0001) %MON surfExpan_salt_mean          =   1.2028828987586E-06
(PID.TID 0000.0001) %MON surfExpan_Heat_mean          =  -3.7697964617878E-13
(PID.TID 0000.0001) %MON En_Budget_T2PE_mean          =   0.0000000000000E+00
(PID.TID 0000.0001) // =======================================================
(PID.TID 0000.0001) // End MONITOR dynamic field statistics
(PID.TID 0000.0001) // =======================================================
 cg2d: Sum(rhs),rhsMax =   1.62071540665446E+03  1.10018113498343E+05
(PID.TID 0000.0001)      cg2d_init_res =   7.66775781368930E-04
(PID.TID 0000.0001)      cg2d_iters(min,last) =      -1      11
(PID.TID 0000.0001)      cg2d_last_res =   9.63547045353814E-13
(PID.TID 0000.0001) // =======================================================
(PID.TID 0000.0001) // Begin MONITOR dynamic field statistics
(PID.TID 0000.0001) // =======================================================
(PID.TID 0000.0001) %MON time_tsnumber                =                    17
(PID.TID 0000.0001) %MON time_secondsf                =   7.6500000000000E+03
(PID.TID 0000.0001) %MON dynstat_eta_max              =  -1.3329547543030E+01
(PID.TID 0000.0001) %MON dynstat_eta_min              =  -2.8750941457661E+04
(PID.TID 0000.0001) %MON dynstat_eta_mean             =  -9.6000080157062E+03
(PID.TID 0000.0001) %MON dynstat_eta_sd               =   8.5832514676895E+03
(PID.TID 0000.0001) %MON dynstat_eta_del2             =   1.4298140332991E+00
(PID.TID 0000.0001) %MON dynstat_uvel_max             =   7.9973359937899E+01
(PID.TID 0000.0001) %MON dynstat_uvel_min             =  -5.5220599505937E+01
(PID.TID 0000.0001) %MON dynstat_uvel_mean            =   2.4387023967241E+01
(PID.TID 0000.0001) %MON dynstat_uvel_sd              =   3.9222332803127E+01
(PID.TID 0000.0001) %MON dynstat_uvel_del2            =   3.0318928502107E-02
(PID.TID 0000.0001) %MON dynstat_vvel_max             =   7.9973359937899E+01
(PID.TID 0000.0001) %MON dynstat_vvel_min             =  -5.5220599505937E+01
(PID.TID 0000.0001) %MON dynstat_vvel_mean            =   2.4387023967241E+01
(PID.TID 0000.0001) %MON dynstat_vvel_sd              =   3.9222332803127E+01
(PID.TID 0000.0001) %MON dynstat_vvel_del2            =   3.0318928502107E-02
(PID.TID 0000.0001) %MON dynstat_wvel_max             =   2.0637909695605E-03
(PID.TID 0000.0001) %MON dynstat_wvel_min             =  -1.4143102663437E-03
(PID.TID 0000.0001) %MON dynstat_wvel_mean            =  -7.3647773266279E-18
(PID.TID 0000.0001) %MON dynstat_wvel_sd              =   7.2908203590366E-04
(PID.TID 0000.0001) %MON dynstat_wvel_del2            =   2.5869049257411E-06
(PID.TID 0000.0001) %MON dynstat_theta_max            =   3.0000000000000E+02
(PID.TID 0000.0001) %MON dynstat_theta_min            =   3.0000000000000E+02
(PID.TID 0000.0001) %MON dynstat_theta_mean           =   3.0000000000000E+02
(PID.TID 0000.0001) %MON dynstat_theta_sd             =   1.1368683772162E-13
(PID.TID 0000.0001) %MON dynstat_theta_del2           =   0.0000000000000E+00
(PID.TID 0000.0001) %MON dynstat_salt_max             =   9.8628709570183E-01
(PID.TID 0000.0001) %MON dynstat_salt_min             =  -2.0611881559644E-02
(PID.TID 0000.0001) %MON dynstat_salt_mean            =   6.6907930351067E-03
(PID.TID 0000.0001) %MON dynstat_salt_sd              =   6.1854094854525E-02
(PID.TID 0000.0001) %MON dynstat_salt_del2            =   1.5412389001725E-04
(PID.TID 0000.0001) %MON trAdv_CFL_u_max              =   3.0190642974586E-01
(PID.TID 0000.0001) %MON trAdv_CFL_v_max              =   3.0190642974586E-01
(PID.TID 0000.0001) %MON trAdv_CFL_w_max              =   9.5081955549746E-06
(PID.TID 0000.0001) %MON advcfl_uvel_max              =   3.0904506195571E-01
(PID.TID 0000.0001) %MON advcfl_vvel_max              =   3.0904506195571E-01
(PID.TID 0000.0001) %MON advcfl_wvel_max              =   1.8574118726045E-05
(PID.TID 0000.0001) %MON advcfl_W_hf_max              =   0.0000000000000E+00
(PID.TID 0000.0001) %MON am_eta_mean                  =  -6.8999189249538E+11
(PID.TID 0000.0001) %MON am_uZo_mean                  =   2.9897307424515E+12
(PID.TID 0000.0001) %MON am_tot_mean                  =   2.2997388499561E+12
(PID.TID 0000.0001) %MON pe_b_mean                    =   8.2916179829608E+02
(PID.TID 0000.0001) %MON ke_max                       =   3.1990545848608E+03
(PID.TID 0000.0001) %MON ke_mean                      =   2.1330082057870E+03
(PID.TID 0000.0001) %MON ke_vol                       =   3.8018800512493E+19
(PID.TID 0000.0001) %MON vort_r_min                   =  -2.9092640530032E-05
(PID.TID 0000.0001) %MON vort_r_max                   =   2.9092640530032E-05
(PID.TID 0000.0001) %MON vort_a_mean                  =   6.5754556573936E-21
(PID.TID 0000.0001) %MON vort_a_sd                    =   8.3968288820482E-05
(PID.TID 0000.0001) %MON vort_p_mean                  =   6.5754556573936E-21
(PID.TID 0000.0001) %MON vort_p_sd                    =   8.3968288820482E-05
(PID.TID 0000.0001) %MON surfExpan_theta_mean         =  -2.1884731732307E-15
(PID.TID 0000.0001) %MON surfExpan_salt_mean          =   8.3691762263340E-07
(PID.TID 0000.0001) %MON surfExpan_Heat_mean          =  -1.8714921268335E-13
(PID.TID 0000.0001) %MON En_Budget_T2PE_mean          =   0.0000000000000E+00
(PID.TID 0000.0001) // =======================================================
(PID.TID 0000.0001) // End MONITOR dynamic field statistics
(PID.TID 0000.0001) // =======================================================
 Compute Stats, Diag. #     23  ETAN      vol(   0 ): 3.802E+14  Parms: SM      M1      
 Compute Stats, Diag. #     37  UE_VEL_C  vol(   0 ): 3.802E+19  Parms: UMR     MR      
 Compute Stats, Diag. #     38  VN_VEL_C  vol(   0 ): 3.802E+19  Parms: VMR     MR      
 Compute Stats, Diag. #    148  momKE     vol(   0 ): 3.802E+19  Parms: SMR     MR      
 Compute Stats, Diag. #    150  momVort3  vol(   0 ): 3.985E+19  Parms: SZR     MR      
 Compute Stats, Diag. #     27  SALT      vol(   0 ): 3.802E+19  Parms: SMR     MR      
 Compute Stats, Diag. #     33  SALTSQ    vol(   0 ): 3.802E+19  Parms: SMRP    MR      
 cg2d: Sum(rhs),rhsMax =   1.62076615576195E+03  1.10014668633056E+05
(PID.TID 0000.0001)      cg2d_init_res =   7.39585473576626E-04
(PID.TID 0000.0001)      cg2d_iters(min,last) =      -1      11
(PID.TID 0000.0001)      cg2d_last_res =   9.60701448430719E-13
(PID.TID 0000.0001) // =======================================================
(PID.TID 0000.0001) // Begin MONITOR dynamic field statistics
(PID.TID 0000.0001) // =======================================================
(PID.TID 0000.0001) %MON time_tsnumber                =                    18
(PID.TID 0000.0001) %MON time_secondsf                =   8.1000000000000E+03
(PID.TID 0000.0001) %MON dynstat_eta_max              =  -1.3194124729943E+01
(PID.TID 0000.0001) %MON dynstat_eta_min              =  -2.8750044186908E+04
(PID.TID 0000.0001) %MON dynstat_eta_mean             =  -9.6000080157061E+03
(PID.TID 0000.0001) %MON dynstat_eta_sd               =   8.5830057246808E+03
(PID.TID 0000.0001) %MON dynstat_eta_del2             =   1.4300728846664E+00
(PID.TID 0000.0001) %MON dynstat_uvel_max             =   7.9974077237373E+01
(PID.TID 0000.0001) %MON dynstat_uvel_min             =  -5.5221100574534E+01
(PID.TID 0000.0001) %MON dynstat_uvel_mean            =   2.4387088061335E+01
(PID.TID 0000.0001) %MON dynstat_uvel_sd              =   3.9222591993789E+01
(PID.TID 0000.0001) %MON dynstat_uvel_del2            =   3.0327871148332E-02
(PID.TID 0000.0001) %MON dynstat_vvel_max             =   7.9974077237373E+01
(PID.TID 0000.0001) %MON dynstat_vvel_min             =  -5.5221100574534E+01
(PID.TID 0000.0001) %MON dynstat_vvel_mean            =   2.4387088061335E+01
(PID.TID 0000.0001) %MON dynstat_vvel_sd              =   3.9222591993789E+01
(PID.TID 0000.0001) %MON dynstat_vvel_del2            =   3.0327871148332E-02
(PID.TID 0000.0001) %MON dynstat_wvel_max             =   1.9939350069219E-03
(PID.TID 0000.0001) %MON dynstat_wvel_min             =  -1.2705912556825E-03
(PID.TID 0000.0001) %MON dynstat_wvel_mean            =   6.6809051462982E-18
(PID.TID 0000.0001) %MON dynstat_wvel_sd              =   6.9981653787400E-04
(PID.TID 0000.0001) %MON dynstat_wvel_del2            =   2.4797830440278E-06
(PID.TID 0000.0001) %MON dynstat_theta_max            =   3.0000000000000E+02
(PID.TID 0000.0001) %MON dynstat_theta_min            =   3.0000000000000E+02
(PID.TID 0000.0001) %MON dynstat_theta_mean           =   3.0000000000000E+02
(PID.TID 0000.0001) %MON dynstat_theta_sd             =   1.1368683772162E-13
(PID.TID 0000.0001) %MON dynstat_theta_del2           =   0.0000000000000E+00
(PID.TID 0000.0001) %MON dynstat_salt_max             =   9.8494531902125E-01
(PID.TID 0000.0001) %MON dynstat_salt_min             =  -2.1667028613328E-02
(PID.TID 0000.0001) %MON dynstat_salt_mean            =   6.6907902570837E-03
(PID.TID 0000.0001) %MON dynstat_salt_sd              =   6.1849233428474E-02
(PID.TID 0000.0001) %MON dynstat_salt_del2            =   1.5402590916016E-04
(PID.TID 0000.0001) %MON trAdv_CFL_u_max              =   3.0213170871025E-01
(PID.TID 0000.0001) %MON trAdv_CFL_v_max              =   3.0213170871025E-01
(PID.TID 0000.0001) %MON trAdv_CFL_w_max              =   9.2870593630223E-06
(PID.TID 0000.0001) %MON advcfl_uvel_max              =   3.0914734118895E-01
(PID.TID 0000.0001) %MON advcfl_vvel_max              =   3.0914734118895E-01
(PID.TID 0000.0001) %MON advcfl_wvel_max              =   1.7945415062298E-05
(PID.TID 0000.0001) %MON advcfl_W_hf_max              =   0.0000000000000E+00
(PID.TID 0000.0001) %MON am_eta_mean                  =  -6.9000501693583E+11
(PID.TID 0000.0001) %MON am_uZo_mean                  =   2.9897469632423E+12
(PID.TID 0000.0001) %MON am_tot_mean                  =   2.2997419463064E+12
(PID.TID 0000.0001) %MON pe_b_mean                    =   8.2914070585763E+02
(PID.TID 0000.0001) %MON ke_max                       =   3.1990675510435E+03
(PID.TID 0000.0001) %MON ke_mean                      =   2.1330316261610E+03
(PID.TID 0000.0001) %MON ke_vol                       =   3.8018800512493E+19
(PID.TID 0000.0001) %MON vort_r_min                   =  -2.9093970302977E-05
(PID.TID 0000.0001) %MON vort_r_max                   =   2.9093970302977E-05
(PID.TID 0000.0001) %MON vort_a_mean                  =  -3.2877278286968E-21
(PID.TID 0000.0001) %MON vort_a_sd                    =   8.3968380179641E-05
(PID.TID 0000.0001) %MON vort_p_mean                  =  -3.2877278286968E-21
(PID.TID 0000.0001) %MON vort_p_sd                    =   8.3968380179641E-05
(PID.TID 0000.0001) %MON surfExpan_theta_mean         =   1.9470219076395E-15
(PID.TID 0000.0001) %MON surfExpan_salt_mean          =   4.8019985669272E-07
(PID.TID 0000.0001) %MON surfExpan_Heat_mean          =   1.6677193451152E-13
(PID.TID 0000.0001) %MON En_Budget_T2PE_mean          =   0.0000000000000E+00
(PID.TID 0000.0001) // =======================================================
(PID.TID 0000.0001) // End MONITOR dynamic field statistics
(PID.TID 0000.0001) // =======================================================
 cg2d: Sum(rhs),rhsMax =   1.62081462436725E+03  1.10011378770371E+05
(PID.TID 0000.0001)      cg2d_init_res =   7.11048064184108E-04
(PID.TID 0000.0001)      cg2d_iters(min,last) =      -1      11
(PID.TID 0000.0001)      cg2d_last_res =   9.22249054404586E-13
(PID.TID 0000.0001) // =======================================================
(PID.TID 0000.0001) // Begin MONITOR dynamic field statistics
(PID.TID 0000.0001) // =======================================================
(PID.TID 0000.0001) %MON time_tsnumber                =                    19
(PID.TID 0000.0001) %MON time_secondsf                =   8.5500000000000E+03
(PID.TID 0000.0001) %MON dynstat_eta_max              =  -1.3166199473772E+01
(PID.TID 0000.0001) %MON dynstat_eta_min              =  -2.8749186774534E+04
(PID.TID 0000.0001) %MON dynstat_eta_mean             =  -9.6000080157060E+03
(PID.TID 0000.0001) %MON dynstat_eta_sd               =   8.5827585856868E+03
(PID.TID 0000.0001) %MON dynstat_eta_del2             =   1.4303259944615E+00
(PID.TID 0000.0001) %MON dynstat_uvel_max             =   7.9974774464130E+01
(PID.TID 0000.0001) %MON dynstat_uvel_min             =  -5.5221638272412E+01
(PID.TID 0000.0001) %MON dynstat_uvel_mean            =   2.4387158060229E+01
(PID.TID 0000.0001) %MON dynstat_uvel_sd              =   3.9222849942347E+01
(PID.TID 0000.0001) %MON dynstat_uvel_del2            =   3.0334183442010E-02
(PID.TID 0000.0001) %MON dynstat_vvel_max             =   7.9974774464131E+01
(PID.TID 0000.0001) %MON dynstat_vvel_min             =  -5.5221638272412E+01
(PID.TID 0000.0001) %MON dynstat_vvel_mean            =   2.4387158060229E+01
(PID.TID 0000.0001) %MON dynstat_vvel_sd              =   3.9222849942347E+01
(PID.TID 0000.0001) %MON dynstat_vvel_del2            =   3.0334183442010E-02
(PID.TID 0000.0001) %MON dynstat_wvel_max             =   1.9053608318684E-03
(PID.TID 0000.0001) %MON dynstat_wvel_min             =  -1.1250753076585E-03
(PID.TID 0000.0001) %MON dynstat_wvel_mean            =  -8.1933147758736E-18
(PID.TID 0000.0001) %MON dynstat_wvel_sd              =   6.7137408886578E-04
(PID.TID 0000.0001) %MON dynstat_wvel_del2            =   2.3548348712197E-06
(PID.TID 0000.0001) %MON dynstat_theta_max            =   3.0000000000000E+02
(PID.TID 0000.0001) %MON dynstat_theta_min            =   3.0000000000000E+02
(PID.TID 0000.0001) %MON dynstat_theta_mean           =   3.0000000000000E+02
(PID.TID 0000.0001) %MON dynstat_theta_sd             =   1.1368683772162E-13
(PID.TID 0000.0001) %MON dynstat_theta_del2           =   0.0000000000000E+00
(PID.TID 0000.0001) %MON dynstat_salt_max             =   9.8256158913434E-01
(PID.TID 0000.0001) %MON dynstat_salt_min             =  -2.2664038008046E-02
(PID.TID 0000.0001) %MON dynstat_salt_mean            =   6.6907890593223E-03
(PID.TID 0000.0001) %MON dynstat_salt_sd              =   6.1844381840655E-02
(PID.TID 0000.0001) %MON dynstat_salt_del2            =   1.5392415596579E-04
(PID.TID 0000.0001) %MON trAdv_CFL_u_max              =   3.0236015410093E-01
(PID.TID 0000.0001) %MON trAdv_CFL_v_max              =   3.0236015410093E-01
(PID.TID 0000.0001) %MON trAdv_CFL_w_max              =   8.9727075311488E-06
(PID.TID 0000.0001) %MON advcfl_uvel_max              =   3.0922559796109E-01
(PID.TID 0000.0001) %MON advcfl_vvel_max              =   3.0922559796109E-01
(PID.TID 0000.0001) %MON advcfl_wvel_max              =   1.7148247486816E-05
(PID.TID 0000.0001) %MON advcfl_W_hf_max              =   0.0000000000000E+00
(PID.TID 0000.0001) %MON am_eta_mean                  =  -6.9001821535279E+11
(PID.TID 0000.0001) %MON am_uZo_mean                  =   2.9897633873679E+12
(PID.TID 0000.0001) %MON am_tot_mean                  =   2.2997451720152E+12
(PID.TID 0000.0001) %MON pe_b_mean                    =   8.2911949420901E+02
(PID.TID 0000.0001) %MON ke_max                       =   3.1990777819978E+03
(PID.TID 0000.0001) %MON ke_mean                      =   2.1330552458398E+03
(PID.TID 0000.0001) %MON ke_vol                       =   3.8018800512493E+19
(PID.TID 0000.0001) %MON vort_r_min                   =  -2.9095246300080E-05
(PID.TID 0000.0001) %MON vort_r_max                   =   2.9095246300080E-05
(PID.TID 0000.0001) %MON vort_a_mean                  =  -1.9726366972181E-20
(PID.TID 0000.0001) %MON vort_a_sd                    =   8.3968472291428E-05
(PID.TID 0000.0001) %MON vort_p_mean                  =  -1.9726366972181E-20
(PID.TID 0000.0001) %MON vort_p_sd                    =   8.3968472291428E-05
(PID.TID 0000.0001) %MON surfExpan_theta_mean         =  -2.4093753949417E-15
(PID.TID 0000.0001) %MON surfExpan_salt_mean          =   1.4951019603327E-07
(PID.TID 0000.0001) %MON surfExpan_Heat_mean          =  -2.0591775836793E-13
(PID.TID 0000.0001) %MON En_Budget_T2PE_mean          =   0.0000000000000E+00
(PID.TID 0000.0001) // =======================================================
(PID.TID 0000.0001) // End MONITOR dynamic field statistics
(PID.TID 0000.0001) // =======================================================
 cg2d: Sum(rhs),rhsMax =   1.62086039090978E+03  1.10008272493930E+05
(PID.TID 0000.0001)      cg2d_init_res =   6.83661028654951E-04
(PID.TID 0000.0001)      cg2d_iters(min,last) =      -1      11
(PID.TID 0000.0001)      cg2d_last_res =   9.17060533417735E-13
(PID.TID 0000.0001) // =======================================================
(PID.TID 0000.0001) // Begin MONITOR dynamic field statistics
(PID.TID 0000.0001) // =======================================================
(PID.TID 0000.0001) %MON time_tsnumber                =                    20
(PID.TID 0000.0001) %MON time_secondsf                =   9.0000000000000E+03
(PID.TID 0000.0001) %MON dynstat_eta_max              =  -1.3270119976938E+01
(PID.TID 0000.0001) %MON dynstat_eta_min              =  -2.8748376511506E+04
(PID.TID 0000.0001) %MON dynstat_eta_mean             =  -9.6000080157060E+03
(PID.TID 0000.0001) %MON dynstat_eta_sd               =   8.5825115641284E+03
(PID.TID 0000.0001) %MON dynstat_eta_del2             =   1.4305695326241E+00
(PID.TID 0000.0001) %MON dynstat_uvel_max             =   7.9975419603281E+01
(PID.TID 0000.0001) %MON dynstat_uvel_min             =  -5.5222331822232E+01
(PID.TID 0000.0001) %MON dynstat_uvel_mean            =   2.4387233615276E+01
(PID.TID 0000.0001) %MON dynstat_uvel_sd              =   3.9223104988292E+01
(PID.TID 0000.0001) %MON dynstat_uvel_del2            =   3.0337996989766E-02
(PID.TID 0000.0001) %MON dynstat_vvel_max             =   7.9975419603281E+01
(PID.TID 0000.0001) %MON dynstat_vvel_min             =  -5.5222331822232E+01
(PID.TID 0000.0001) %MON dynstat_vvel_mean            =   2.4387233615276E+01
(PID.TID 0000.0001) %MON dynstat_vvel_sd              =   3.9223104988292E+01
(PID.TID 0000.0001) %MON dynstat_vvel_del2            =   3.0337996989766E-02
(PID.TID 0000.0001) %MON dynstat_wvel_max             =   1.8005845071963E-03
(PID.TID 0000.0001) %MON dynstat_wvel_min             =  -1.0251932749625E-03
(PID.TID 0000.0001) %MON dynstat_wvel_mean            =  -2.5382179000700E-18
(PID.TID 0000.0001) %MON dynstat_wvel_sd              =   6.4616269364025E-04
(PID.TID 0000.0001) %MON dynstat_wvel_del2            =   2.2186040842746E-06
(PID.TID 0000.0001) %MON dynstat_theta_max            =   3.0000000000000E+02
(PID.TID 0000.0001) %MON dynstat_theta_min            =   3.0000000000000E+02
(PID.TID 0000.0001) %MON dynstat_theta_mean           =   3.0000000000000E+02
(PID.TID 0000.0001) %MON dynstat_theta_sd             =   1.1368683772162E-13
(PID.TID 0000.0001) %MON dynstat_theta_del2           =   0.0000000000000E+00
(PID.TID 0000.0001) %MON dynstat_salt_max             =   9.7914115811622E-01
(PID.TID 0000.0001) %MON dynstat_salt_min             =  -2.3978735325625E-02
(PID.TID 0000.0001) %MON dynstat_salt_mean            =   6.6907892793885E-03
(PID.TID 0000.0001) %MON dynstat_salt_sd              =   6.1839539203784E-02
(PID.TID 0000.0001) %MON dynstat_salt_del2            =   1.5381863270662E-04
(PID.TID 0000.0001) %MON trAdv_CFL_u_max              =   3.0258470448501E-01
(PID.TID 0000.0001) %MON trAdv_CFL_v_max              =   3.0258470448501E-01
(PID.TID 0000.0001) %MON trAdv_CFL_w_max              =   8.5741237434078E-06
(PID.TID 0000.0001) %MON advcfl_uvel_max              =   3.0927961589525E-01
(PID.TID 0000.0001) %MON advcfl_vvel_max              =   3.0927961589525E-01
(PID.TID 0000.0001) %MON advcfl_wvel_max              =   1.6205260564766E-05
(PID.TID 0000.0001) %MON advcfl_W_hf_max              =   0.0000000000000E+00
(PID.TID 0000.0001) %MON am_eta_mean                  =  -6.9003140685042E+11
(PID.TID 0000.0001) %MON am_uZo_mean                  =   2.9897799115799E+12
(PID.TID 0000.0001) %MON am_tot_mean                  =   2.2997485047295E+12
(PID.TID 0000.0001) %MON pe_b_mean                    =   8.2909829325009E+02
(PID.TID 0000.0001) %MON ke_max                       =   3.1990846698492E+03
(PID.TID 0000.0001) %MON ke_mean                      =   2.1330789174452E+03
(PID.TID 0000.0001) %MON ke_vol                       =   3.8018800512493E+19
(PID.TID 0000.0001) %MON vort_r_min                   =  -2.9096457067023E-05
(PID.TID 0000.0001) %MON vort_r_max                   =   2.9096457067023E-05
(PID.TID 0000.0001) %MON vort_a_mean                  =  -3.2877278286968E-21
(PID.TID 0000.0001) %MON vort_a_sd                    =   8.3968564583886E-05
(PID.TID 0000.0001) %MON vort_p_mean                  =  -3.2877278286968E-21
(PID.TID 0000.0001) %MON vort_p_sd                    =   8.3968564583886E-05
(PID.TID 0000.0001) %MON surfExpan_theta_mean         =  -6.2674583834306E-16
(PID.TID 0000.0001) %MON surfExpan_salt_mean          =  -1.3941954791699E-07
(PID.TID 0000.0001) %MON surfExpan_Heat_mean          =  -5.9523102028229E-14
(PID.TID 0000.0001) %MON En_Budget_T2PE_mean          =   0.0000000000000E+00
(PID.TID 0000.0001) // =======================================================
(PID.TID 0000.0001) // End MONITOR dynamic field statistics
(PID.TID 0000.0001) // =======================================================
 cg2d: Sum(rhs),rhsMax =   1.62090311029306E+03  1.10005373193208E+05
(PID.TID 0000.0001)      cg2d_init_res =   6.60147290776638E-04
(PID.TID 0000.0001)      cg2d_iters(min,last) =      -1      11
(PID.TID 0000.0001)      cg2d_last_res =   8.45313690341014E-13
(PID.TID 0000.0001) // =======================================================
(PID.TID 0000.0001) // Begin MONITOR dynamic field statistics
(PID.TID 0000.0001) // =======================================================
(PID.TID 0000.0001) %MON time_tsnumber                =                    21
(PID.TID 0000.0001) %MON time_secondsf                =   9.4500000000000E+03
(PID.TID 0000.0001) %MON dynstat_eta_max              =  -1.3521557568305E+01
(PID.TID 0000.0001) %MON dynstat_eta_min              =  -2.8747619348885E+04
(PID.TID 0000.0001) %MON dynstat_eta_mean             =  -9.6000080157060E+03
(PID.TID 0000.0001) %MON dynstat_eta_sd               =   8.5822661544436E+03
(PID.TID 0000.0001) %MON dynstat_eta_del2             =   1.4307994860307E+00
(PID.TID 0000.0001) %MON dynstat_uvel_max             =   7.9976052462224E+01
(PID.TID 0000.0001) %MON dynstat_uvel_min             =  -5.5222979208722E+01
(PID.TID 0000.0001) %MON dynstat_uvel_mean            =   2.4387314277477E+01
(PID.TID 0000.0001) %MON dynstat_uvel_sd              =   3.9223355552457E+01
(PID.TID 0000.0001) %MON dynstat_uvel_del2            =   3.0339510336744E-02
(PID.TID 0000.0001) %MON dynstat_vvel_max             =   7.9976052462224E+01
(PID.TID 0000.0001) %MON dynstat_vvel_min             =  -5.5222979208722E+01
(PID.TID 0000.0001) %MON dynstat_vvel_mean            =   2.4387314277477E+01
(PID.TID 0000.0001) %MON dynstat_vvel_sd              =   3.9223355552457E+01
(PID.TID 0000.0001) %MON dynstat_vvel_del2            =   3.0339510336744E-02
(PID.TID 0000.0001) %MON dynstat_wvel_max             =   1.6825836022946E-03
(PID.TID 0000.0001) %MON dynstat_wvel_min             =  -1.0000658011064E-03
(PID.TID 0000.0001) %MON dynstat_wvel_mean            =   5.3920691141383E-19
(PID.TID 0000.0001) %MON dynstat_wvel_sd              =   6.2655512462820E-04
(PID.TID 0000.0001) %MON dynstat_wvel_del2            =   2.0839265705605E-06
(PID.TID 0000.0001) %MON dynstat_theta_max            =   3.0000000000000E+02
(PID.TID 0000.0001) %MON dynstat_theta_min            =   3.0000000000000E+02
(PID.TID 0000.0001) %MON dynstat_theta_mean           =   3.0000000000000E+02
(PID.TID 0000.0001) %MON dynstat_theta_sd             =   1.1368683772162E-13
(PID.TID 0000.0001) %MON dynstat_theta_del2           =   0.0000000000000E+00
(PID.TID 0000.0001) %MON dynstat_salt_max             =   9.7469147976970E-01
(PID.TID 0000.0001) %MON dynstat_salt_min             =  -2.5917724463232E-02
(PID.TID 0000.0001) %MON dynstat_salt_mean            =   6.6907906868868E-03
(PID.TID 0000.0001) %MON dynstat_salt_sd              =   6.1834704306710E-02
(PID.TID 0000.0001) %MON dynstat_salt_del2            =   1.5370934243644E-04
(PID.TID 0000.0001) %MON trAdv_CFL_u_max              =   3.0279847577992E-01
(PID.TID 0000.0001) %MON trAdv_CFL_v_max              =   3.0279847577992E-01
(PID.TID 0000.0001) %MON trAdv_CFL_w_max              =   8.1026302823832E-06
(PID.TID 0000.0001) %MON advcfl_uvel_max              =   3.0930997614072E-01
(PID.TID 0000.0001) %MON advcfl_vvel_max              =   3.0930997614072E-01
(PID.TID 0000.0001) %MON advcfl_wvel_max              =   1.5143252420651E-05
(PID.TID 0000.0001) %MON advcfl_W_hf_max              =   0.0000000000000E+00
(PID.TID 0000.0001) %MON am_eta_mean                  =  -6.9004451157764E+11
(PID.TID 0000.0001) %MON am_uZo_mean                  =   2.9897964329975E+12
(PID.TID 0000.0001) %MON am_tot_mean                  =   2.2997519214199E+12
(PID.TID 0000.0001) %MON pe_b_mean                    =   8.2907723123663E+02
(PID.TID 0000.0001) %MON ke_max                       =   3.1990969373998E+03
(PID.TID 0000.0001) %MON ke_mean                      =   2.1331024948224E+03
(PID.TID 0000.0001) %MON ke_vol                       =   3.8018800512493E+19
(PID.TID 0000.0001) %MON vort_r_min                   =  -2.9097592997751E-05
(PID.TID 0000.0001) %MON vort_r_max                   =   2.9097592997751E-05
(PID.TID 0000.0001) %MON vort_a_mean                  =  -3.2877278286968E-21
(PID.TID 0000.0001) %MON vort_a_sd                    =   8.3968656490977E-05
(PID.TID 0000.0001) %MON vort_p_mean                  =  -3.2877278286968E-21
(PID.TID 0000.0001) %MON vort_p_sd                    =   8.3968656490977E-05
(PID.TID 0000.0001) %MON surfExpan_theta_mean         =   1.8494139492090E-16
(PID.TID 0000.0001) %MON surfExpan_salt_mean          =  -3.7243031773627E-07
(PID.TID 0000.0001) %MON surfExpan_Heat_mean          =   1.1797371573163E-14
(PID.TID 0000.0001) %MON En_Budget_T2PE_mean          =   0.0000000000000E+00
(PID.TID 0000.0001) // =======================================================
(PID.TID 0000.0001) // End MONITOR dynamic field statistics
(PID.TID 0000.0001) // =======================================================
 cg2d: Sum(rhs),rhsMax =   1.62094252407626E+03  1.10002698374166E+05
(PID.TID 0000.0001)      cg2d_init_res =   6.42733899366867E-04
(PID.TID 0000.0001)      cg2d_iters(min,last) =      -1      11
(PID.TID 0000.0001)      cg2d_last_res =   8.09673697957866E-13
(PID.TID 0000.0001) // =======================================================
(PID.TID 0000.0001) // Begin MONITOR dynamic field statistics
(PID.TID 0000.0001) // =======================================================
(PID.TID 0000.0001) %MON time_tsnumber                =                    22
(PID.TID 0000.0001) %MON time_secondsf                =   9.9000000000000E+03
(PID.TID 0000.0001) %MON dynstat_eta_max              =  -1.3924511369734E+01
(PID.TID 0000.0001) %MON dynstat_eta_min              =  -2.8746919762802E+04
(PID.TID 0000.0001) %MON dynstat_eta_mean             =  -9.6000080157060E+03
(PID.TID 0000.0001) %MON dynstat_eta_sd               =   8.5820238225437E+03
(PID.TID 0000.0001) %MON dynstat_eta_del2             =   1.4310117591541E+00
(PID.TID 0000.0001) %MON dynstat_uvel_max             =   7.9976611368610E+01
(PID.TID 0000.0001) %MON dynstat_uvel_min             =  -5.5223581353515E+01
(PID.TID 0000.0001) %MON dynstat_uvel_mean            =   2.4387399506675E+01
(PID.TID 0000.0001) %MON dynstat_uvel_sd              =   3.9223600144428E+01
(PID.TID 0000.0001) %MON dynstat_uvel_del2            =   3.0338978170180E-02
(PID.TID 0000.0001) %MON dynstat_vvel_max             =   7.9976611368610E+01
(PID.TID 0000.0001) %MON dynstat_vvel_min             =  -5.5223581353515E+01
(PID.TID 0000.0001) %MON dynstat_vvel_mean            =   2.4387399506675E+01
(PID.TID 0000.0001) %MON dynstat_vvel_sd              =   3.9223600144428E+01
(PID.TID 0000.0001) %MON dynstat_vvel_del2            =   3.0338978170180E-02
(PID.TID 0000.0001) %MON dynstat_wvel_max             =   1.5546357394678E-03
(PID.TID 0000.0001) %MON dynstat_wvel_min             =  -1.0331636044740E-03
(PID.TID 0000.0001) %MON dynstat_wvel_mean            =  -2.9761591232427E-17
(PID.TID 0000.0001) %MON dynstat_wvel_sd              =   6.1418573842852E-04
(PID.TID 0000.0001) %MON dynstat_wvel_del2            =   1.9685142940286E-06
(PID.TID 0000.0001) %MON dynstat_theta_max            =   3.0000000000000E+02
(PID.TID 0000.0001) %MON dynstat_theta_min            =   3.0000000000000E+02
(PID.TID 0000.0001) %MON dynstat_theta_mean           =   3.0000000000000E+02
(PID.TID 0000.0001) %MON dynstat_theta_sd             =   1.1368683772162E-13
(PID.TID 0000.0001) %MON dynstat_theta_del2           =   0.0000000000000E+00
(PID.TID 0000.0001) %MON dynstat_salt_max             =   9.7721120781118E-01
(PID.TID 0000.0001) %MON dynstat_salt_min             =  -2.7300207149246E-02
(PID.TID 0000.0001) %MON dynstat_salt_mean            =   6.6907929919523E-03
(PID.TID 0000.0001) %MON dynstat_salt_sd              =   6.1829875678534E-02
(PID.TID 0000.0001) %MON dynstat_salt_del2            =   1.5359628919488E-04
(PID.TID 0000.0001) %MON trAdv_CFL_u_max              =   3.0299504501165E-01
(PID.TID 0000.0001) %MON trAdv_CFL_v_max              =   3.0299504501165E-01
(PID.TID 0000.0001) %MON trAdv_CFL_w_max              =   7.5716262103256E-06
(PID.TID 0000.0001) %MON advcfl_uvel_max              =   3.0931802158260E-01
(PID.TID 0000.0001) %MON advcfl_vvel_max              =   3.0931802158260E-01
(PID.TID 0000.0001) %MON advcfl_wvel_max              =   1.3991721655211E-05
(PID.TID 0000.0001) %MON advcfl_W_hf_max              =   0.0000000000000E+00
(PID.TID 0000.0001) %MON am_eta_mean                  =  -6.9005745124223E+11
(PID.TID 0000.0001) %MON am_uZo_mean                  =   2.9898128498703E+12
(PID.TID 0000.0001) %MON am_tot_mean                  =   2.2997553986280E+12
(PID.TID 0000.0001) %MON pe_b_mean                    =   8.2905643396163E+02
(PID.TID 0000.0001) %MON ke_max                       =   3.1991069268201E+03
(PID.TID 0000.0001) %MON ke_mean                      =   2.1331258340969E+03
(PID.TID 0000.0001) %MON ke_vol                       =   3.8018800512493E+19
(PID.TID 0000.0001) %MON vort_r_min                   =  -2.9098646613457E-05
(PID.TID 0000.0001) %MON vort_r_max                   =   2.9098646613457E-05
(PID.TID 0000.0001) %MON vort_a_mean                  =  -6.5754556573936E-21
(PID.TID 0000.0001) %MON vort_a_sd                    =   8.3968747456245E-05
(PID.TID 0000.0001) %MON vort_p_mean                  =  -6.5754556573936E-21
(PID.TID 0000.0001) %MON vort_p_sd                    =   8.3968747456245E-05
(PID.TID 0000.0001) %MON surfExpan_theta_mean         =  -9.0107557414239E-15
(PID.TID 0000.0001) %MON surfExpan_salt_mean          =  -5.3751893455389E-07
(PID.TID 0000.0001) %MON surfExpan_Heat_mean          =  -7.5717675733207E-13
(PID.TID 0000.0001) %MON En_Budget_T2PE_mean          =   0.0000000000000E+00
(PID.TID 0000.0001) // =======================================================
(PID.TID 0000.0001) // End MONITOR dynamic field statistics
(PID.TID 0000.0001) // =======================================================
 cg2d: Sum(rhs),rhsMax =   1.62097846398651E+03  1.10000259423128E+05
(PID.TID 0000.0001)      cg2d_init_res =   6.32339318930012E-04
(PID.TID 0000.0001)      cg2d_iters(min,last) =      -1      11
(PID.TID 0000.0001)      cg2d_last_res =   7.76092497763265E-13
(PID.TID 0000.0001) // =======================================================
(PID.TID 0000.0001) // Begin MONITOR dynamic field statistics
(PID.TID 0000.0001) // =======================================================
(PID.TID 0000.0001) %MON time_tsnumber                =                    23
(PID.TID 0000.0001) %MON time_secondsf                =   1.0350000000000E+04
(PID.TID 0000.0001) %MON dynstat_eta_max              =  -1.4441733443538E+01
(PID.TID 0000.0001) %MON dynstat_eta_min              =  -2.8746280748705E+04
(PID.TID 0000.0001) %MON dynstat_eta_mean             =  -9.6000080157060E+03
(PID.TID 0000.0001) %MON dynstat_eta_sd               =   8.5817859966034E+03
(PID.TID 0000.0001) %MON dynstat_eta_del2             =   1.4312023042344E+00
(PID.TID 0000.0001) %MON dynstat_uvel_max             =   7.9977041972695E+01
(PID.TID 0000.0001) %MON dynstat_uvel_min             =  -5.5224141064207E+01
(PID.TID 0000.0001) %MON dynstat_uvel_mean            =   2.4387488682480E+01
(PID.TID 0000.0001) %MON dynstat_uvel_sd              =   3.9223837368409E+01
(PID.TID 0000.0001) %MON dynstat_uvel_del2            =   3.0336699056712E-02
(PID.TID 0000.0001) %MON dynstat_vvel_max             =   7.9977041972695E+01
(PID.TID 0000.0001) %MON dynstat_vvel_min             =  -5.5224141064207E+01
(PID.TID 0000.0001) %MON dynstat_vvel_mean            =   2.4387488682480E+01
(PID.TID 0000.0001) %MON dynstat_vvel_sd              =   3.9223837368409E+01
(PID.TID 0000.0001) %MON dynstat_vvel_del2            =   3.0336699056712E-02
(PID.TID 0000.0001) %MON dynstat_wvel_max             =   1.4203913336159E-03
(PID.TID 0000.0001) %MON dynstat_wvel_min             =  -1.2398409546860E-03
(PID.TID 0000.0001) %MON dynstat_wvel_mean            =   6.8387218032974E-18
(PID.TID 0000.0001) %MON dynstat_wvel_sd              =   6.0929312502064E-04
(PID.TID 0000.0001) %MON dynstat_wvel_del2            =   1.8892598886765E-06
(PID.TID 0000.0001) %MON dynstat_theta_max            =   3.0000000000000E+02
(PID.TID 0000.0001) %MON dynstat_theta_min            =   3.0000000000000E+02
(PID.TID 0000.0001) %MON dynstat_theta_mean           =   3.0000000000000E+02
(PID.TID 0000.0001) %MON dynstat_theta_sd             =   1.1368683772162E-13
(PID.TID 0000.0001) %MON dynstat_theta_del2           =   0.0000000000000E+00
(PID.TID 0000.0001) %MON dynstat_salt_max             =   9.8187304806344E-01
(PID.TID 0000.0001) %MON dynstat_salt_min             =  -2.8457082007358E-02
(PID.TID 0000.0001) %MON dynstat_salt_mean            =   6.6907958565268E-03
(PID.TID 0000.0001) %MON dynstat_salt_sd              =   6.1825051644300E-02
(PID.TID 0000.0001) %MON dynstat_salt_del2            =   1.5347947799761E-04
(PID.TID 0000.0001) %MON trAdv_CFL_u_max              =   3.0316871599660E-01
(PID.TID 0000.0001) %MON trAdv_CFL_v_max              =   3.0316871599660E-01
(PID.TID 0000.0001) %MON trAdv_CFL_w_max              =   6.9958608276053E-06
(PID.TID 0000.0001) %MON advcfl_uvel_max              =   3.0930579001963E-01
(PID.TID 0000.0001) %MON advcfl_vvel_max              =   3.0930579001963E-01
(PID.TID 0000.0001) %MON advcfl_wvel_max              =   1.2783522002543E-05
(PID.TID 0000.0001) %MON advcfl_W_hf_max              =   0.0000000000000E+00
(PID.TID 0000.0001) %MON am_eta_mean                  =  -6.9007014960349E+11
(PID.TID 0000.0001) %MON am_uZo_mean                  =   2.9898290623218E+12
(PID.TID 0000.0001) %MON am_tot_mean                  =   2.2997589127183E+12
(PID.TID 0000.0001) %MON pe_b_mean                    =   8.2903602396558E+02
(PID.TID 0000.0001) %MON ke_max                       =   3.1991107832352E+03
(PID.TID 0000.0001) %MON ke_mean                      =   2.1331487947025E+03
(PID.TID 0000.0001) %MON ke_vol                       =   3.8018800512493E+19
(PID.TID 0000.0001) %MON vort_r_min                   =  -2.9099612695534E-05
(PID.TID 0000.0001) %MON vort_r_max                   =   2.9099612695534E-05
(PID.TID 0000.0001) %MON vort_a_mean                  =   1.3150911314787E-20
(PID.TID 0000.0001) %MON vort_a_sd                    =   8.3968836936347E-05
(PID.TID 0000.0001) %MON vort_p_mean                  =   1.3150911314787E-20
(PID.TID 0000.0001) %MON vort_p_sd                    =   8.3968836936347E-05
(PID.TID 0000.0001) %MON surfExpan_theta_mean         =   2.1114142586803E-15
(PID.TID 0000.0001) %MON surfExpan_salt_mean          =  -6.2543887867333E-07
(PID.TID 0000.0001) %MON surfExpan_Heat_mean          =   1.6409071369944E-13
(PID.TID 0000.0001) %MON En_Budget_T2PE_mean          =   0.0000000000000E+00
(PID.TID 0000.0001) // =======================================================
(PID.TID 0000.0001) // End MONITOR dynamic field statistics
(PID.TID 0000.0001) // =======================================================
 cg2d: Sum(rhs),rhsMax =   1.62101084500797E+03  1.09998062077705E+05
(PID.TID 0000.0001)      cg2d_init_res =   6.28167051775584E-04
(PID.TID 0000.0001)      cg2d_iters(min,last) =      -1      11
(PID.TID 0000.0001)      cg2d_last_res =   7.56900362654865E-13
(PID.TID 0000.0001) // =======================================================
(PID.TID 0000.0001) // Begin MONITOR dynamic field statistics
(PID.TID 0000.0001) // =======================================================
(PID.TID 0000.0001) %MON time_tsnumber                =                    24
(PID.TID 0000.0001) %MON time_secondsf                =   1.0800000000000E+04
(PID.TID 0000.0001) %MON dynstat_eta_max              =  -1.5076770121830E+01
(PID.TID 0000.0001) %MON dynstat_eta_min              =  -2.8745703999027E+04
(PID.TID 0000.0001) %MON dynstat_eta_mean             =  -9.6000080157060E+03
(PID.TID 0000.0001) %MON dynstat_eta_sd               =   8.5815540582390E+03
(PID.TID 0000.0001) %MON dynstat_eta_del2             =   1.4313672712743E+00
(PID.TID 0000.0001) %MON dynstat_uvel_max             =   7.9977329810868E+01
(PID.TID 0000.0001) %MON dynstat_uvel_min             =  -5.5224663421430E+01
(PID.TID 0000.0001) %MON dynstat_uvel_mean            =   2.4387581116468E+01
(PID.TID 0000.0001) %MON dynstat_uvel_sd              =   3.9224065927661E+01
(PID.TID 0000.0001) %MON dynstat_uvel_del2            =   3.0333002132222E-02
(PID.TID 0000.0001) %MON dynstat_vvel_max             =   7.9977329810868E+01
(PID.TID 0000.0001) %MON dynstat_vvel_min             =  -5.5224663421430E+01
(PID.TID 0000.0001) %MON dynstat_vvel_mean            =   2.4387581116468E+01
(PID.TID 0000.0001) %MON dynstat_vvel_sd              =   3.9224065927661E+01
(PID.TID 0000.0001) %MON dynstat_vvel_del2            =   3.0333002132222E-02
(PID.TID 0000.0001) %MON dynstat_wvel_max             =   1.2937738707600E-03
(PID.TID 0000.0001) %MON dynstat_wvel_min             =  -1.5099395220268E-03
(PID.TID 0000.0001) %MON dynstat_wvel_mean            =   1.0639472959361E-17
(PID.TID 0000.0001) %MON dynstat_wvel_sd              =   6.1054333314944E-04
(PID.TID 0000.0001) %MON dynstat_wvel_del2            =   1.8536093636116E-06
(PID.TID 0000.0001) %MON dynstat_theta_max            =   3.0000000000000E+02
(PID.TID 0000.0001) %MON dynstat_theta_min            =   3.0000000000000E+02
(PID.TID 0000.0001) %MON dynstat_theta_mean           =   3.0000000000000E+02
(PID.TID 0000.0001) %MON dynstat_theta_sd             =   1.1368683772162E-13
(PID.TID 0000.0001) %MON dynstat_theta_del2           =   0.0000000000000E+00
(PID.TID 0000.0001) %MON dynstat_salt_max             =   9.8550332327948E-01
(PID.TID 0000.0001) %MON dynstat_salt_min             =  -2.9750595322720E-02
(PID.TID 0000.0001) %MON dynstat_salt_mean            =   6.6907989083856E-03
(PID.TID 0000.0001) %MON dynstat_salt_sd              =   6.1820230376417E-02
(PID.TID 0000.0001) %MON dynstat_salt_del2            =   1.5335891464684E-04
(PID.TID 0000.0001) %MON trAdv_CFL_u_max              =   3.0331475383570E-01
(PID.TID 0000.0001) %MON trAdv_CFL_v_max              =   3.0331475383570E-01
(PID.TID 0000.0001) %MON trAdv_CFL_w_max              =   6.3917610012717E-06
(PID.TID 0000.0001) %MON advcfl_uvel_max              =   3.0927591858821E-01
(PID.TID 0000.0001) %MON advcfl_vvel_max              =   3.0927591858821E-01
(PID.TID 0000.0001) %MON advcfl_wvel_max              =   1.3589455698241E-05
(PID.TID 0000.0001) %MON advcfl_W_hf_max              =   0.0000000000000E+00
(PID.TID 0000.0001) %MON am_eta_mean                  =  -6.9008253293969E+11
(PID.TID 0000.0001) %MON am_uZo_mean                  =   2.9898449730653E+12
(PID.TID 0000.0001) %MON am_tot_mean                  =   2.2997624401257E+12
(PID.TID 0000.0001) %MON pe_b_mean                    =   8.2901611978049E+02
(PID.TID 0000.0001) %MON ke_max                       =   3.1991088830791E+03
(PID.TID 0000.0001) %MON ke_mean                      =   2.1331712403657E+03
(PID.TID 0000.0001) %MON ke_vol                       =   3.8018800512493E+19
(PID.TID 0000.0001) %MON vort_r_min                   =  -2.9100488181364E-05
(PID.TID 0000.0001) %MON vort_r_max                   =   2.9100488181364E-05
(PID.TID 0000.0001) %MON vort_a_mean                  =   0.0000000000000E+00
(PID.TID 0000.0001) %MON vort_a_sd                    =   8.3968924404417E-05
(PID.TID 0000.0001) %MON vort_p_mean                  =   0.0000000000000E+00
(PID.TID 0000.0001) %MON vort_p_sd                    =   8.3968924404417E-05
(PID.TID 0000.0001) %MON surfExpan_theta_mean         =   3.1234546697752E-15
(PID.TID 0000.0001) %MON surfExpan_salt_mean          =  -6.3023768588015E-07
(PID.TID 0000.0001) %MON surfExpan_Heat_mean          =   2.6275963958407E-13
(PID.TID 0000.0001) %MON En_Budget_T2PE_mean          =   0.0000000000000E+00
(PID.TID 0000.0001) // =======================================================
(PID.TID 0000.0001) // End MONITOR dynamic field statistics
(PID.TID 0000.0001) // =======================================================
 cg2d: Sum(rhs),rhsMax =   1.62103964515047E+03  1.09996107801095E+05
(PID.TID 0000.0001)      cg2d_init_res =   6.28039774401514E-04
(PID.TID 0000.0001)      cg2d_iters(min,last) =      -1      11
(PID.TID 0000.0001)      cg2d_last_res =   7.49980604208464E-13
(PID.TID 0000.0001) // =======================================================
(PID.TID 0000.0001) // Begin MONITOR dynamic field statistics
(PID.TID 0000.0001) // =======================================================
(PID.TID 0000.0001) %MON time_tsnumber                =                    25
(PID.TID 0000.0001) %MON time_secondsf                =   1.1250000000000E+04
(PID.TID 0000.0001) %MON dynstat_eta_max              =  -1.5797218554972E+01
(PID.TID 0000.0001) %MON dynstat_eta_min              =  -2.8745190297551E+04
(PID.TID 0000.0001) %MON dynstat_eta_mean             =  -9.6000080157060E+03
(PID.TID 0000.0001) %MON dynstat_eta_sd               =   8.5813293341481E+03
(PID.TID 0000.0001) %MON dynstat_eta_del2             =   1.4315031682075E+00
(PID.TID 0000.0001) %MON dynstat_uvel_max             =   7.9977478640566E+01
(PID.TID 0000.0001) %MON dynstat_uvel_min             =  -5.5225155858568E+01
(PID.TID 0000.0001) %MON dynstat_uvel_mean            =   2.4387676065208E+01
(PID.TID 0000.0001) %MON dynstat_uvel_sd              =   3.9224284627670E+01
(PID.TID 0000.0001) %MON dynstat_uvel_del2            =   3.0328233224963E-02
(PID.TID 0000.0001) %MON dynstat_vvel_max             =   7.9977478640566E+01
(PID.TID 0000.0001) %MON dynstat_vvel_min             =  -5.5225155858568E+01
(PID.TID 0000.0001) %MON dynstat_vvel_mean            =   2.4387676065208E+01
(PID.TID 0000.0001) %MON dynstat_vvel_sd              =   3.9224284627670E+01
(PID.TID 0000.0001) %MON dynstat_vvel_del2            =   3.0328233224963E-02
(PID.TID 0000.0001) %MON dynstat_wvel_max             =   1.1615702928248E-03
(PID.TID 0000.0001) %MON dynstat_wvel_min             =  -1.7099803167200E-03
(PID.TID 0000.0001) %MON dynstat_wvel_mean            =  -1.1336496527774E-17
(PID.TID 0000.0001) %MON dynstat_wvel_sd              =   6.1550261296964E-04
(PID.TID 0000.0001) %MON dynstat_wvel_del2            =   1.8546857910302E-06
(PID.TID 0000.0001) %MON dynstat_theta_max            =   3.0000000000000E+02
(PID.TID 0000.0001) %MON dynstat_theta_min            =   3.0000000000000E+02
(PID.TID 0000.0001) %MON dynstat_theta_mean           =   3.0000000000000E+02
(PID.TID 0000.0001) %MON dynstat_theta_sd             =   1.1368683772162E-13
(PID.TID 0000.0001) %MON dynstat_theta_del2           =   0.0000000000000E+00
(PID.TID 0000.0001) %MON dynstat_salt_max             =   9.8809451915863E-01
(PID.TID 0000.0001) %MON dynstat_salt_min             =  -3.0504004189137E-02
(PID.TID 0000.0001) %MON dynstat_salt_mean            =   6.6908017574119E-03
(PID.TID 0000.0001) %MON dynstat_salt_sd              =   6.1815409949570E-02
(PID.TID 0000.0001) %MON dynstat_salt_del2            =   1.5323460545554E-04
(PID.TID 0000.0001) %MON trAdv_CFL_u_max              =   3.0342957655644E-01
(PID.TID 0000.0001) %MON trAdv_CFL_v_max              =   3.0342957655644E-01
(PID.TID 0000.0001) %MON trAdv_CFL_w_max              =   5.8219824184199E-06
(PID.TID 0000.0001) %MON advcfl_uvel_max              =   3.0923152326885E-01
(PID.TID 0000.0001) %MON advcfl_vvel_max              =   3.0923152326885E-01
(PID.TID 0000.0001) %MON advcfl_wvel_max              =   1.5389822850480E-05
(PID.TID 0000.0001) %MON advcfl_W_hf_max              =   0.0000000000000E+00
(PID.TID 0000.0001) %MON am_eta_mean                  =  -6.9009453048724E+11
(PID.TID 0000.0001) %MON am_uZo_mean                  =   2.9898604880811E+12
(PID.TID 0000.0001) %MON am_tot_mean                  =   2.2997659575939E+12
(PID.TID 0000.0001) %MON pe_b_mean                    =   8.2899683521365E+02
(PID.TID 0000.0001) %MON ke_max                       =   3.1991020061847E+03
(PID.TID 0000.0001) %MON ke_mean                      =   2.1331930400359E+03
(PID.TID 0000.0001) %MON ke_vol                       =   3.8018800512493E+19
(PID.TID 0000.0001) %MON vort_r_min                   =  -2.9101271746455E-05
(PID.TID 0000.0001) %MON vort_r_max                   =   2.9101271746455E-05
(PID.TID 0000.0001) %MON vort_a_mean                  =   6.5754556573936E-21
(PID.TID 0000.0001) %MON vort_a_sd                    =   8.3969009353249E-05
(PID.TID 0000.0001) %MON vort_p_mean                  =   6.5754556573936E-21
(PID.TID 0000.0001) %MON vort_p_sd                    =   8.3969009353249E-05
(PID.TID 0000.0001) %MON surfExpan_theta_mean         =  -3.3083960646961E-15
(PID.TID 0000.0001) %MON surfExpan_salt_mean          =  -5.4964326386239E-07
(PID.TID 0000.0001) %MON surfExpan_Heat_mean          =  -2.7670198780690E-13
(PID.TID 0000.0001) %MON En_Budget_T2PE_mean          =   0.0000000000000E+00
(PID.TID 0000.0001) // =======================================================
(PID.TID 0000.0001) // End MONITOR dynamic field statistics
(PID.TID 0000.0001) // =======================================================
 Computing Diagnostic #    148  momKE        Counter:       1   Parms: SMR     MR      
 Computing Diagnostic #    150  momVort3     Counter:       1   Parms: SZR     MR      
 Compute Stats, Diag. #     23  ETAN      vol(   0 ): 3.802E+14  Parms: SM      M1      
 Compute Stats, Diag. #     37  UE_VEL_C  vol(   0 ): 3.802E+19  Parms: UMR     MR      
 Compute Stats, Diag. #     38  VN_VEL_C  vol(   0 ): 3.802E+19  Parms: VMR     MR      
 Compute Stats, Diag. #    148  momKE     vol(   0 ): 3.802E+19  Parms: SMR     MR      
 Compute Stats, Diag. #    150  momVort3  vol(   0 ): 3.985E+19  Parms: SZR     MR      
 Compute Stats, Diag. #     27  SALT      vol(   0 ): 3.802E+19  Parms: SMR     MR      
 Compute Stats, Diag. #     33  SALTSQ    vol(   0 ): 3.802E+19  Parms: SMRP    MR      
(PID.TID 0000.0001) DIAGSTATS_CLOSE_IO: close file: dynStDiag.0000000000.txt , unit=     9
(PID.TID 0000.0001) %CHECKPOINT        25 ckptA
(PID.TID 0000.0001)   Seconds in section "ALL                    [THE_MODEL_MAIN]":
(PID.TID 0000.0001)           User time:   1.4878639911767095
(PID.TID 0000.0001)         System time:   7.2592999553307891E-002
(PID.TID 0000.0001)     Wall clock time:   1.8062250614166260
(PID.TID 0000.0001)          No. starts:           1
(PID.TID 0000.0001)           No. stops:           1
(PID.TID 0000.0001)   Seconds in section "INITIALISE_FIXED       [THE_MODEL_MAIN]":
(PID.TID 0000.0001)           User time:   8.3012002520263195E-002
(PID.TID 0000.0001)         System time:   4.7662000171840191E-002
(PID.TID 0000.0001)     Wall clock time:  0.37581205368041992
(PID.TID 0000.0001)          No. starts:           1
(PID.TID 0000.0001)           No. stops:           1
(PID.TID 0000.0001)   Seconds in section "THE_MAIN_LOOP          [THE_MODEL_MAIN]":
(PID.TID 0000.0001)           User time:   1.4048089608550072
(PID.TID 0000.0001)         System time:   2.4897001683712006E-002
(PID.TID 0000.0001)     Wall clock time:   1.4303591251373291
(PID.TID 0000.0001)          No. starts:           1
(PID.TID 0000.0001)           No. stops:           1
(PID.TID 0000.0001)   Seconds in section "INITIALISE_VARIA    [THE_MAIN_LOOP]":
(PID.TID 0000.0001)           User time:   2.4230994284152985E-002
(PID.TID 0000.0001)         System time:   8.2099996507167816E-003
(PID.TID 0000.0001)     Wall clock time:   3.2457113265991211E-002
(PID.TID 0000.0001)          No. starts:           1
(PID.TID 0000.0001)           No. stops:           1
(PID.TID 0000.0001)   Seconds in section "MAIN LOOP           [THE_MAIN_LOOP]":
(PID.TID 0000.0001)           User time:   1.3805570453405380
(PID.TID 0000.0001)         System time:   1.6678001731634140E-002
(PID.TID 0000.0001)     Wall clock time:   1.3978741168975830
(PID.TID 0000.0001)          No. starts:           1
(PID.TID 0000.0001)           No. stops:           1
(PID.TID 0000.0001)   Seconds in section "MAIN_DO_LOOP        [THE_MAIN_LOOP]":
(PID.TID 0000.0001)           User time:   1.3803648501634598
(PID.TID 0000.0001)         System time:   1.6669005155563354E-002
(PID.TID 0000.0001)     Wall clock time:   1.3976759910583496
(PID.TID 0000.0001)          No. starts:          25
(PID.TID 0000.0001)           No. stops:          25
(PID.TID 0000.0001)   Seconds in section "FORWARD_STEP        [MAIN_DO_LOOP]":
(PID.TID 0000.0001)           User time:   1.3799557313323021
(PID.TID 0000.0001)         System time:   1.6649998724460602E-002
(PID.TID 0000.0001)     Wall clock time:   1.3972561359405518
(PID.TID 0000.0001)          No. starts:          25
(PID.TID 0000.0001)           No. stops:          25
(PID.TID 0000.0001)   Seconds in section "DO_STATEVARS_DIAGS  [FORWARD_STEP]":
(PID.TID 0000.0001)           User time:   8.2678496837615967E-003
(PID.TID 0000.0001)         System time:   2.9919929802417755E-003
(PID.TID 0000.0001)     Wall clock time:   1.1267900466918945E-002
(PID.TID 0000.0001)          No. starts:          50
(PID.TID 0000.0001)           No. stops:          50
(PID.TID 0000.0001)   Seconds in section "LOAD_FIELDS_DRIVER  [FORWARD_STEP]":
(PID.TID 0000.0001)           User time:   2.0513683557510376E-004
(PID.TID 0000.0001)         System time:   2.9988586902618408E-006
(PID.TID 0000.0001)     Wall clock time:   2.1815299987792969E-004
(PID.TID 0000.0001)          No. starts:          25
(PID.TID 0000.0001)           No. stops:          25
(PID.TID 0000.0001)   Seconds in section "DO_ATMOSPHERIC_PHYS [FORWARD_STEP]":
(PID.TID 0000.0001)           User time:   6.0022473335266113E-003
(PID.TID 0000.0001)         System time:   1.1995434761047363E-005
(PID.TID 0000.0001)     Wall clock time:   6.0505867004394531E-003
(PID.TID 0000.0001)          No. starts:          25
(PID.TID 0000.0001)           No. stops:          25
(PID.TID 0000.0001)   Seconds in section "DO_OCEANIC_PHYS     [FORWARD_STEP]":
(PID.TID 0000.0001)           User time:   4.1995197534561157E-004
(PID.TID 0000.0001)         System time:   0.0000000000000000
(PID.TID 0000.0001)     Wall clock time:   4.1747093200683594E-004
(PID.TID 0000.0001)          No. starts:          25
(PID.TID 0000.0001)           No. stops:          25
(PID.TID 0000.0001)   Seconds in section "THERMODYNAMICS      [FORWARD_STEP]":
(PID.TID 0000.0001)           User time:  0.10795994102954865
(PID.TID 0000.0001)         System time:   0.0000000000000000
(PID.TID 0000.0001)     Wall clock time:  0.10812687873840332
(PID.TID 0000.0001)          No. starts:          25
(PID.TID 0000.0001)           No. stops:          25
(PID.TID 0000.0001)   Seconds in section "DYNAMICS            [FORWARD_STEP]":
(PID.TID 0000.0001)           User time:  0.35016511380672455
(PID.TID 0000.0001)         System time:   0.0000000000000000
(PID.TID 0000.0001)     Wall clock time:  0.35069084167480469
(PID.TID 0000.0001)          No. starts:          25
(PID.TID 0000.0001)           No. stops:          25
(PID.TID 0000.0001)   Seconds in section "SOLVE_FOR_PRESSURE  [FORWARD_STEP]":
(PID.TID 0000.0001)           User time:  0.52432323992252350
(PID.TID 0000.0001)         System time:   0.0000000000000000
(PID.TID 0000.0001)     Wall clock time:  0.52437067031860352
(PID.TID 0000.0001)          No. starts:          25
(PID.TID 0000.0001)           No. stops:          25
(PID.TID 0000.0001)   Seconds in section "MOM_CORRECTION_STEP [FORWARD_STEP]":
(PID.TID 0000.0001)           User time:   2.7048230171203613E-002
(PID.TID 0000.0001)         System time:   0.0000000000000000
(PID.TID 0000.0001)     Wall clock time:   2.7065992355346680E-002
(PID.TID 0000.0001)          No. starts:          25
(PID.TID 0000.0001)           No. stops:          25
(PID.TID 0000.0001)   Seconds in section "INTEGR_CONTINUITY   [FORWARD_STEP]":
(PID.TID 0000.0001)           User time:   1.7346113920211792E-002
(PID.TID 0000.0001)         System time:   0.0000000000000000
(PID.TID 0000.0001)     Wall clock time:   1.7358064651489258E-002
(PID.TID 0000.0001)          No. starts:          25
(PID.TID 0000.0001)           No. stops:          25
(PID.TID 0000.0001)   Seconds in section "TRC_CORRECTION_STEP [FORWARD_STEP]":
(PID.TID 0000.0001)           User time:   2.0897388458251953E-004
(PID.TID 0000.0001)         System time:   0.0000000000000000
(PID.TID 0000.0001)     Wall clock time:   2.1338462829589844E-004
(PID.TID 0000.0001)          No. starts:          25
(PID.TID 0000.0001)           No. stops:          25
(PID.TID 0000.0001)   Seconds in section "BLOCKING_EXCHANGES  [FORWARD_STEP]":
(PID.TID 0000.0001)           User time:   1.2477144598960876E-002
(PID.TID 0000.0001)         System time:   0.0000000000000000
(PID.TID 0000.0001)     Wall clock time:   1.2490510940551758E-002
(PID.TID 0000.0001)          No. starts:          25
(PID.TID 0000.0001)           No. stops:          25
(PID.TID 0000.0001)   Seconds in section "MONITOR             [FORWARD_STEP]":
(PID.TID 0000.0001)           User time:  0.31547112762928009
(PID.TID 0000.0001)         System time:   0.0000000000000000
(PID.TID 0000.0001)     Wall clock time:  0.31552433967590332
(PID.TID 0000.0001)          No. starts:          25
(PID.TID 0000.0001)           No. stops:          25
(PID.TID 0000.0001)   Seconds in section "DO_THE_MODEL_IO     [FORWARD_STEP]":
(PID.TID 0000.0001)           User time:   6.1110556125640869E-003
(PID.TID 0000.0001)         System time:   9.5900036394596100E-003
(PID.TID 0000.0001)     Wall clock time:   1.5707492828369141E-002
(PID.TID 0000.0001)          No. starts:          25
(PID.TID 0000.0001)           No. stops:          25
(PID.TID 0000.0001)   Seconds in section "DO_WRITE_PICKUP     [FORWARD_STEP]":
(PID.TID 0000.0001)           User time:   3.4113228321075439E-004
(PID.TID 0000.0001)         System time:   4.0120035409927368E-003
(PID.TID 0000.0001)     Wall clock time:   4.3570995330810547E-003
(PID.TID 0000.0001)          No. starts:          25
(PID.TID 0000.0001)           No. stops:          25
(PID.TID 0000.0001) // ======================================================
(PID.TID 0000.0001) // Tile <-> Tile communication statistics
(PID.TID 0000.0001) // ======================================================
(PID.TID 0000.0001) // o Tile number: 000001
(PID.TID 0000.0001) //         No. X exchanges =              0
(PID.TID 0000.0001) //            Max. X spins =              0
(PID.TID 0000.0001) //            Min. X spins =     1000000000
(PID.TID 0000.0001) //          Total. X spins =              0
(PID.TID 0000.0001) //            Avg. X spins =       0.00E+00
(PID.TID 0000.0001) //         No. Y exchanges =              0
(PID.TID 0000.0001) //            Max. Y spins =              0
(PID.TID 0000.0001) //            Min. Y spins =     1000000000
(PID.TID 0000.0001) //          Total. Y spins =              0
(PID.TID 0000.0001) //            Avg. Y spins =       0.00E+00
(PID.TID 0000.0001) // o Tile number: 000002
(PID.TID 0000.0001) //         No. X exchanges =              0
(PID.TID 0000.0001) //            Max. X spins =              0
(PID.TID 0000.0001) //            Min. X spins =     1000000000
(PID.TID 0000.0001) //          Total. X spins =              0
(PID.TID 0000.0001) //            Avg. X spins =       0.00E+00
(PID.TID 0000.0001) //         No. Y exchanges =              0
(PID.TID 0000.0001) //            Max. Y spins =              0
(PID.TID 0000.0001) //            Min. Y spins =     1000000000
(PID.TID 0000.0001) //          Total. Y spins =              0
(PID.TID 0000.0001) //            Avg. Y spins =       0.00E+00
(PID.TID 0000.0001) // o Tile number: 000003
(PID.TID 0000.0001) //         No. X exchanges =              0
(PID.TID 0000.0001) //            Max. X spins =              0
(PID.TID 0000.0001) //            Min. X spins =     1000000000
(PID.TID 0000.0001) //          Total. X spins =              0
(PID.TID 0000.0001) //            Avg. X spins =       0.00E+00
(PID.TID 0000.0001) //         No. Y exchanges =              0
(PID.TID 0000.0001) //            Max. Y spins =              0
(PID.TID 0000.0001) //            Min. Y spins =     1000000000
(PID.TID 0000.0001) //          Total. Y spins =              0
(PID.TID 0000.0001) //            Avg. Y spins =       0.00E+00
(PID.TID 0000.0001) // o Tile number: 000004
(PID.TID 0000.0001) //         No. X exchanges =              0
(PID.TID 0000.0001) //            Max. X spins =              0
(PID.TID 0000.0001) //            Min. X spins =     1000000000
(PID.TID 0000.0001) //          Total. X spins =              0
(PID.TID 0000.0001) //            Avg. X spins =       0.00E+00
(PID.TID 0000.0001) //         No. Y exchanges =              0
(PID.TID 0000.0001) //            Max. Y spins =              0
(PID.TID 0000.0001) //            Min. Y spins =     1000000000
(PID.TID 0000.0001) //          Total. Y spins =              0
(PID.TID 0000.0001) //            Avg. Y spins =       0.00E+00
(PID.TID 0000.0001) // o Tile number: 000005
(PID.TID 0000.0001) //         No. X exchanges =              0
(PID.TID 0000.0001) //            Max. X spins =              0
(PID.TID 0000.0001) //            Min. X spins =     1000000000
(PID.TID 0000.0001) //          Total. X spins =              0
(PID.TID 0000.0001) //            Avg. X spins =       0.00E+00
(PID.TID 0000.0001) //         No. Y exchanges =              0
(PID.TID 0000.0001) //            Max. Y spins =              0
(PID.TID 0000.0001) //            Min. Y spins =     1000000000
(PID.TID 0000.0001) //          Total. Y spins =              0
(PID.TID 0000.0001) //            Avg. Y spins =       0.00E+00
(PID.TID 0000.0001) // o Tile number: 000006
(PID.TID 0000.0001) //         No. X exchanges =              0
(PID.TID 0000.0001) //            Max. X spins =              0
(PID.TID 0000.0001) //            Min. X spins =     1000000000
(PID.TID 0000.0001) //          Total. X spins =              0
(PID.TID 0000.0001) //            Avg. X spins =       0.00E+00
(PID.TID 0000.0001) //         No. Y exchanges =              0
(PID.TID 0000.0001) //            Max. Y spins =              0
(PID.TID 0000.0001) //            Min. Y spins =     1000000000
(PID.TID 0000.0001) //          Total. Y spins =              0
(PID.TID 0000.0001) //            Avg. Y spins =       0.00E+00
(PID.TID 0000.0001) // o Thread number: 000001
(PID.TID 0000.0001) //            No. barriers =           8640
(PID.TID 0000.0001) //      Max. barrier spins =              1
(PID.TID 0000.0001) //      Min. barrier spins =              1
(PID.TID 0000.0001) //     Total barrier spins =           8640
(PID.TID 0000.0001) //      Avg. barrier spins =       1.00E+00
PROGRAM MAIN: Execution ended Normally
