(PID.TID 0000.0001) 
(PID.TID 0000.0001) // ======================================================
(PID.TID 0000.0001) //                      MITgcm UV
(PID.TID 0000.0001) //                      =========
(PID.TID 0000.0001) // ======================================================
(PID.TID 0000.0001) // execution environment starting up...
(PID.TID 0000.0001) 
(PID.TID 0000.0001) // MITgcmUV version:  checkpoint67h
(PID.TID 0000.0001) // Build user:        mlosch
(PID.TID 0000.0001) // Build host:        bkli04l006
(PID.TID 0000.0001) // Build date:        Fri May  3 13:38:19 CEST 2019
(PID.TID 0000.0001) 
(PID.TID 0000.0001) // =======================================================
(PID.TID 0000.0001) // Execution Environment parameter file "eedata"
(PID.TID 0000.0001) // =======================================================
(PID.TID 0000.0001) ># Example "eedata" file
(PID.TID 0000.0001) ># Lines beginning "#" are comments
(PID.TID 0000.0001) ># nTx - No. threads per process in X
(PID.TID 0000.0001) ># nTy - No. threads per process in Y
(PID.TID 0000.0001) > &EEPARMS
(PID.TID 0000.0001) > /
(PID.TID 0000.0001) ># Note: Some systems use & as the
(PID.TID 0000.0001) ># namelist terminator. Other systems
(PID.TID 0000.0001) ># use a / character (as shown here).
(PID.TID 0000.0001) 
(PID.TID 0000.0001) // =======================================================
(PID.TID 0000.0001) // Computational Grid Specification ( see files "SIZE.h" )
(PID.TID 0000.0001) //                                  ( and "eedata"       )
(PID.TID 0000.0001) // =======================================================
(PID.TID 0000.0001)      nPx =    1 ; /* No. processes in X */
(PID.TID 0000.0001)      nPy =    1 ; /* No. processes in Y */
(PID.TID 0000.0001)      nSx =    2 ; /* No. tiles in X per process */
(PID.TID 0000.0001)      nSy =    4 ; /* No. tiles in Y per process */
(PID.TID 0000.0001)      sNx =   25 ; /* Tile size in X */
(PID.TID 0000.0001)      sNy =   25 ; /* Tile size in Y */
(PID.TID 0000.0001)      OLx =    3 ; /* Tile overlap distance in X */
(PID.TID 0000.0001)      OLy =    3 ; /* Tile overlap distance in Y */
(PID.TID 0000.0001)      nTx =    1 ; /* No. threads in X per process */
(PID.TID 0000.0001)      nTy =    1 ; /* No. threads in Y per process */
(PID.TID 0000.0001)       Nr =   30 ; /* No. levels in the vertical   */
(PID.TID 0000.0001)       Nx =   50 ; /* Total domain size in X ( = nPx*nSx*sNx ) */
(PID.TID 0000.0001)       Ny =  100 ; /* Total domain size in Y ( = nPy*nSy*sNy ) */
(PID.TID 0000.0001)   nTiles =    8 ; /* Total no. tiles per process ( = nSx*nSy ) */
(PID.TID 0000.0001)   nProcs =    1 ; /* Total no. processes ( = nPx*nPy ) */
(PID.TID 0000.0001) nThreads =    1 ; /* Total no. threads per process ( = nTx*nTy ) */
(PID.TID 0000.0001) usingMPI =    F ; /* Flag used to control whether MPI is in use */
(PID.TID 0000.0001)                   /*  note: To execute a program with MPI calls */
(PID.TID 0000.0001)                   /*  it must be launched appropriately e.g     */
(PID.TID 0000.0001)                   /*  "mpirun -np 64 ......"                    */
(PID.TID 0000.0001) useCoupler=    F ;/* Flag used to control communications with   */
(PID.TID 0000.0001)                   /*  other model components, through a coupler */
(PID.TID 0000.0001) useNest2W_parent =    F ;/* Control 2-W Nesting comm */
(PID.TID 0000.0001) useNest2W_child  =    F ;/* Control 2-W Nesting comm */
(PID.TID 0000.0001) debugMode =    F ; /* print debug msg. (sequence of S/R calls)  */
(PID.TID 0000.0001) printMapIncludesZeros=    F ; /* print zeros in Std.Output maps */
(PID.TID 0000.0001) maxLengthPrt1D=   65 /* maxLength of 1D array printed to StdOut */
(PID.TID 0000.0001) 
(PID.TID 0000.0001) // ======================================================
(PID.TID 0000.0001) // Mapping of tiles to threads
(PID.TID 0000.0001) // ======================================================
(PID.TID 0000.0001) // -o- Thread   1, tiles (   1:   2,   1:   4)
(PID.TID 0000.0001) 
(PID.TID 0000.0001) // ======================================================
(PID.TID 0000.0001) // Tile <-> Tile connectvity table
(PID.TID 0000.0001) // ======================================================
(PID.TID 0000.0001) // Tile number: 000001 (process no. = 000000)
(PID.TID 0000.0001) //        WEST: Tile = 000002, Process = 000000, Comm = put
(PID.TID 0000.0001) //                bi = 000002, bj = 000001
(PID.TID 0000.0001) //        EAST: Tile = 000002, Process = 000000, Comm = put
(PID.TID 0000.0001) //                bi = 000002, bj = 000001
(PID.TID 0000.0001) //       SOUTH: Tile = 000007, Process = 000000, Comm = put
(PID.TID 0000.0001) //                bi = 000001, bj = 000004
(PID.TID 0000.0001) //       NORTH: Tile = 000003, Process = 000000, Comm = put
(PID.TID 0000.0001) //                bi = 000001, bj = 000002
(PID.TID 0000.0001) // Tile number: 000002 (process no. = 000000)
(PID.TID 0000.0001) //        WEST: Tile = 000001, Process = 000000, Comm = put
(PID.TID 0000.0001) //                bi = 000001, bj = 000001
(PID.TID 0000.0001) //        EAST: Tile = 000001, Process = 000000, Comm = put
(PID.TID 0000.0001) //                bi = 000001, bj = 000001
(PID.TID 0000.0001) //       SOUTH: Tile = 000008, Process = 000000, Comm = put
(PID.TID 0000.0001) //                bi = 000002, bj = 000004
(PID.TID 0000.0001) //       NORTH: Tile = 000004, Process = 000000, Comm = put
(PID.TID 0000.0001) //                bi = 000002, bj = 000002
(PID.TID 0000.0001) // Tile number: 000003 (process no. = 000000)
(PID.TID 0000.0001) //        WEST: Tile = 000004, Process = 000000, Comm = put
(PID.TID 0000.0001) //                bi = 000002, bj = 000002
(PID.TID 0000.0001) //        EAST: Tile = 000004, Process = 000000, Comm = put
(PID.TID 0000.0001) //                bi = 000002, bj = 000002
(PID.TID 0000.0001) //       SOUTH: Tile = 000001, Process = 000000, Comm = put
(PID.TID 0000.0001) //                bi = 000001, bj = 000001
(PID.TID 0000.0001) //       NORTH: Tile = 000005, Process = 000000, Comm = put
(PID.TID 0000.0001) //                bi = 000001, bj = 000003
(PID.TID 0000.0001) // Tile number: 000004 (process no. = 000000)
(PID.TID 0000.0001) //        WEST: Tile = 000003, Process = 000000, Comm = put
(PID.TID 0000.0001) //                bi = 000001, bj = 000002
(PID.TID 0000.0001) //        EAST: Tile = 000003, Process = 000000, Comm = put
(PID.TID 0000.0001) //                bi = 000001, bj = 000002
(PID.TID 0000.0001) //       SOUTH: Tile = 000002, Process = 000000, Comm = put
(PID.TID 0000.0001) //                bi = 000002, bj = 000001
(PID.TID 0000.0001) //       NORTH: Tile = 000006, Process = 000000, Comm = put
(PID.TID 0000.0001) //                bi = 000002, bj = 000003
(PID.TID 0000.0001) // Tile number: 000005 (process no. = 000000)
(PID.TID 0000.0001) //        WEST: Tile = 000006, Process = 000000, Comm = put
(PID.TID 0000.0001) //                bi = 000002, bj = 000003
(PID.TID 0000.0001) //        EAST: Tile = 000006, Process = 000000, Comm = put
(PID.TID 0000.0001) //                bi = 000002, bj = 000003
(PID.TID 0000.0001) //       SOUTH: Tile = 000003, Process = 000000, Comm = put
(PID.TID 0000.0001) //                bi = 000001, bj = 000002
(PID.TID 0000.0001) //       NORTH: Tile = 000007, Process = 000000, Comm = put
(PID.TID 0000.0001) //                bi = 000001, bj = 000004
(PID.TID 0000.0001) // Tile number: 000006 (process no. = 000000)
(PID.TID 0000.0001) //        WEST: Tile = 000005, Process = 000000, Comm = put
(PID.TID 0000.0001) //                bi = 000001, bj = 000003
(PID.TID 0000.0001) //        EAST: Tile = 000005, Process = 000000, Comm = put
(PID.TID 0000.0001) //                bi = 000001, bj = 000003
(PID.TID 0000.0001) //       SOUTH: Tile = 000004, Process = 000000, Comm = put
(PID.TID 0000.0001) //                bi = 000002, bj = 000002
(PID.TID 0000.0001) //       NORTH: Tile = 000008, Process = 000000, Comm = put
(PID.TID 0000.0001) //                bi = 000002, bj = 000004
(PID.TID 0000.0001) // Tile number: 000007 (process no. = 000000)
(PID.TID 0000.0001) //        WEST: Tile = 000008, Process = 000000, Comm = put
(PID.TID 0000.0001) //                bi = 000002, bj = 000004
(PID.TID 0000.0001) //        EAST: Tile = 000008, Process = 000000, Comm = put
(PID.TID 0000.0001) //                bi = 000002, bj = 000004
(PID.TID 0000.0001) //       SOUTH: Tile = 000005, Process = 000000, Comm = put
(PID.TID 0000.0001) //                bi = 000001, bj = 000003
(PID.TID 0000.0001) //       NORTH: Tile = 000001, Process = 000000, Comm = put
(PID.TID 0000.0001) //                bi = 000001, bj = 000001
(PID.TID 0000.0001) // Tile number: 000008 (process no. = 000000)
(PID.TID 0000.0001) //        WEST: Tile = 000007, Process = 000000, Comm = put
(PID.TID 0000.0001) //                bi = 000001, bj = 000004
(PID.TID 0000.0001) //        EAST: Tile = 000007, Process = 000000, Comm = put
(PID.TID 0000.0001) //                bi = 000001, bj = 000004
(PID.TID 0000.0001) //       SOUTH: Tile = 000006, Process = 000000, Comm = put
(PID.TID 0000.0001) //                bi = 000002, bj = 000003
(PID.TID 0000.0001) //       NORTH: Tile = 000002, Process = 000000, Comm = put
(PID.TID 0000.0001) //                bi = 000002, bj = 000001
(PID.TID 0000.0001) 
(PID.TID 0000.0001)  INI_PARMS: opening model parameter file "data"
(PID.TID 0000.0001)  OPEN_COPY_DATA_FILE: opening file data
(PID.TID 0000.0001) // =======================================================
(PID.TID 0000.0001) // Parameter file "data"
(PID.TID 0000.0001) // =======================================================
(PID.TID 0000.0001) ># ====================
(PID.TID 0000.0001) ># | Model parameters |
(PID.TID 0000.0001) ># ====================
(PID.TID 0000.0001) >#
(PID.TID 0000.0001) ># Continuous equation parameters
(PID.TID 0000.0001) > &PARM01
(PID.TID 0000.0001) > Tref = 30*-1.9,
(PID.TID 0000.0001) > Sref = 30*34.4,
(PID.TID 0000.0001) > viscAz=1.E-3,
(PID.TID 0000.0001) > viscAh=600.0,
(PID.TID 0000.0001) > no_slip_sides=.FALSE.,
(PID.TID 0000.0001) > no_slip_bottom=.FALSE.,
(PID.TID 0000.0001) > diffKhT=100.0,
(PID.TID 0000.0001) > diffKzT=5.E-5,
(PID.TID 0000.0001) > diffKhS=100.0,
(PID.TID 0000.0001) > diffKzS=5.E-5,
(PID.TID 0000.0001) > bottomDragQuadratic=2.5E-3,
(PID.TID 0000.0001) > eosType='JMD95Z',
(PID.TID 0000.0001) > HeatCapacity_cp = 3974.0,
(PID.TID 0000.0001) > rhoConst=1030.,
(PID.TID 0000.0001) > gravity=9.81,
(PID.TID 0000.0001) > convertFW2Salt = 33.4,
(PID.TID 0000.0001) > rigidLid=.FALSE.,
(PID.TID 0000.0001) > implicitFreeSurface=.TRUE.,
(PID.TID 0000.0001) ># this is needed to test the balancing code
(PID.TID 0000.0001) > exactConserv=.TRUE.,
(PID.TID 0000.0001) > useRealFreshWaterFlux = .TRUE.,
(PID.TID 0000.0001) > select_rStar=2,
(PID.TID 0000.0001) > nonlinFreeSurf=4,
(PID.TID 0000.0001) > hFacInf=0.02,
(PID.TID 0000.0001) > hFacSup=2.0,
(PID.TID 0000.0001) >#
(PID.TID 0000.0001) > hFacMin=0.05,
(PID.TID 0000.0001) > readBinaryPrec=64,
(PID.TID 0000.0001) > useSingleCPUio = .TRUE.,
(PID.TID 0000.0001) > debugLevel=3,
(PID.TID 0000.0001) > /
(PID.TID 0000.0001) >
(PID.TID 0000.0001) ># Elliptic solver parameters
(PID.TID 0000.0001) > &PARM02
(PID.TID 0000.0001) > cg2dMaxIters=1000,
(PID.TID 0000.0001) > cg2dTargetResidual=1.E-13,
(PID.TID 0000.0001) > /
(PID.TID 0000.0001) >
(PID.TID 0000.0001) ># Time stepping parameters
(PID.TID 0000.0001) > &PARM03
(PID.TID 0000.0001) > nIter0=0,
(PID.TID 0000.0001) > nTimeSteps=20,
(PID.TID 0000.0001) > deltaT=1800.0,
(PID.TID 0000.0001) > abEps=0.1,
(PID.TID 0000.0001) > cAdjFreq = -1.,
(PID.TID 0000.0001) > pChkptFreq=0.0,
(PID.TID 0000.0001) > chkptFreq=0.0,
(PID.TID 0000.0001) > dumpFreq=0.0,
(PID.TID 0000.0001) > taveFreq=0.0,
(PID.TID 0000.0001) > monitorFreq=1.,
(PID.TID 0000.0001) > monitorSelect=2,
(PID.TID 0000.0001) > /
(PID.TID 0000.0001) >
(PID.TID 0000.0001) ># Gridding parameters
(PID.TID 0000.0001) > &PARM04
(PID.TID 0000.0001) > usingSphericalPolarGrid=.TRUE.,
(PID.TID 0000.0001) > ygOrigin = -80.0,
(PID.TID 0000.0001) > delX=50*0.3,
(PID.TID 0000.0001) > delY=100*0.1,
(PID.TID 0000.0001) > delZ=30*30.0,
(PID.TID 0000.0001) > /
(PID.TID 0000.0001) >
(PID.TID 0000.0001) ># Input datasets
(PID.TID 0000.0001) > &PARM05
(PID.TID 0000.0001) > bathyFile='bathy.box',
(PID.TID 0000.0001) > /
(PID.TID 0000.0001) 
(PID.TID 0000.0001)  INI_PARMS ; starts to read PARM01
(PID.TID 0000.0001)  INI_PARMS ; read PARM01 : OK
(PID.TID 0000.0001)  INI_PARMS ; starts to read PARM02
(PID.TID 0000.0001)  INI_PARMS ; read PARM02 : OK
(PID.TID 0000.0001)  INI_PARMS ; starts to read PARM03
(PID.TID 0000.0001)  INI_PARMS ; read PARM03 : OK
(PID.TID 0000.0001)  INI_PARMS ; starts to read PARM04
(PID.TID 0000.0001)  INI_PARMS ; read PARM04 : OK
(PID.TID 0000.0001)  INI_PARMS ; starts to read PARM05
(PID.TID 0000.0001)  INI_PARMS ; read PARM05 : OK
(PID.TID 0000.0001)  INI_PARMS: finished reading file "data"
(PID.TID 0000.0001)  PACKAGES_BOOT: opening data.pkg
(PID.TID 0000.0001)  OPEN_COPY_DATA_FILE: opening file data.pkg
(PID.TID 0000.0001) // =======================================================
(PID.TID 0000.0001) // Parameter file "data.pkg"
(PID.TID 0000.0001) // =======================================================
(PID.TID 0000.0001) ># Packages
(PID.TID 0000.0001) > &PACKAGES
(PID.TID 0000.0001) > useShelfIce=.TRUE.,
(PID.TID 0000.0001) > useOBCS=.TRUE.,
(PID.TID 0000.0001) > useDiagnostics=.TRUE.,
(PID.TID 0000.0001) >#useMNC=.TRUE.,
(PID.TID 0000.0001) > /
(PID.TID 0000.0001) 
(PID.TID 0000.0001)  PACKAGES_BOOT: finished reading data.pkg
(PID.TID 0000.0001)  PACKAGES_BOOT: On/Off package Summary
 --------  pkgs with a standard "usePKG" On/Off switch in "data.pkg":  --------
 pkg/obcs                 compiled   and   used ( useOBCS                  = T )
 pkg/shelfice             compiled   and   used ( useShelfIce              = T )
 pkg/icefront             compiled but not used ( useICEFRONT              = F )
 pkg/diagnostics          compiled   and   used ( useDiagnostics           = T )
 pkg/mnc                  compiled but not used ( useMNC                   = F )
 -------- pkgs without standard "usePKG" On/Off switch in "data.pkg":  --------
 pkg/generic_advdiff      compiled   and   used ( useGAD                   = T )
 pkg/mom_common           compiled   and   used ( momStepping              = T )
 pkg/mom_vecinv           compiled but not used ( +vectorInvariantMomentum = F )
 pkg/mom_fluxform         compiled   and   used ( & not vectorInvariantMom = T )
 pkg/cd_code              compiled but not used ( useCDscheme              = F )
 pkg/monitor              compiled   and   used ( monitorFreq > 0.         = T )
 pkg/debug                compiled but not used ( debugMode                = F )
 pkg/rw                   compiled   and   used
 pkg/mdsio                compiled   and   used
(PID.TID 0000.0001)  PACKAGES_BOOT: End of package Summary
(PID.TID 0000.0001) 
(PID.TID 0000.0001)  OBCS_READPARMS: opening data.obcs
(PID.TID 0000.0001)  OPEN_COPY_DATA_FILE: opening file data.obcs
(PID.TID 0000.0001) // =======================================================
(PID.TID 0000.0001) // Parameter file "data.obcs"
(PID.TID 0000.0001) // =======================================================
(PID.TID 0000.0001) ># Open-boundaries
(PID.TID 0000.0001) > &OBCS_PARM01
(PID.TID 0000.0001) ># This flag turns off checking and fixing problematic topography across
(PID.TID 0000.0001) ># open boundaries.
(PID.TID 0000.0001) > OBCSfixTopo=.FALSE.,
(PID.TID 0000.0001) > OB_Jnorth= 50*-1,
(PID.TID 0000.0001) > useOBCSprescribe = .TRUE.,
(PID.TID 0000.0001) ># not prescribing any velocity defaults to zero flow
(PID.TID 0000.0001) >#OBNuFile = ' ',
(PID.TID 0000.0001) > OBCS_monitorFreq= 1800.,
(PID.TID 0000.0001) > OBCS_monSelect = 1,
(PID.TID 0000.0001) > useOBCSbalance = .TRUE.,
(PID.TID 0000.0001) ># this flag tests balancing the surface flux
(PID.TID 0000.0001) > OBCSbalanceSurf = .TRUE.,
(PID.TID 0000.0001) ># all adjustments are made through the northern boundary
(PID.TID 0000.0001) > OBCS_balanceFacN = 1.,
(PID.TID 0000.0001) > /
(PID.TID 0000.0001) >
(PID.TID 0000.0001) 
(PID.TID 0000.0001)  OBCS_READPARMS: finished reading data.obcs
(PID.TID 0000.0001)  OB_indexUnset = /* unset OB index value (i.e. no OB) */
(PID.TID 0000.0001)                       0
(PID.TID 0000.0001)     ;
(PID.TID 0000.0001)  Northern OB global indices : OB_Jnorth =
(PID.TID 0000.0001)    50 @      100                            /* I =  1: 50 */
(PID.TID 0000.0001)  Southern OB global indices : OB_Jsouth =
(PID.TID 0000.0001)    50 @        0                            /* I =  1: 50 */
(PID.TID 0000.0001)  Eastern  OB global indices : OB_Ieast =
(PID.TID 0000.0001)   100 @        0                            /* J =  1:100 */
(PID.TID 0000.0001)  Western  OB global indices : OB_Iwest =
(PID.TID 0000.0001)   100 @        0                            /* J =  1:100 */
(PID.TID 0000.0001) 
(PID.TID 0000.0001)  SHELFICE_READPARMS: opening data.shelfice
(PID.TID 0000.0001)  OPEN_COPY_DATA_FILE: opening file data.shelfice
(PID.TID 0000.0001) // =======================================================
(PID.TID 0000.0001) // Parameter file "data.shelfice"
(PID.TID 0000.0001) // =======================================================
(PID.TID 0000.0001) ># ===================================
(PID.TID 0000.0001) ># | Parameters for SHELFICE package |
(PID.TID 0000.0001) ># ===================================
(PID.TID 0000.0001) > &SHELFICE_PARM01
(PID.TID 0000.0001) > SHELFICEconserve = .TRUE.,
(PID.TID 0000.0001) > SHELFICEboundaryLayer = .TRUE.,
(PID.TID 0000.0001) > SHELFICEtopoFile='icetopo.obcs',
(PID.TID 0000.0001) > SHELFICEmassFile='iceShelf_Mass.obcs',
(PID.TID 0000.0001) > SHELFICEMAssStepping = .TRUE.,
(PID.TID 0000.0001) > SHELFICEMassDynTendFile ='iceShelf_MassTend.obcs',
(PID.TID 0000.0001) > SHELFICEadvDiffHeatFlux = .TRUE.,
(PID.TID 0000.0001) > SHELFICEuseGammaFrict = .TRUE.,
(PID.TID 0000.0001) > SHELFICEselectDragQuadr = 1,
(PID.TID 0000.0001) > SHELFICEwriteState = .TRUE.,
(PID.TID 0000.0001) > /
(PID.TID 0000.0001) 
(PID.TID 0000.0001)  SHELFICE_READPARMS: finished reading data.shelfice
(PID.TID 0000.0001)  DIAGNOSTICS_READPARMS: opening data.diagnostics
(PID.TID 0000.0001)  OPEN_COPY_DATA_FILE: opening file data.diagnostics
(PID.TID 0000.0001) // =======================================================
(PID.TID 0000.0001) // Parameter file "data.diagnostics"
(PID.TID 0000.0001) // =======================================================
(PID.TID 0000.0001) ># Diagnostic Package Choices
(PID.TID 0000.0001) >#--------------------
(PID.TID 0000.0001) >#  dumpAtLast (logical): always write output at the end of simulation (default=F)
(PID.TID 0000.0001) >#  diag_mnc   (logical): write to NetCDF files (default=useMNC)
(PID.TID 0000.0001) >#--for each output-stream:
(PID.TID 0000.0001) >#  fileName(n) : prefix of the output file name (max 80c long) for outp.stream n
(PID.TID 0000.0001) >#  frequency(n):< 0 : write snap-shot output every |frequency| seconds
(PID.TID 0000.0001) >#               > 0 : write time-average output every frequency seconds
(PID.TID 0000.0001) >#  timePhase(n)     : write at time = timePhase + multiple of |frequency|
(PID.TID 0000.0001) >#    averagingFreq  : frequency (in s) for periodic averaging interval
(PID.TID 0000.0001) >#    averagingPhase : phase     (in s) for periodic averaging interval
(PID.TID 0000.0001) >#    repeatCycle    : number of averaging intervals in 1 cycle
(PID.TID 0000.0001) >#  levels(:,n) : list of levels to write to file (Notes: declared as REAL)
(PID.TID 0000.0001) >#                when this entry is missing, select all common levels of this list
(PID.TID 0000.0001) >#  fields(:,n) : list of selected diagnostics fields (8.c) in outp.stream n
(PID.TID 0000.0001) >#                (see "available_diagnostics.log" file for the full list of diags)
(PID.TID 0000.0001) >#  missing_value(n) : missing value for real-type fields in output file "n"
(PID.TID 0000.0001) >#  fileFlags(n)     : specific code (8c string) for output file "n"
(PID.TID 0000.0001) >#--------------------
(PID.TID 0000.0001) > &DIAGNOSTICS_LIST
(PID.TID 0000.0001) ># diag_mnc     = .FALSE.,
(PID.TID 0000.0001) >#--
(PID.TID 0000.0001) >  fields(1:13,1) = 'ETAN    ','ETANSQ  ','DETADT2 ',
(PID.TID 0000.0001) >                   'SHIuStar','SHIgammT','SHIgammS',
(PID.TID 0000.0001) >                   'SHIfwFlx','SHIhtFlx','SHIForcT','SHIForcS',
(PID.TID 0000.0001) >                   'TFLUX   ','SFLUX   ',
(PID.TID 0000.0001) >#  fileName(1) = 'surfDiag',
(PID.TID 0000.0001) >  frequency(1) =  86400.,
(PID.TID 0000.0001) >
(PID.TID 0000.0001) >  fields(1:11,2) = 'UVEL    ','VVEL    ','WVEL    ','PHIHYD  ',
(PID.TID 0000.0001) >                   'VVELMASS','UVELMASS','WVELSQ  ',
(PID.TID 0000.0001) >                   'THETA   ','SALT    ','SHIUDrag','SHIVDrag',
(PID.TID 0000.0001) ># do not specify levels => all levels are selected
(PID.TID 0000.0001) >   fileName(2) = 'dynDiag',
(PID.TID 0000.0001) >  frequency(2) =  5184000.,
(PID.TID 0000.0001) >
(PID.TID 0000.0001) >  fields(1:7,4) =  'ADVx_TH ','ADVy_TH ','ADVr_TH ',
(PID.TID 0000.0001) >                   'DFxE_TH ','DFyE_TH ','DFrE_TH ',
(PID.TID 0000.0001) >                   'DFrI_TH ',
(PID.TID 0000.0001) >#  fileName(4) = 'flxDiag',
(PID.TID 0000.0001) >  frequency(4) = 1728000.,
(PID.TID 0000.0001) > /
(PID.TID 0000.0001) >
(PID.TID 0000.0001) >#--------------------
(PID.TID 0000.0001) ># Parameter for Diagnostics of per level statistics:
(PID.TID 0000.0001) >#--------------------
(PID.TID 0000.0001) >#  diagSt_mnc (logical): write stat-diags to NetCDF files (default=diag_mnc)
(PID.TID 0000.0001) >#  diagSt_regMaskFile : file containing the region-mask to read-in
(PID.TID 0000.0001) >#  nSetRegMskFile   : number of region-mask sets within the region-mask file
(PID.TID 0000.0001) >#  set_regMask(i)   : region-mask set-index that identifies the region "i"
(PID.TID 0000.0001) >#  val_regMask(i)   : region "i" identifier value in the region mask
(PID.TID 0000.0001) >#--for each output-stream:
(PID.TID 0000.0001) >#  stat_fName(n) : prefix of the output file name (max 80c long) for outp.stream n
(PID.TID 0000.0001) >#  stat_freq(n):< 0 : write snap-shot output every |stat_freq| seconds
(PID.TID 0000.0001) >#               > 0 : write time-average output every stat_freq seconds
(PID.TID 0000.0001) >#  stat_phase(n)    : write at time = stat_phase + multiple of |stat_freq|
(PID.TID 0000.0001) >#  stat_region(:,n) : list of "regions" (default: 1 region only=global)
(PID.TID 0000.0001) >#  stat_fields(:,n) : list of selected diagnostics fields (8.c) in outp.stream n
(PID.TID 0000.0001) >#                (see "available_diagnostics.log" file for the full list of diags)
(PID.TID 0000.0001) >#--------------------
(PID.TID 0000.0001) > &DIAG_STATIS_PARMS
(PID.TID 0000.0001) ># diagSt_mnc = .TRUE.,
(PID.TID 0000.0001) ># The mask differentiates between (1) inside and (2) outside the cavity. The
(PID.TID 0000.0001) ># mean of ETAN outside the cavity should not drift after an initial adjustment.
(PID.TID 0000.0001) ># The initial adjustment is caused by the imperfect balance of the initial
(PID.TID 0000.0001) ># ice mass load.
(PID.TID 0000.0001) >  diagSt_regMaskFile='iceMask.obcs',
(PID.TID 0000.0001) >  nSetRegMskFile = 1,
(PID.TID 0000.0001) >  set_regMask(1:2) = 1,  1,
(PID.TID 0000.0001) >  val_regMask(1:2) = 1., 2.,
(PID.TID 0000.0001) ># an example just to check the agreement with MONITOR output:
(PID.TID 0000.0001) > stat_fields(1:6,1)  = 'ETAN    ','UVEL    ','VVEL    ','WVEL    ',
(PID.TID 0000.0001) >                       'THETA   ','SALT    ',
(PID.TID 0000.0001) >  stat_fName(1) = 'dynStDiag',
(PID.TID 0000.0001) >   stat_freq(1) = 86400.,
(PID.TID 0000.0001) ># stat_phase(1) = 0.,
(PID.TID 0000.0001) > stat_region(1:3,1) = 0, 1, 2,
(PID.TID 0000.0001) > /
(PID.TID 0000.0001) >
(PID.TID 0000.0001) 
(PID.TID 0000.0001) S/R DIAGNOSTICS_READPARMS, read namelist "diagnostics_list": start
(PID.TID 0000.0001) S/R DIAGNOSTICS_READPARMS, read namelist "diagnostics_list": OK
(PID.TID 0000.0001) S/R DIAGNOSTICS_READPARMS, read namelist "DIAG_STATIS_PARMS": start
(PID.TID 0000.0001) S/R DIAGNOSTICS_READPARMS, read namelist "DIAG_STATIS_PARMS": OK
(PID.TID 0000.0001)  DIAGNOSTICS_READPARMS: global parameter summary:
(PID.TID 0000.0001)  dumpAtLast = /* always write time-ave diags at the end */
(PID.TID 0000.0001)                   F
(PID.TID 0000.0001)     ;
(PID.TID 0000.0001)  diag_mnc =   /* write NetCDF output files */
(PID.TID 0000.0001)                   F
(PID.TID 0000.0001)     ;
(PID.TID 0000.0001)  useMissingValue = /* put MissingValue where mask = 0 */
(PID.TID 0000.0001)                   F
(PID.TID 0000.0001)     ;
(PID.TID 0000.0001)  diagCG_maxIters = /* max number of iters in diag_cg2d */
(PID.TID 0000.0001)                    1000
(PID.TID 0000.0001)     ;
(PID.TID 0000.0001)  diagCG_resTarget = /* residual target for diag_cg2d */
(PID.TID 0000.0001)                 1.000000000000000E-13
(PID.TID 0000.0001)     ;
(PID.TID 0000.0001)  diagCG_pcOffDFac = /* preconditioner off-diagonal factor */
(PID.TID 0000.0001)                 9.611687812379854E-01
(PID.TID 0000.0001)     ;
(PID.TID 0000.0001) -----------------------------------------------------
(PID.TID 0000.0001)  DIAGNOSTICS_READPARMS: active diagnostics summary:
(PID.TID 0000.0001) -----------------------------------------------------
(PID.TID 0000.0001) Creating Output Stream: dynDiag
(PID.TID 0000.0001) Output Frequency:    5184000.000000 ; Phase:           0.000000
(PID.TID 0000.0001)  Averaging Freq.:    5184000.000000 , Phase:           0.000000 , Cycle:   1
(PID.TID 0000.0001)  missing value: -9.990000000000E+02
(PID.TID 0000.0001)  Levels:    will be set later
(PID.TID 0000.0001)  Fields:    UVEL     VVEL     WVEL     PHIHYD   VVELMASS UVELMASS WVELSQ   THETA    SALT     SHIUDrag
(PID.TID 0000.0001)  Fields:    SHIVDrag
(PID.TID 0000.0001) -----------------------------------------------------
(PID.TID 0000.0001)  DIAGNOSTICS_READPARMS: statistics diags. summary:
(PID.TID 0000.0001) Creating Stats. Output Stream: dynStDiag
(PID.TID 0000.0001) Output Frequency:      86400.000000 ; Phase:           0.000000
(PID.TID 0000.0001)  Regions:   0  1  2
(PID.TID 0000.0001)  Fields:    ETAN     UVEL     VVEL     WVEL     THETA    SALT
(PID.TID 0000.0001) -----------------------------------------------------
(PID.TID 0000.0001) 
(PID.TID 0000.0001) SET_PARMS: done
(PID.TID 0000.0001) Enter INI_VERTICAL_GRID: setInterFDr=    T ; setCenterDr=    F
(PID.TID 0000.0001) %MON XC_max                       =   1.4850000000000E+01
(PID.TID 0000.0001) %MON XC_min                       =   1.5000000000000E-01
(PID.TID 0000.0001) %MON XC_mean                      =   7.5000000000000E+00
(PID.TID 0000.0001) %MON XC_sd                        =   4.3292609068985E+00
(PID.TID 0000.0001) %MON XG_max                       =   1.4700000000000E+01
(PID.TID 0000.0001) %MON XG_min                       =   1.1102230246252E-16
(PID.TID 0000.0001) %MON XG_mean                      =   7.3500000000000E+00
(PID.TID 0000.0001) %MON XG_sd                        =   4.3292609068985E+00
(PID.TID 0000.0001) %MON DXC_max                      =   1.1380125394806E+04
(PID.TID 0000.0001) %MON DXC_min                      =   5.8203914905589E+03
(PID.TID 0000.0001) %MON DXC_mean                     =   8.6215028627207E+03
(PID.TID 0000.0001) %MON DXC_sd                       =   1.6219001271572E+03
(PID.TID 0000.0001) %MON DXF_max                      =   1.1380125394806E+04
(PID.TID 0000.0001) %MON DXF_min                      =   5.8203914905589E+03
(PID.TID 0000.0001) %MON DXF_mean                     =   8.6215028627207E+03
(PID.TID 0000.0001) %MON DXF_sd                       =   1.6219001271572E+03
(PID.TID 0000.0001) %MON DXG_max                      =   1.1352761512017E+04
(PID.TID 0000.0001) %MON DXG_min                      =   5.7917296935586E+03
(PID.TID 0000.0001) %MON DXG_mean                     =   8.5934208253080E+03
(PID.TID 0000.0001) %MON DXG_sd                       =   1.6222785520817E+03
(PID.TID 0000.0001) %MON DXV_max                      =   1.1352761512017E+04
(PID.TID 0000.0001) %MON DXV_min                      =   5.7917296935586E+03
(PID.TID 0000.0001) %MON DXV_mean                     =   8.5934208253080E+03
(PID.TID 0000.0001) %MON DXV_sd                       =   1.6222785520817E+03
(PID.TID 0000.0001) %MON YC_max                       =  -7.0050000000001E+01
(PID.TID 0000.0001) %MON YC_min                       =  -7.9950000000000E+01
(PID.TID 0000.0001) %MON YC_mean                      =  -7.5000000000000E+01
(PID.TID 0000.0001) %MON YC_sd                        =   2.8866070047720E+00
(PID.TID 0000.0001) %MON YG_max                       =  -7.0100000000001E+01
(PID.TID 0000.0001) %MON YG_min                       =  -8.0000000000000E+01
(PID.TID 0000.0001) %MON YG_mean                      =  -7.5050000000000E+01
(PID.TID 0000.0001) %MON YG_sd                        =   2.8866070047721E+00
(PID.TID 0000.0001) %MON DYC_max                      =   1.1117747335204E+04
(PID.TID 0000.0001) %MON DYC_min                      =   1.1117747335204E+04
(PID.TID 0000.0001) %MON DYC_mean                     =   1.1117747335204E+04
(PID.TID 0000.0001) %MON DYC_sd                       =   4.1836756281555E-11
(PID.TID 0000.0001) %MON DYF_max                      =   1.1117747335204E+04
(PID.TID 0000.0001) %MON DYF_min                      =   1.1117747335204E+04
(PID.TID 0000.0001) %MON DYF_mean                     =   1.1117747335204E+04
(PID.TID 0000.0001) %MON DYF_sd                       =   4.1836756281555E-11
(PID.TID 0000.0001) %MON DYG_max                      =   1.1117747335204E+04
(PID.TID 0000.0001) %MON DYG_min                      =   1.1117747335204E+04
(PID.TID 0000.0001) %MON DYG_mean                     =   1.1117747335204E+04
(PID.TID 0000.0001) %MON DYG_sd                       =   4.1836756281555E-11
(PID.TID 0000.0001) %MON DYU_max                      =   1.1117747335204E+04
(PID.TID 0000.0001) %MON DYU_min                      =   1.1117747335204E+04
(PID.TID 0000.0001) %MON DYU_mean                     =   1.1117747335204E+04
(PID.TID 0000.0001) %MON DYU_sd                       =   4.1836756281555E-11
(PID.TID 0000.0001) %MON RA_max                       =   1.2652134272379E+08
(PID.TID 0000.0001) %MON RA_min                       =   6.4709633770803E+07
(PID.TID 0000.0001) %MON RA_mean                      =   9.5851678311587E+07
(PID.TID 0000.0001) %MON RA_sd                        =   1.8031873527992E+07
(PID.TID 0000.0001) %MON RAW_max                      =   1.2652134272379E+08
(PID.TID 0000.0001) %MON RAW_min                      =   6.4709633770803E+07
(PID.TID 0000.0001) %MON RAW_mean                     =   9.5851678311587E+07
(PID.TID 0000.0001) %MON RAW_sd                       =   1.8031873527992E+07
(PID.TID 0000.0001) %MON RAS_max                      =   1.2621711802744E+08
(PID.TID 0000.0001) %MON RAS_min                      =   6.4390979194019E+07
(PID.TID 0000.0001) %MON RAS_mean                     =   9.5539469354603E+07
(PID.TID 0000.0001) %MON RAS_sd                       =   1.8036080760153E+07
(PID.TID 0000.0001) %MON RAZ_max                      =   1.2621711802744E+08
(PID.TID 0000.0001) %MON RAZ_min                      =   6.4390979194019E+07
(PID.TID 0000.0001) %MON RAZ_mean                     =   9.5539469354603E+07
(PID.TID 0000.0001) %MON RAZ_sd                       =   1.8036080760153E+07
(PID.TID 0000.0001) %MON AngleCS_max                  =   1.0000000000000E+00
(PID.TID 0000.0001) %MON AngleCS_min                  =   1.0000000000000E+00
(PID.TID 0000.0001) %MON AngleCS_mean                 =   1.0000000000000E+00
(PID.TID 0000.0001) %MON AngleCS_sd                   =   0.0000000000000E+00
(PID.TID 0000.0001) %MON AngleSN_max                  =   0.0000000000000E+00
(PID.TID 0000.0001) %MON AngleSN_min                  =   0.0000000000000E+00
(PID.TID 0000.0001) %MON AngleSN_mean                 =   0.0000000000000E+00
(PID.TID 0000.0001) %MON AngleSN_sd                   =   0.0000000000000E+00
(PID.TID 0000.0001)  MDS_WRITEVEC_LOC: open file: RhoRef.data
(PID.TID 0000.0001)  MDS_READ_FIELD: opening global file: bathy.box
(PID.TID 0000.0001) // =======================================================
(PID.TID 0000.0001) // Field Bottom depths (ini_depths)
(PID.TID 0000.0001) // CMIN =         -9.000000000000000E+02
(PID.TID 0000.0001) // CMAX =         -9.000000000000000E+02
(PID.TID 0000.0001) // CINT =          0.000000000000000E+00
(PID.TID 0000.0001) // SYMBOLS (CMIN->CMAX): -abcdefghijklmnopqrstuvwxyz+
(PID.TID 0000.0001) //                  0.0: .
(PID.TID 0000.0001) // RANGE I (Lo:Hi:Step):(    -2:    53:     1)
(PID.TID 0000.0001) // RANGE J (Lo:Hi:Step):(   103:    -2:    -1)
(PID.TID 0000.0001) // RANGE K (Lo:Hi:Step):(   1:   1:   1)
(PID.TID 0000.0001) // =======================================================
(PID.TID 0000.0001) // =======================================================
(PID.TID 0000.0001) // END OF FIELD                                          =
(PID.TID 0000.0001) // =======================================================
(PID.TID 0000.0001) 
(PID.TID 0000.0001) // =======================================================
(PID.TID 0000.0001) // Field Surface reference r-position (ini_depths)
(PID.TID 0000.0001) // CMIN =          1.000000000000000E+32
(PID.TID 0000.0001) // CMAX =         -1.000000000000000E+32
(PID.TID 0000.0001) // CINT =          0.000000000000000E+00
(PID.TID 0000.0001) // SYMBOLS (CMIN->CMAX): -abcdefghijklmnopqrstuvwxyz+
(PID.TID 0000.0001) //                  0.0: .
(PID.TID 0000.0001) // RANGE I (Lo:Hi:Step):(    -2:    53:     1)
(PID.TID 0000.0001) // RANGE J (Lo:Hi:Step):(   103:    -2:    -1)
(PID.TID 0000.0001) // RANGE K (Lo:Hi:Step):(   1:   1:   1)
(PID.TID 0000.0001) // =======================================================
(PID.TID 0000.0001) // =======================================================
(PID.TID 0000.0001) // END OF FIELD                                          =
(PID.TID 0000.0001) // =======================================================
(PID.TID 0000.0001) 
(PID.TID 0000.0001)  MDS_READ_FIELD: opening global file: icetopo.obcs
(PID.TID 0000.0001) // =======================================================
(PID.TID 0000.0001) // Field Model R_low (ini_masks_etc)
(PID.TID 0000.0001) // CMIN =         -9.000000000000000E+02
(PID.TID 0000.0001) // CMAX =         -9.000000000000000E+02
(PID.TID 0000.0001) // CINT =          0.000000000000000E+00
(PID.TID 0000.0001) // SYMBOLS (CMIN->CMAX): -abcdefghijklmnopqrstuvwxyz+
(PID.TID 0000.0001) //                  0.0: .
(PID.TID 0000.0001) // RANGE I (Lo:Hi:Step):(    -2:    53:     1)
(PID.TID 0000.0001) // RANGE J (Lo:Hi:Step):(   103:    -2:    -1)
(PID.TID 0000.0001) // RANGE K (Lo:Hi:Step):(   1:   1:   1)
(PID.TID 0000.0001) // =======================================================
(PID.TID 0000.0001) // =======================================================
(PID.TID 0000.0001) // END OF FIELD                                          =
(PID.TID 0000.0001) // =======================================================
(PID.TID 0000.0001) 
(PID.TID 0000.0001) // =======================================================
(PID.TID 0000.0001) // Field Model Ro_surf (ini_masks_etc)
(PID.TID 0000.0001) // CMIN =         -6.812500000000010E+02
(PID.TID 0000.0001) // CMAX =         -2.000000000000000E+02
(PID.TID 0000.0001) // CINT =          1.782407407407411E+01
(PID.TID 0000.0001) // SYMBOLS (CMIN->CMAX): -abcdefghijklmnopqrstuvwxyz+
(PID.TID 0000.0001) //                  0.0: .
(PID.TID 0000.0001) // RANGE I (Lo:Hi:Step):(    -2:    53:     1)
(PID.TID 0000.0001) // RANGE J (Lo:Hi:Step):(   103:    -2:    -1)
(PID.TID 0000.0001) // RANGE K (Lo:Hi:Step):(   1:   1:   1)
(PID.TID 0000.0001) // =======================================================
(PID.TID 0000.0001) K =   1
(PID.TID 0000.0001) //                I=7       I=17      I=27      I=31      I=41      I=51
(PID.TID 0000.0001) // |--J--|210123456|890123456|890123456|834567890|234567890|234567890|23
(PID.TID 0000.0001) //    103 aaa.aaaaaaaaaaaaaaaaaaaaaaaaaaaaaaaaaaaaaaaaaaaaaaaaaaaaaaa.aa
(PID.TID 0000.0001) //    102 ---.-------------------------------------------------------.--
(PID.TID 0000.0001) //    101 ..............................................................
(PID.TID 0000.0001) //    100 ..............................................................
(PID.TID 0000.0001) //     99 ..............................................................
(PID.TID 0000.0001) //     98 ..............................................................
(PID.TID 0000.0001) //     97 ..............................................................
(PID.TID 0000.0001) //     96 ..............................................................
(PID.TID 0000.0001) //     95 ..............................................................
(PID.TID 0000.0001) //     94 ..............................................................
(PID.TID 0000.0001) //     93 ..............................................................
(PID.TID 0000.0001) //     92 ..............................................................
(PID.TID 0000.0001) //     91 ..............................................................
(PID.TID 0000.0001) //     90 ..............................................................
(PID.TID 0000.0001) //     89 ..............................................................
(PID.TID 0000.0001) //     88 ..............................................................
(PID.TID 0000.0001) //     87 ..............................................................
(PID.TID 0000.0001) //     86 ..............................................................
(PID.TID 0000.0001) //     85 ..............................................................
(PID.TID 0000.0001) //     84 ..............................................................
(PID.TID 0000.0001) //     83 ..............................................................
(PID.TID 0000.0001) //     82 ..............................................................
(PID.TID 0000.0001) //     81 ..............................................................
(PID.TID 0000.0001) //     80 ..............................................................
(PID.TID 0000.0001) //     79 ..............................................................
(PID.TID 0000.0001) //     78 ..............................................................
(PID.TID 0000.0001) //     77 ..............................................................
(PID.TID 0000.0001) //     76 ..............................................................
(PID.TID 0000.0001) //     75 ..............................................................
(PID.TID 0000.0001) //     74 ..............................................................
(PID.TID 0000.0001) //     73 ..............................................................
(PID.TID 0000.0001) //     78 ..............................................................
(PID.TID 0000.0001) //     77 ..............................................................
(PID.TID 0000.0001) //     76 ..............................................................
(PID.TID 0000.0001) //     75 ..............................................................
(PID.TID 0000.0001) //     74 ..............................................................
(PID.TID 0000.0001) //     73 ..............................................................
(PID.TID 0000.0001) //     72 ..............................................................
(PID.TID 0000.0001) //     71 ..............................................................
(PID.TID 0000.0001) //     70 ..............................................................
(PID.TID 0000.0001) //     69 ..............................................................
(PID.TID 0000.0001) //     68 ..............................................................
(PID.TID 0000.0001) //     67 ..............................................................
(PID.TID 0000.0001) //     66 ..............................................................
(PID.TID 0000.0001) //     65 ..............................................................
(PID.TID 0000.0001) //     64 ..............................................................
(PID.TID 0000.0001) //     63 ..............................................................
(PID.TID 0000.0001) //     62 ..............................................................
(PID.TID 0000.0001) //     61 ..............................................................
(PID.TID 0000.0001) //     60 ..............................................................
(PID.TID 0000.0001) //     59 ..............................................................
(PID.TID 0000.0001) //     58 ..............................................................
(PID.TID 0000.0001) //     57 ..............................................................
(PID.TID 0000.0001) //     56 ..............................................................
(PID.TID 0000.0001) //     55 ..............................................................
(PID.TID 0000.0001) //     54 ..............................................................
(PID.TID 0000.0001) //     53 ..............................................................
(PID.TID 0000.0001) //     52 ..............................................................
(PID.TID 0000.0001) //     51 ..............................................................
(PID.TID 0000.0001) //     50 +++.+++++++++++++++++++++++++++++++++++++++++++++++++++++++.++
(PID.TID 0000.0001) //     49 +++.+++++++++++++++++++++++++++++++++++++++++++++++++++++++.++
(PID.TID 0000.0001) //     48 +++.+++++++++++++++++++++++++++++++++++++++++++++++++++++++.++
(PID.TID 0000.0001) //     53 ..............................................................
(PID.TID 0000.0001) //     52 ..............................................................
(PID.TID 0000.0001) //     51 ..............................................................
(PID.TID 0000.0001) //     50 +++.+++++++++++++++++++++++++++++++++++++++++++++++++++++++.++
(PID.TID 0000.0001) //     49 +++.+++++++++++++++++++++++++++++++++++++++++++++++++++++++.++
(PID.TID 0000.0001) //     48 +++.+++++++++++++++++++++++++++++++++++++++++++++++++++++++.++
(PID.TID 0000.0001) //     47 +++.+++++++++++++++++++++++++++++++++++++++++++++++++++++++.++
(PID.TID 0000.0001) //     46 +++.+++++++++++++++++++++++++++++++++++++++++++++++++++++++.++
(PID.TID 0000.0001) //     45 +++.+++++++++++++++++++++++++++++++++++++++++++++++++++++++.++
(PID.TID 0000.0001) //     44 +++.+++++++++++++++++++++++++++++++++++++++++++++++++++++++.++
(PID.TID 0000.0001) //     43 +++.+++++++++++++++++++++++++++++++++++++++++++++++++++++++.++
(PID.TID 0000.0001) //     42 +++.+++++++++++++++++++++++++++++++++++++++++++++++++++++++.++
(PID.TID 0000.0001) //     41 +++.+++++++++++++++++++++++++++++++++++++++++++++++++++++++.++
(PID.TID 0000.0001) //     40 +++.+++++++++++++++++++++++++++++++++++++++++++++++++++++++.++
(PID.TID 0000.0001) //     39 zzz.zzzzzzzzzzzzzzzzzzzzzzzzzzzzzzzzzzzzzzzzzzzzzzzzzzzzzzz.zz
(PID.TID 0000.0001) //     38 yyy.yyyyyyyyyyyyyyyyyyyyyyyyyyyyyyyyyyyyyyyyyyyyyyyyyyyyyyy.yy
(PID.TID 0000.0001) //     37 yyy.yyyyyyyyyyyyyyyyyyyyyyyyyyyyyyyyyyyyyyyyyyyyyyyyyyyyyyy.yy
(PID.TID 0000.0001) //     36 xxx.xxxxxxxxxxxxxxxxxxxxxxxxxxxxxxxxxxxxxxxxxxxxxxxxxxxxxxx.xx
(PID.TID 0000.0001) //     35 www.wwwwwwwwwwwwwwwwwwwwwwwwwwwwwwwwwwwwwwwwwwwwwwwwwwwwwww.ww
(PID.TID 0000.0001) //     34 vvv.vvvvvvvvvvvvvvvvvvvvvvvvvvvvvvvvvvvvvvvvvvvvvvvvvvvvvvv.vv
(PID.TID 0000.0001) //     33 vvv.vvvvvvvvvvvvvvvvvvvvvvvvvvvvvvvvvvvvvvvvvvvvvvvvvvvvvvv.vv
(PID.TID 0000.0001) //     32 uuu.uuuuuuuuuuuuuuuuuuuuuuuuuuuuuuuuuuuuuuuuuuuuuuuuuuuuuuu.uu
(PID.TID 0000.0001) //     31 ttt.ttttttttttttttttttttttttttttttttttttttttttttttttttttttt.tt
(PID.TID 0000.0001) //     30 ttt.ttttttttttttttttttttttttttttttttttttttttttttttttttttttt.tt
(PID.TID 0000.0001) //     29 sss.sssssssssssssssssssssssssssssssssssssssssssssssssssssss.ss
(PID.TID 0000.0001) //     28 rrr.rrrrrrrrrrrrrrrrrrrrrrrrrrrrrrrrrrrrrrrrrrrrrrrrrrrrrrr.rr
(PID.TID 0000.0001) //     27 rrr.rrrrrrrrrrrrrrrrrrrrrrrrrrrrrrrrrrrrrrrrrrrrrrrrrrrrrrr.rr
(PID.TID 0000.0001) //     26 qqq.qqqqqqqqqqqqqqqqqqqqqqqqqqqqqqqqqqqqqqqqqqqqqqqqqqqqqqq.qq
(PID.TID 0000.0001) //     25 ppp.ppppppppppppppppppppppppppppppppppppppppppppppppppppppp.pp
(PID.TID 0000.0001) //     24 ooo.ooooooooooooooooooooooooooooooooooooooooooooooooooooooo.oo
(PID.TID 0000.0001) //     23 ooo.ooooooooooooooooooooooooooooooooooooooooooooooooooooooo.oo
(PID.TID 0000.0001) //     28 rrr.rrrrrrrrrrrrrrrrrrrrrrrrrrrrrrrrrrrrrrrrrrrrrrrrrrrrrrr.rr
(PID.TID 0000.0001) //     27 rrr.rrrrrrrrrrrrrrrrrrrrrrrrrrrrrrrrrrrrrrrrrrrrrrrrrrrrrrr.rr
(PID.TID 0000.0001) //     26 qqq.qqqqqqqqqqqqqqqqqqqqqqqqqqqqqqqqqqqqqqqqqqqqqqqqqqqqqqq.qq
(PID.TID 0000.0001) //     25 ppp.ppppppppppppppppppppppppppppppppppppppppppppppppppppppp.pp
(PID.TID 0000.0001) //     24 ooo.ooooooooooooooooooooooooooooooooooooooooooooooooooooooo.oo
(PID.TID 0000.0001) //     23 ooo.ooooooooooooooooooooooooooooooooooooooooooooooooooooooo.oo
(PID.TID 0000.0001) //     22 nnn.nnnnnnnnnnnnnnnnnnnnnnnnnnnnnnnnnnnnnnnnnnnnnnnnnnnnnnn.nn
(PID.TID 0000.0001) //     21 mmm.mmmmmmmmmmmmmmmmmmmmmmmmmmmmmmmmmmmmmmmmmmmmmmmmmmmmmmm.mm
(PID.TID 0000.0001) //     20 mmm.mmmmmmmmmmmmmmmmmmmmmmmmmmmmmmmmmmmmmmmmmmmmmmmmmmmmmmm.mm
(PID.TID 0000.0001) //     19 lll.lllllllllllllllllllllllllllllllllllllllllllllllllllllll.ll
(PID.TID 0000.0001) //     18 kkk.kkkkkkkkkkkkkkkkkkkkkkkkkkkkkkkkkkkkkkkkkkkkkkkkkkkkkkk.kk
(PID.TID 0000.0001) //     17 kkk.kkkkkkkkkkkkkkkkkkkkkkkkkkkkkkkkkkkkkkkkkkkkkkkkkkkkkkk.kk
(PID.TID 0000.0001) //     16 jjj.jjjjjjjjjjjjjjjjjjjjjjjjjjjjjjjjjjjjjjjjjjjjjjjjjjjjjjj.jj
(PID.TID 0000.0001) //     15 iii.iiiiiiiiiiiiiiiiiiiiiiiiiiiiiiiiiiiiiiiiiiiiiiiiiiiiiii.ii
(PID.TID 0000.0001) //     14 hhh.hhhhhhhhhhhhhhhhhhhhhhhhhhhhhhhhhhhhhhhhhhhhhhhhhhhhhhh.hh
(PID.TID 0000.0001) //     13 hhh.hhhhhhhhhhhhhhhhhhhhhhhhhhhhhhhhhhhhhhhhhhhhhhhhhhhhhhh.hh
(PID.TID 0000.0001) //     12 ggg.ggggggggggggggggggggggggggggggggggggggggggggggggggggggg.gg
(PID.TID 0000.0001) //     11 fff.fffffffffffffffffffffffffffffffffffffffffffffffffffffff.ff
(PID.TID 0000.0001) //     10 fff.fffffffffffffffffffffffffffffffffffffffffffffffffffffff.ff
(PID.TID 0000.0001) //      9 eee.eeeeeeeeeeeeeeeeeeeeeeeeeeeeeeeeeeeeeeeeeeeeeeeeeeeeeee.ee
(PID.TID 0000.0001) //      8 ddd.ddddddddddddddddddddddddddddddddddddddddddddddddddddddd.dd
(PID.TID 0000.0001) //      7 ddd.ddddddddddddddddddddddddddddddddddddddddddddddddddddddd.dd
(PID.TID 0000.0001) //      6 ccc.ccccccccccccccccccccccccccccccccccccccccccccccccccccccc.cc
(PID.TID 0000.0001) //      5 bbb.bbbbbbbbbbbbbbbbbbbbbbbbbbbbbbbbbbbbbbbbbbbbbbbbbbbbbbb.bb
(PID.TID 0000.0001) //      4 aaa.aaaaaaaaaaaaaaaaaaaaaaaaaaaaaaaaaaaaaaaaaaaaaaaaaaaaaaa.aa
(PID.TID 0000.0001) //      3 aaa.aaaaaaaaaaaaaaaaaaaaaaaaaaaaaaaaaaaaaaaaaaaaaaaaaaaaaaa.aa
(PID.TID 0000.0001) //      2 ---.-------------------------------------------------------.--
(PID.TID 0000.0001) //      1 ..............................................................
(PID.TID 0000.0001) //      0 ..............................................................
(PID.TID 0000.0001) //     -1 ..............................................................
(PID.TID 0000.0001) //     -2 ..............................................................
(PID.TID 0000.0001) // =======================================================
(PID.TID 0000.0001) // END OF FIELD                                          =
(PID.TID 0000.0001) // =======================================================
(PID.TID 0000.0001) 
(PID.TID 0000.0001) // =======================================================
(PID.TID 0000.0001) // Field hFacC at iteration          0
(PID.TID 0000.0001) // CMIN =          1.000000000000000E+00
(PID.TID 0000.0001) // CMAX =          1.000000000000000E+00
(PID.TID 0000.0001) // CINT =          0.000000000000000E+00
(PID.TID 0000.0001) // SYMBOLS (CMIN->CMAX): -abcdefghijklmnopqrstuvwxyz+
(PID.TID 0000.0001) //                  0.0: .
(PID.TID 0000.0001) // RANGE I (Lo:Hi:Step):(    -2:    53:     1)
(PID.TID 0000.0001) // RANGE J (Lo:Hi:Step):(   103:    -2:    -1)
(PID.TID 0000.0001) // RANGE K (Lo:Hi:Step):(   1:   1:   1)
(PID.TID 0000.0001) // =======================================================
(PID.TID 0000.0001) // =======================================================
(PID.TID 0000.0001) // END OF FIELD                                          =
(PID.TID 0000.0001) // =======================================================
(PID.TID 0000.0001) 
(PID.TID 0000.0001) // =======================================================
(PID.TID 0000.0001) // Field hFacW at iteration          0
(PID.TID 0000.0001) // CMIN =          1.000000000000000E+00
(PID.TID 0000.0001) // CMAX =          1.000000000000000E+00
(PID.TID 0000.0001) // CINT =          0.000000000000000E+00
(PID.TID 0000.0001) // SYMBOLS (CMIN->CMAX): -abcdefghijklmnopqrstuvwxyz+
(PID.TID 0000.0001) //                  0.0: .
(PID.TID 0000.0001) // RANGE I (Lo:Hi:Step):(    -2:    53:     1)
(PID.TID 0000.0001) // RANGE J (Lo:Hi:Step):(   103:    -2:    -1)
(PID.TID 0000.0001) // RANGE K (Lo:Hi:Step):(   1:   1:   1)
(PID.TID 0000.0001) // =======================================================
(PID.TID 0000.0001) // =======================================================
(PID.TID 0000.0001) // END OF FIELD                                          =
(PID.TID 0000.0001) // =======================================================
(PID.TID 0000.0001) 
(PID.TID 0000.0001) // =======================================================
(PID.TID 0000.0001) // Field hFacS at iteration          0
(PID.TID 0000.0001) // CMIN =          1.000000000000000E+00
(PID.TID 0000.0001) // CMAX =          1.000000000000000E+00
(PID.TID 0000.0001) // CINT =          0.000000000000000E+00
(PID.TID 0000.0001) // SYMBOLS (CMIN->CMAX): -abcdefghijklmnopqrstuvwxyz+
(PID.TID 0000.0001) //                  0.0: .
(PID.TID 0000.0001) // RANGE I (Lo:Hi:Step):(    -2:    53:     1)
(PID.TID 0000.0001) // RANGE J (Lo:Hi:Step):(   103:    -2:    -1)
(PID.TID 0000.0001) // RANGE K (Lo:Hi:Step):(   1:   1:   1)
(PID.TID 0000.0001) // =======================================================
(PID.TID 0000.0001) // =======================================================
(PID.TID 0000.0001) // END OF FIELD                                          =
(PID.TID 0000.0001) // =======================================================
(PID.TID 0000.0001) 
(PID.TID 0000.0001) GAD_INIT_FIXED: GAD_OlMinSize=  1  0  1
(PID.TID 0000.0001) 
(PID.TID 0000.0001) // ===================================
(PID.TID 0000.0001) // GAD parameters :
(PID.TID 0000.0001) // ===================================
(PID.TID 0000.0001) tempAdvScheme =   /* Temp. Horiz.Advection scheme selector */
(PID.TID 0000.0001)                       2
(PID.TID 0000.0001)     ;
(PID.TID 0000.0001) tempVertAdvScheme =   /* Temp. Vert. Advection scheme selector */
(PID.TID 0000.0001)                       2
(PID.TID 0000.0001)     ;
(PID.TID 0000.0001) tempMultiDimAdvec =   /* use Muti-Dim Advec method for Temp */
(PID.TID 0000.0001)                   F
(PID.TID 0000.0001)     ;
(PID.TID 0000.0001) tempSOM_Advection = /* use 2nd Order Moment Advection for Temp */
(PID.TID 0000.0001)                   F
(PID.TID 0000.0001)     ;
(PID.TID 0000.0001) AdamsBashforthGt = /* apply Adams-Bashforth extrapolation on Gt */
(PID.TID 0000.0001)                   T
(PID.TID 0000.0001)     ;
(PID.TID 0000.0001) AdamsBashforth_T = /* apply Adams-Bashforth extrapolation on Temp */
(PID.TID 0000.0001)                   F
(PID.TID 0000.0001)     ;
(PID.TID 0000.0001) saltAdvScheme =   /* Salt. Horiz.advection scheme selector */
(PID.TID 0000.0001)                       2
(PID.TID 0000.0001)     ;
(PID.TID 0000.0001) saltVertAdvScheme =   /* Salt. Vert. Advection scheme selector */
(PID.TID 0000.0001)                       2
(PID.TID 0000.0001)     ;
(PID.TID 0000.0001) saltMultiDimAdvec =   /* use Muti-Dim Advec method for Salt */
(PID.TID 0000.0001)                   F
(PID.TID 0000.0001)     ;
(PID.TID 0000.0001) saltSOM_Advection = /* use 2nd Order Moment Advection for Salt */
(PID.TID 0000.0001)                   F
(PID.TID 0000.0001)     ;
(PID.TID 0000.0001) AdamsBashforthGs = /* apply Adams-Bashforth extrapolation on Gs */
(PID.TID 0000.0001)                   T
(PID.TID 0000.0001)     ;
(PID.TID 0000.0001) AdamsBashforth_S = /* apply Adams-Bashforth extrapolation on Salt */
(PID.TID 0000.0001)                   F
(PID.TID 0000.0001)     ;
(PID.TID 0000.0001) // ===================================
(PID.TID 0000.0001)  MDS_READ_FIELD: opening global file: iceShelf_Mass.obcs
(PID.TID 0000.0001)  MDS_WRITE_FIELD: it,rec,kS,kL,kH=       0     1   1   1   1 file=shelficemassinit
(PID.TID 0000.0001)  MDS_WRITE_FIELD: it,rec,kS,kL,kH=      -1     1   1   1   1 file=SHICE_pLoadAnom
(PID.TID 0000.0001)  MDS_READ_FIELD: opening global file: iceShelf_MassTend.obcs
(PID.TID 0000.0001) ------------------------------------------------------------
(PID.TID 0000.0001) DIAGNOSTICS_SET_LEVELS: done
(PID.TID 0000.0001)  Total Nb of available Diagnostics: ndiagt=   205
(PID.TID 0000.0001)  write list of available Diagnostics to file: available_diagnostics.log
(PID.TID 0000.0001) SETDIAG: Allocate 30 x  1 Levels for Diagnostic #    30 UVEL
(PID.TID 0000.0001) SETDIAG: Allocate 30 x  1 Levels for Diagnostic #    31 VVEL
(PID.TID 0000.0001) SETDIAG: Allocate 30 x  1 Levels for Diagnostic #    32 WVEL
(PID.TID 0000.0001) SETDIAG: Allocate 30 x  1 Levels for Diagnostic #    71 PHIHYD
(PID.TID 0000.0001) SETDIAG: Allocate 30 x  1 Levels for Diagnostic #    46 VVELMASS
(PID.TID 0000.0001) SETDIAG: Allocate 30 x  1 Levels for Diagnostic #    45 UVELMASS
(PID.TID 0000.0001) SETDIAG: Allocate 30 x  1 Levels for Diagnostic #    38 WVELSQ
(PID.TID 0000.0001) SETDIAG: Allocate 30 x  1 Levels for Diagnostic #    26 THETA
(PID.TID 0000.0001) SETDIAG: Allocate 30 x  1 Levels for Diagnostic #    27 SALT
(PID.TID 0000.0001) SETDIAG: Allocate 30 x  1 Levels for Diagnostic #   198 SHIUDrag
(PID.TID 0000.0001) SETDIAG: Allocate 30 x  1 Levels for Diagnostic #   199 SHIVDrag
(PID.TID 0000.0001)   space allocated for all diagnostics:     330 levels
(PID.TID 0000.0001)   set mate pointer for diag #    30  UVEL     , Parms: UUR     MR , mate:    31
(PID.TID 0000.0001)   set mate pointer for diag #    31  VVEL     , Parms: VVR     MR , mate:    30
(PID.TID 0000.0001)   set mate pointer for diag #    46  VVELMASS , Parms: VVr     MR , mate:    45
(PID.TID 0000.0001)   set mate pointer for diag #    45  UVELMASS , Parms: UUr     MR , mate:    46
(PID.TID 0000.0001)   set mate pointer for diag #   198  SHIUDrag , Parms: UU      MR , mate:   199
(PID.TID 0000.0001)   set mate pointer for diag #   199  SHIVDrag , Parms: VV      MR , mate:   198
(PID.TID 0000.0001) DIAGNOSTICS_SET_POINTERS: Set levels for Outp.Stream: dynDiag
(PID.TID 0000.0001)  Levels:       1.   2.   3.   4.   5.   6.   7.   8.   9.  10.  11.  12.  13.  14.  15.  16.  17.  18.  19.  20.
(PID.TID 0000.0001)  Levels:      21.  22.  23.  24.  25.  26.  27.  28.  29.  30.
(PID.TID 0000.0001) DIAGNOSTICS_SET_POINTERS: done
(PID.TID 0000.0001) ------------------------------------------------------------
 DIAGSTATS_SET_REGIONS: start reading region-mask file: iceMask.obcs
 DIAGSTATS_SET_REGIONS:  reading set k=  1
(PID.TID 0000.0001)  MDS_READ_FIELD: opening global file: iceMask.obcs
 DIAGSTATS_SET_REGIONS:          set k=  1 <= done
(PID.TID 0000.0001) DIAGSTATS_SET_REGIONS: define   2 regions:  1  2
(PID.TID 0000.0001) ------------------------------------------------------------
(PID.TID 0000.0001) SETDIAG: Allocate  1 Levels for Stats-Diag #    23 ETAN
(PID.TID 0000.0001) SETDIAG: Allocate 30 Levels for Stats-Diag #    30 UVEL
(PID.TID 0000.0001) SETDIAG: Allocate 30 Levels for Stats-Diag #    31 VVEL
(PID.TID 0000.0001) SETDIAG: Allocate 30 Levels for Stats-Diag #    32 WVEL
(PID.TID 0000.0001) SETDIAG: Allocate 30 Levels for Stats-Diag #    26 THETA
(PID.TID 0000.0001) SETDIAG: Allocate 30 Levels for Stats-Diag #    27 SALT
(PID.TID 0000.0001)   space allocated for all stats-diags:     151 levels
(PID.TID 0000.0001) DIAGSTATS_SET_POINTERS: done
(PID.TID 0000.0001) ------------------------------------------------------------
(PID.TID 0000.0001) DIAGSTATS_INI_IO: open file: dynStDiag.0000000000.txt , unit=     9
(PID.TID 0000.0001) %MON fCori_max                    =  -1.3709057042516E-04
(PID.TID 0000.0001) %MON fCori_min                    =  -1.4360464034757E-04
(PID.TID 0000.0001) %MON fCori_mean                   =  -1.4069429304698E-04
(PID.TID 0000.0001) %MON fCori_sd                     =   1.9069739624987E-06
(PID.TID 0000.0001) %MON fCoriG_max                   =  -1.3713394327439E-04
(PID.TID 0000.0001) %MON fCoriG_min                   =  -1.4362679550910E-04
(PID.TID 0000.0001) %MON fCoriG_mean                  =  -1.4072713798624E-04
(PID.TID 0000.0001) %MON fCoriG_sd                    =   1.9008093726821E-06
(PID.TID 0000.0001) %MON fCoriCos_max                 =   4.9761447480159E-05
(PID.TID 0000.0001) %MON fCoriCos_min                 =   2.5450607565678E-05
(PID.TID 0000.0001) %MON fCoriCos_mean                =   3.7698922201606E-05
(PID.TID 0000.0001) %MON fCoriCos_sd                  =   7.0920218535055E-06
(PID.TID 0000.0001) INI_CG2D: CG2D normalisation factor =  8.6553958581495505E-04
(PID.TID 0000.0001) 
(PID.TID 0000.0001) // =======================================================
(PID.TID 0000.0001) // Model configuration
(PID.TID 0000.0001) // =======================================================
(PID.TID 0000.0001) //
(PID.TID 0000.0001) // "Physical" paramters ( PARM01 in namelist )
(PID.TID 0000.0001) //
(PID.TID 0000.0001) buoyancyRelation = /* Type of relation to get Buoyancy */
(PID.TID 0000.0001)               'OCEANIC'
(PID.TID 0000.0001)     ;
(PID.TID 0000.0001) fluidIsAir   =  /* fluid major constituent is Air */
(PID.TID 0000.0001)                   F
(PID.TID 0000.0001)     ;
(PID.TID 0000.0001) fluidIsWater =  /* fluid major constituent is Water */
(PID.TID 0000.0001)                   T
(PID.TID 0000.0001)     ;
(PID.TID 0000.0001) usingPCoords =  /* use p (or p*) vertical coordinate */
(PID.TID 0000.0001)                   F
(PID.TID 0000.0001)     ;
(PID.TID 0000.0001) usingZCoords =  /* use z (or z*) vertical coordinate */
(PID.TID 0000.0001)                   T
(PID.TID 0000.0001)     ;
(PID.TID 0000.0001) tRef =   /* Reference temperature profile ( oC or K ) */
(PID.TID 0000.0001)    30 @ -1.900000000000000E+00              /* K =  1: 30 */
(PID.TID 0000.0001)     ;
(PID.TID 0000.0001) sRef =   /* Reference salinity profile ( psu ) */
(PID.TID 0000.0001)    30 @  3.440000000000000E+01              /* K =  1: 30 */
(PID.TID 0000.0001)     ;
(PID.TID 0000.0001) useStrainTensionVisc= /* Use StrainTension Form of Viscous Operator */
(PID.TID 0000.0001)                   F
(PID.TID 0000.0001)     ;
(PID.TID 0000.0001) useVariableVisc = /* Use variable horizontal viscosity */
(PID.TID 0000.0001)                   F
(PID.TID 0000.0001)     ;
(PID.TID 0000.0001) useHarmonicVisc = /* Use harmonic horizontal viscosity */
(PID.TID 0000.0001)                   T
(PID.TID 0000.0001)     ;
(PID.TID 0000.0001) useBiharmonicVisc= /* Use biharmonic horiz.  viscosity */
(PID.TID 0000.0001)                   F
(PID.TID 0000.0001)     ;
(PID.TID 0000.0001) useSmag3D = /* Use isotropic 3-D Smagorinsky viscosity */
(PID.TID 0000.0001)                   F
(PID.TID 0000.0001)     ;
(PID.TID 0000.0001) viscAh  =   /* Lateral harmonic viscosity ( m^2/s ) */
(PID.TID 0000.0001)                 6.000000000000000E+02
(PID.TID 0000.0001)     ;
(PID.TID 0000.0001) viscA4  =   /* Lateral biharmonic viscosity ( m^4/s ) */
(PID.TID 0000.0001)                 0.000000000000000E+00
(PID.TID 0000.0001)     ;
(PID.TID 0000.0001) no_slip_sides =  /* Viscous BCs: No-slip sides */
(PID.TID 0000.0001)                   F
(PID.TID 0000.0001)     ;
(PID.TID 0000.0001) sideDragFactor = /* side-drag scaling factor (non-dim) */
(PID.TID 0000.0001)                 2.000000000000000E+00
(PID.TID 0000.0001)     ;
(PID.TID 0000.0001) viscArNr = /* vertical profile of vertical viscosity ( m^2/s )*/
(PID.TID 0000.0001)    30 @  1.000000000000000E-03              /* K =  1: 30 */
(PID.TID 0000.0001)     ;
(PID.TID 0000.0001) no_slip_bottom =  /* Viscous BCs: No-slip bottom */
(PID.TID 0000.0001)                   F
(PID.TID 0000.0001)     ;
(PID.TID 0000.0001) bottomVisc_pCell = /* Partial-cell in bottom Visc. BC */
(PID.TID 0000.0001)                   F
(PID.TID 0000.0001)     ;
(PID.TID 0000.0001) bottomDragLinear = /* linear bottom-drag coefficient ( m/s ) */
(PID.TID 0000.0001)                 0.000000000000000E+00
(PID.TID 0000.0001)     ;
(PID.TID 0000.0001) bottomDragQuadratic = /* quadratic bottom-drag coefficient (-) */
(PID.TID 0000.0001)                 2.500000000000000E-03
(PID.TID 0000.0001)     ;
(PID.TID 0000.0001) selectBotDragQuadr = /* select quadratic bottom drag options */
(PID.TID 0000.0001)                       0
(PID.TID 0000.0001)     ;
(PID.TID 0000.0001) diffKhT =   /* Laplacian diffusion of heat laterally ( m^2/s ) */
(PID.TID 0000.0001)                 1.000000000000000E+02
(PID.TID 0000.0001)     ;
(PID.TID 0000.0001) diffK4T =   /* Biharmonic diffusion of heat laterally ( m^4/s ) */
(PID.TID 0000.0001)                 0.000000000000000E+00
(PID.TID 0000.0001)     ;
(PID.TID 0000.0001) diffKhS =   /* Laplacian diffusion of salt laterally ( m^2/s ) */
(PID.TID 0000.0001)                 1.000000000000000E+02
(PID.TID 0000.0001)     ;
(PID.TID 0000.0001) diffK4S =   /* Biharmonic diffusion of salt laterally ( m^4/s ) */
(PID.TID 0000.0001)                 0.000000000000000E+00
(PID.TID 0000.0001)     ;
(PID.TID 0000.0001) diffKrNrT = /* vertical profile of vertical diffusion of Temp ( m^2/s )*/
(PID.TID 0000.0001)    30 @  5.000000000000000E-05              /* K =  1: 30 */
(PID.TID 0000.0001)     ;
(PID.TID 0000.0001) diffKrNrS = /* vertical profile of vertical diffusion of Salt ( m^2/s )*/
(PID.TID 0000.0001)    30 @  5.000000000000000E-05              /* K =  1: 30 */
(PID.TID 0000.0001)     ;
(PID.TID 0000.0001) diffKrBL79surf = /* Surface diffusion for Bryan and Lewis 79 ( m^2/s ) */
(PID.TID 0000.0001)                 0.000000000000000E+00
(PID.TID 0000.0001)     ;
(PID.TID 0000.0001) diffKrBL79deep = /* Deep diffusion for Bryan and Lewis 1979 ( m^2/s ) */
(PID.TID 0000.0001)                 0.000000000000000E+00
(PID.TID 0000.0001)     ;
(PID.TID 0000.0001) diffKrBL79scl = /* Depth scale for Bryan and Lewis 1979 ( m ) */
(PID.TID 0000.0001)                 2.000000000000000E+02
(PID.TID 0000.0001)     ;
(PID.TID 0000.0001) diffKrBL79Ho = /* Turning depth for Bryan and Lewis 1979 ( m ) */
(PID.TID 0000.0001)                -2.000000000000000E+03
(PID.TID 0000.0001)     ;
(PID.TID 0000.0001) ivdc_kappa = /* Implicit Vertical Diffusivity for Convection ( m^2/s) */
(PID.TID 0000.0001)                 0.000000000000000E+00
(PID.TID 0000.0001)     ;
(PID.TID 0000.0001) hMixCriteria=  /* Criteria for mixed-layer diagnostic */
(PID.TID 0000.0001)                -8.000000000000000E-01
(PID.TID 0000.0001)     ;
(PID.TID 0000.0001) dRhoSmall =  /* Parameter for mixed-layer diagnostic */
(PID.TID 0000.0001)                 1.000000000000000E-06
(PID.TID 0000.0001)     ;
(PID.TID 0000.0001) hMixSmooth=  /* Smoothing parameter for mixed-layer diagnostic */
(PID.TID 0000.0001)                 0.000000000000000E+00
(PID.TID 0000.0001)     ;
(PID.TID 0000.0001) eosType =  /* Type of Equation of State */
(PID.TID 0000.0001)               'JMD95Z'
(PID.TID 0000.0001)     ;
(PID.TID 0000.0001) selectP_inEOS_Zc = /* select pressure to use in EOS (0,1,2,3) */
(PID.TID 0000.0001)                       0
(PID.TID 0000.0001)     0= -g*rhoConst*z ; 1= pRef (from tRef,sRef); 2= Hyd P ; 3= Hyd+NH P
(PID.TID 0000.0001)     ;
(PID.TID 0000.0001) HeatCapacity_Cp =  /* Specific heat capacity ( J/kg/K ) */
(PID.TID 0000.0001)                 3.974000000000000E+03
(PID.TID 0000.0001)     ;
(PID.TID 0000.0001) celsius2K = /* 0 degree Celsius converted to Kelvin ( K ) */
(PID.TID 0000.0001)                 2.731500000000000E+02
(PID.TID 0000.0001)     ;
(PID.TID 0000.0001) rhoConst  = /* Reference density (Boussinesq)  ( kg/m^3 ) */
(PID.TID 0000.0001)                 1.030000000000000E+03
(PID.TID 0000.0001)     ;
(PID.TID 0000.0001) rhoFacC = /* normalized Reference density @ cell-Center (-) */
(PID.TID 0000.0001)    30 @  1.000000000000000E+00              /* K =  1: 30 */
(PID.TID 0000.0001)     ;
(PID.TID 0000.0001) rhoFacF = /* normalized Reference density @ W-Interface (-) */
(PID.TID 0000.0001)    31 @  1.000000000000000E+00              /* K =  1: 31 */
(PID.TID 0000.0001)     ;
(PID.TID 0000.0001) rhoConstFresh = /* Fresh-water reference density ( kg/m^3 ) */
(PID.TID 0000.0001)                 1.030000000000000E+03
(PID.TID 0000.0001)     ;
(PID.TID 0000.0001) gravity =   /* Gravitational acceleration ( m/s^2 ) */
(PID.TID 0000.0001)                 9.810000000000000E+00
(PID.TID 0000.0001)     ;
(PID.TID 0000.0001) gBaro =   /* Barotropic gravity ( m/s^2 ) */
(PID.TID 0000.0001)                 9.810000000000000E+00
(PID.TID 0000.0001)     ;
(PID.TID 0000.0001) gravFacC = /* gravity factor (vs surf.) @ cell-Center (-) */
(PID.TID 0000.0001)    30 @  1.000000000000000E+00              /* K =  1: 30 */
(PID.TID 0000.0001)     ;
(PID.TID 0000.0001) gravFacF = /* gravity factor (vs surf.) @ W-Interface (-) */
(PID.TID 0000.0001)    31 @  1.000000000000000E+00              /* K =  1: 31 */
(PID.TID 0000.0001)     ;
(PID.TID 0000.0001) rotationPeriod =   /* Rotation Period ( s ) */
(PID.TID 0000.0001)                 8.616400000000000E+04
(PID.TID 0000.0001)     ;
(PID.TID 0000.0001) omega =   /* Angular velocity ( rad/s ) */
(PID.TID 0000.0001)                 7.292123516990375E-05
(PID.TID 0000.0001)     ;
(PID.TID 0000.0001) f0 =   /* Reference coriolis parameter ( 1/s ) */
(PID.TID 0000.0001)                 1.000000000000000E-04
(PID.TID 0000.0001)     ;
(PID.TID 0000.0001) beta =   /* Beta ( 1/(m.s) ) */
(PID.TID 0000.0001)                 9.999999999999999E-12
(PID.TID 0000.0001)     ;
(PID.TID 0000.0001) fPrime =   /* Second coriolis parameter ( 1/s ) */
(PID.TID 0000.0001)                 0.000000000000000E+00
(PID.TID 0000.0001)     ;
(PID.TID 0000.0001) rigidLid =   /* Rigid lid on/off flag */
(PID.TID 0000.0001)                   F
(PID.TID 0000.0001)     ;
(PID.TID 0000.0001) implicitFreeSurface =   /* Implicit free surface on/off flag */
(PID.TID 0000.0001)                   T
(PID.TID 0000.0001)     ;
(PID.TID 0000.0001) freeSurfFac =   /* Implicit free surface factor */
(PID.TID 0000.0001)                 1.000000000000000E+00
(PID.TID 0000.0001)     ;
(PID.TID 0000.0001) implicSurfPress =  /* Surface Pressure implicit factor (0-1)*/
(PID.TID 0000.0001)                 1.000000000000000E+00
(PID.TID 0000.0001)     ;
(PID.TID 0000.0001) implicDiv2DFlow =  /* Barot. Flow Div. implicit factor (0-1)*/
(PID.TID 0000.0001)                 1.000000000000000E+00
(PID.TID 0000.0001)     ;
(PID.TID 0000.0001) uniformLin_PhiSurf = /* use uniform Bo_surf on/off flag*/
(PID.TID 0000.0001)                   T
(PID.TID 0000.0001)     ;
(PID.TID 0000.0001) uniformFreeSurfLev = /* free-surface level-index is uniform */
(PID.TID 0000.0001)                   F
(PID.TID 0000.0001)     ;
(PID.TID 0000.0001) hFacMin =   /* minimum partial cell factor (hFac) */
(PID.TID 0000.0001)                 5.000000000000000E-02
(PID.TID 0000.0001)     ;
(PID.TID 0000.0001) hFacMinDr = /* minimum partial cell thickness ( m) */
(PID.TID 0000.0001)                 0.000000000000000E+00
(PID.TID 0000.0001)     ;
(PID.TID 0000.0001) exactConserv =  /* Exact Volume Conservation on/off flag*/
(PID.TID 0000.0001)                   T
(PID.TID 0000.0001)     ;
(PID.TID 0000.0001) linFSConserveTr = /* Tracer correction for Lin Free Surface on/off flag*/
(PID.TID 0000.0001)                   F
(PID.TID 0000.0001)     ;
(PID.TID 0000.0001) nonlinFreeSurf = /* Non-linear Free Surf. options (-1,0,1,2,3)*/
(PID.TID 0000.0001)                       4
(PID.TID 0000.0001)      -1,0= Off ; 1,2,3= On, 2=+rescale gU,gV, 3=+update cg2d solv.
(PID.TID 0000.0001)     ;
(PID.TID 0000.0001) hFacInf =   /* lower threshold for hFac (nonlinFreeSurf only)*/
(PID.TID 0000.0001)                 2.000000000000000E-02
(PID.TID 0000.0001)     ;
(PID.TID 0000.0001) hFacSup =   /* upper threshold for hFac (nonlinFreeSurf only)*/
(PID.TID 0000.0001)                 2.000000000000000E+00
(PID.TID 0000.0001)     ;
(PID.TID 0000.0001) select_rStar = /* r* Vertical coord. options (=0 r coord.; >0 uses r*)*/
(PID.TID 0000.0001)                       2
(PID.TID 0000.0001)     ;
(PID.TID 0000.0001) useRealFreshWaterFlux = /* Real Fresh Water Flux on/off flag*/
(PID.TID 0000.0001)                   T
(PID.TID 0000.0001)     ;
(PID.TID 0000.0001) temp_EvPrRn = /* Temp. of Evap/Prec/R (UNSET=use local T)(oC)*/
(PID.TID 0000.0001)                 1.234567000000000E+05
(PID.TID 0000.0001)     ;
(PID.TID 0000.0001) salt_EvPrRn = /* Salin. of Evap/Prec/R (UNSET=use local S)(psu)*/
(PID.TID 0000.0001)                 0.000000000000000E+00
(PID.TID 0000.0001)     ;
(PID.TID 0000.0001) selectAddFluid = /* option for mass source/sink of fluid (=0: off) */
(PID.TID 0000.0001)                       0
(PID.TID 0000.0001)     ;
(PID.TID 0000.0001) temp_addMass = /* Temp. of addMass array (UNSET=use local T)(oC)*/
(PID.TID 0000.0001)                 1.234567000000000E+05
(PID.TID 0000.0001)     ;
(PID.TID 0000.0001) salt_addMass = /* Salin. of addMass array (UNSET=use local S)(psu)*/
(PID.TID 0000.0001)                 0.000000000000000E+00
(PID.TID 0000.0001)     ;
(PID.TID 0000.0001) use3Dsolver = /* use 3-D pressure solver on/off flag */
(PID.TID 0000.0001)                   F
(PID.TID 0000.0001)     ;
(PID.TID 0000.0001) nonHydrostatic =  /* Non-Hydrostatic on/off flag */
(PID.TID 0000.0001)                   F
(PID.TID 0000.0001)     ;
(PID.TID 0000.0001) nh_Am2 = /* Non-Hydrostatic terms scaling factor */
(PID.TID 0000.0001)                 1.000000000000000E+00
(PID.TID 0000.0001)     ;
(PID.TID 0000.0001) implicitNHPress = /* Non-Hyd Pressure implicit factor (0-1)*/
(PID.TID 0000.0001)                 1.000000000000000E+00
(PID.TID 0000.0001)     ;
(PID.TID 0000.0001) selectNHfreeSurf = /* Non-Hyd (free-)Surface option */
(PID.TID 0000.0001)                       0
(PID.TID 0000.0001)     ;
(PID.TID 0000.0001) quasiHydrostatic = /* Quasi-Hydrostatic on/off flag */
(PID.TID 0000.0001)                   F
(PID.TID 0000.0001)     ;
(PID.TID 0000.0001) calc_wVelocity = /* vertical velocity calculation on/off flag */
(PID.TID 0000.0001)                   T
(PID.TID 0000.0001)     ;
(PID.TID 0000.0001) momStepping =  /* Momentum equation on/off flag */
(PID.TID 0000.0001)                   T
(PID.TID 0000.0001)     ;
(PID.TID 0000.0001) vectorInvariantMomentum= /* Vector-Invariant Momentum on/off */
(PID.TID 0000.0001)                   F
(PID.TID 0000.0001)     ;
(PID.TID 0000.0001) momAdvection =  /* Momentum advection on/off flag */
(PID.TID 0000.0001)                   T
(PID.TID 0000.0001)     ;
(PID.TID 0000.0001) momViscosity =  /* Momentum viscosity on/off flag */
(PID.TID 0000.0001)                   T
(PID.TID 0000.0001)     ;
(PID.TID 0000.0001) momImplVertAdv= /* Momentum implicit vert. advection on/off*/
(PID.TID 0000.0001)                   F
(PID.TID 0000.0001)     ;
(PID.TID 0000.0001) implicitViscosity = /* Implicit viscosity on/off flag */
(PID.TID 0000.0001)                   F
(PID.TID 0000.0001)     ;
(PID.TID 0000.0001) selectImplicitDrag= /* Implicit bot Drag options (0,1,2)*/
(PID.TID 0000.0001)                       0
(PID.TID 0000.0001)     0= Expl. ; 1= Impl. on provis. Vel ; 2= Fully Impl (with surf.P)
(PID.TID 0000.0001)     ;
(PID.TID 0000.0001) metricTerms =  /* metric-Terms on/off flag */
(PID.TID 0000.0001)                   T
(PID.TID 0000.0001)     ;
(PID.TID 0000.0001) useNHMTerms = /* Non-Hydrostatic Metric-Terms on/off */
(PID.TID 0000.0001)                   F
(PID.TID 0000.0001)     ;
(PID.TID 0000.0001) selectCoriMap = /* Coriolis Map options (0,1,2,3)*/
(PID.TID 0000.0001)                       2
(PID.TID 0000.0001)     0= f-Plane ; 1= Beta-Plane ; 2= Spherical ; 3= read from file
(PID.TID 0000.0001)     ;
(PID.TID 0000.0001) use3dCoriolis = /* 3-D Coriolis on/off flag */
(PID.TID 0000.0001)                   F
(PID.TID 0000.0001)     ;
(PID.TID 0000.0001) useCoriolis =  /* Coriolis on/off flag */
(PID.TID 0000.0001)                   T
(PID.TID 0000.0001)     ;
(PID.TID 0000.0001) useCDscheme =  /* CD scheme on/off flag */
(PID.TID 0000.0001)                   F
(PID.TID 0000.0001)     ;
(PID.TID 0000.0001) useEnergyConservingCoriolis= /* Flx-Form Coriolis scheme flag */
(PID.TID 0000.0001)                   F
(PID.TID 0000.0001)     ;
(PID.TID 0000.0001) useJamartWetPoints= /* Coriolis WetPoints method flag */
(PID.TID 0000.0001)                   F
(PID.TID 0000.0001)     ;
(PID.TID 0000.0001) useJamartMomAdv= /* V.I Non-linear terms Jamart flag */
(PID.TID 0000.0001)                   F
(PID.TID 0000.0001)     ;
(PID.TID 0000.0001) useAbsVorticity= /* V.I Works with f+zeta in Coriolis */
(PID.TID 0000.0001)                   F
(PID.TID 0000.0001)     ;
(PID.TID 0000.0001) selectVortScheme= /* V.I Scheme selector for Vorticity-Term */
(PID.TID 0000.0001)               123456789
(PID.TID 0000.0001)    = 0 : enstrophy (Shallow-Water Eq.) conserving scheme by Sadourny, JAS 75
(PID.TID 0000.0001)    = 1 : same as 0 with modified hFac
(PID.TID 0000.0001)    = 2 : energy conserving scheme (used by Sadourny in JAS 75 paper)
(PID.TID 0000.0001)    = 3 : energy (general) and enstrophy (2D, nonDiv.) conserving scheme
(PID.TID 0000.0001)          from Sadourny (Burridge & Haseler, ECMWF Rep.4, 1977)
(PID.TID 0000.0001)     ;
(PID.TID 0000.0001) upwindVorticity= /* V.I Upwind bias vorticity flag */
(PID.TID 0000.0001)                   F
(PID.TID 0000.0001)     ;
(PID.TID 0000.0001) highOrderVorticity= /* V.I High order vort. advect. flag */
(PID.TID 0000.0001)                   F
(PID.TID 0000.0001)     ;
(PID.TID 0000.0001) upwindShear= /* V.I Upwind vertical Shear advection flag */
(PID.TID 0000.0001)                   F
(PID.TID 0000.0001)     ;
(PID.TID 0000.0001) selectKEscheme= /* V.I Kinetic Energy scheme selector */
(PID.TID 0000.0001)                       0
(PID.TID 0000.0001)     ;
(PID.TID 0000.0001) momForcing =  /* Momentum forcing on/off flag */
(PID.TID 0000.0001)                   T
(PID.TID 0000.0001)     ;
(PID.TID 0000.0001) momTidalForcing = /* Momentum Tidal forcing on/off flag */
(PID.TID 0000.0001)                   T
(PID.TID 0000.0001)     ;
(PID.TID 0000.0001) momPressureForcing =  /* Momentum pressure term on/off flag */
(PID.TID 0000.0001)                   T
(PID.TID 0000.0001)     ;
(PID.TID 0000.0001) implicitIntGravWave= /* Implicit Internal Gravity Wave flag */
(PID.TID 0000.0001)                   F
(PID.TID 0000.0001)     ;
(PID.TID 0000.0001) staggerTimeStep =    /* Stagger time stepping on/off flag */
(PID.TID 0000.0001)                   F
(PID.TID 0000.0001)     ;
(PID.TID 0000.0001) doResetHFactors = /* reset thickness factors @ each time-step */
(PID.TID 0000.0001)                   F
(PID.TID 0000.0001)     ;
(PID.TID 0000.0001) multiDimAdvection =  /* enable/disable Multi-Dim Advection */
(PID.TID 0000.0001)                   T
(PID.TID 0000.0001)     ;
(PID.TID 0000.0001) useMultiDimAdvec =   /* Multi-Dim Advection is/is-not used */
(PID.TID 0000.0001)                   F
(PID.TID 0000.0001)     ;
(PID.TID 0000.0001) implicitDiffusion = /* Implicit Diffusion on/off flag */
(PID.TID 0000.0001)                   F
(PID.TID 0000.0001)     ;
(PID.TID 0000.0001) tempStepping =  /* Temperature equation on/off flag */
(PID.TID 0000.0001)                   T
(PID.TID 0000.0001)     ;
(PID.TID 0000.0001) tempAdvection = /* Temperature advection on/off flag */
(PID.TID 0000.0001)                   T
(PID.TID 0000.0001)     ;
(PID.TID 0000.0001) tempImplVertAdv = /* Temp. implicit vert. advection on/off */
(PID.TID 0000.0001)                   F
(PID.TID 0000.0001)     ;
(PID.TID 0000.0001) tempForcing  =  /* Temperature forcing on/off flag */
(PID.TID 0000.0001)                   T
(PID.TID 0000.0001)     ;
(PID.TID 0000.0001) doThetaClimRelax = /* apply SST relaxation on/off flag */
(PID.TID 0000.0001)                   F
(PID.TID 0000.0001)     ;
(PID.TID 0000.0001) tempIsActiveTr = /* Temp. is a dynamically Active Tracer */
(PID.TID 0000.0001)                   T
(PID.TID 0000.0001)     ;
(PID.TID 0000.0001) saltStepping =  /* Salinity equation on/off flag */
(PID.TID 0000.0001)                   T
(PID.TID 0000.0001)     ;
(PID.TID 0000.0001) saltAdvection = /* Salinity advection on/off flag */
(PID.TID 0000.0001)                   T
(PID.TID 0000.0001)     ;
(PID.TID 0000.0001) saltImplVertAdv = /* Sali. implicit vert. advection on/off */
(PID.TID 0000.0001)                   F
(PID.TID 0000.0001)     ;
(PID.TID 0000.0001) saltForcing  =  /* Salinity forcing on/off flag */
(PID.TID 0000.0001)                   T
(PID.TID 0000.0001)     ;
(PID.TID 0000.0001) doSaltClimRelax = /* apply SSS relaxation on/off flag */
(PID.TID 0000.0001)                   F
(PID.TID 0000.0001)     ;
(PID.TID 0000.0001) saltIsActiveTr = /* Salt  is a dynamically Active Tracer */
(PID.TID 0000.0001)                   T
(PID.TID 0000.0001)     ;
(PID.TID 0000.0001)  readBinaryPrec = /* Precision used for reading binary files */
(PID.TID 0000.0001)                      64
(PID.TID 0000.0001)     ;
(PID.TID 0000.0001) writeBinaryPrec = /* Precision used for writing binary files */
(PID.TID 0000.0001)                      32
(PID.TID 0000.0001)     ;
(PID.TID 0000.0001)  rwSuffixType =   /* select format of mds file suffix */
(PID.TID 0000.0001)                       0
(PID.TID 0000.0001)    = 0 : myIter (I10.10) ;   = 1 : 100*myTime (100th sec) ;
(PID.TID 0000.0001)    = 2 : myTime (seconds);   = 3 : myTime/360 (10th of hr);
(PID.TID 0000.0001)    = 4 : myTime/3600 (hours)
(PID.TID 0000.0001)     ;
(PID.TID 0000.0001)  globalFiles = /* write "global" (=not per tile) files */
(PID.TID 0000.0001)                   F
(PID.TID 0000.0001)     ;
(PID.TID 0000.0001)  useSingleCpuIO = /* only master MPI process does I/O */
(PID.TID 0000.0001)                   T
(PID.TID 0000.0001)     ;
(PID.TID 0000.0001)  useSingleCpuInput = /* only master process reads input */
(PID.TID 0000.0001)                   T
(PID.TID 0000.0001)     ;
(PID.TID 0000.0001) /* debLev[*]  : level of debug & auxiliary message printing */
(PID.TID 0000.0001) debLevZero =  0 ; /* level of disabled aux. msg printing */
(PID.TID 0000.0001)    debLevA =  1 ; /* level of minimum  aux. msg printing */
(PID.TID 0000.0001)    debLevB =  2 ; /* level of low aux. print (report read-file opening)*/
(PID.TID 0000.0001)    debLevC =  3 ; /* level of moderate debug prt (most pkgs debug msg) */
(PID.TID 0000.0001)    debLevD =  4 ; /* level of enhanced debug prt (add DEBUG_STATS prt) */
(PID.TID 0000.0001)    debLevE =  5 ; /* level of extensive debug printing */
(PID.TID 0000.0001) debugLevel =  /* select debug printing level */
(PID.TID 0000.0001)                       3
(PID.TID 0000.0001)     ;
(PID.TID 0000.0001)  plotLevel =  /* select PLOT_FIELD printing level */
(PID.TID 0000.0001)                       3
(PID.TID 0000.0001)     ;
(PID.TID 0000.0001) //
(PID.TID 0000.0001) // Elliptic solver(s) paramters ( PARM02 in namelist )
(PID.TID 0000.0001) //
(PID.TID 0000.0001) cg2dMaxIters =   /* Upper limit on 2d con. grad iterations  */
(PID.TID 0000.0001)                    1000
(PID.TID 0000.0001)     ;
(PID.TID 0000.0001) cg2dChkResFreq =   /* 2d con. grad convergence test frequency */
(PID.TID 0000.0001)                       1
(PID.TID 0000.0001)     ;
(PID.TID 0000.0001) cg2dUseMinResSol= /* use cg2d last-iter(=0) / min-resid.(=1) solution */
(PID.TID 0000.0001)                       0
(PID.TID 0000.0001)     ;
(PID.TID 0000.0001) cg2dTargetResidual =   /* 2d con. grad target residual  */
(PID.TID 0000.0001)                 1.000000000000000E-13
(PID.TID 0000.0001)     ;
(PID.TID 0000.0001) cg2dTargetResWunit =   /* CG2d target residual [W units] */
(PID.TID 0000.0001)                -1.000000000000000E+00
(PID.TID 0000.0001)     ;
(PID.TID 0000.0001) cg2dPreCondFreq =   /* Freq. for updating cg2d preconditioner */
(PID.TID 0000.0001)                       1
(PID.TID 0000.0001)     ;
(PID.TID 0000.0001) useSRCGSolver =  /* use single reduction CG solver(s) */
(PID.TID 0000.0001)                   F
(PID.TID 0000.0001)     ;
(PID.TID 0000.0001) printResidualFreq = /* Freq. for printing CG residual */
(PID.TID 0000.0001)                       0
(PID.TID 0000.0001)     ;
(PID.TID 0000.0001) //
(PID.TID 0000.0001) // Time stepping paramters ( PARM03 in namelist )
(PID.TID 0000.0001) //
(PID.TID 0000.0001) deltaTMom =   /* Momentum equation timestep ( s ) */
(PID.TID 0000.0001)                 1.800000000000000E+03
(PID.TID 0000.0001)     ;
(PID.TID 0000.0001) deltaTFreeSurf = /* FreeSurface equation timestep ( s ) */
(PID.TID 0000.0001)                 1.800000000000000E+03
(PID.TID 0000.0001)     ;
(PID.TID 0000.0001) dTtracerLev =  /* Tracer equation timestep ( s ) */
(PID.TID 0000.0001)    30 @  1.800000000000000E+03              /* K =  1: 30 */
(PID.TID 0000.0001)     ;
(PID.TID 0000.0001) deltaTClock  =   /* Model clock timestep ( s ) */
(PID.TID 0000.0001)                 1.800000000000000E+03
(PID.TID 0000.0001)     ;
(PID.TID 0000.0001) cAdjFreq =   /* Convective adjustment interval ( s ) */
(PID.TID 0000.0001)                 1.800000000000000E+03
(PID.TID 0000.0001)     ;
(PID.TID 0000.0001) momForcingOutAB = /* =1: take Momentum Forcing out of Adams-Bash. stepping */
(PID.TID 0000.0001)                       0
(PID.TID 0000.0001)     ;
(PID.TID 0000.0001) tracForcingOutAB = /* =1: take T,S,pTr Forcing out of Adams-Bash. stepping */
(PID.TID 0000.0001)                       0
(PID.TID 0000.0001)     ;
(PID.TID 0000.0001) momDissip_In_AB = /* put Dissipation Tendency in Adams-Bash. stepping */
(PID.TID 0000.0001)                   T
(PID.TID 0000.0001)     ;
(PID.TID 0000.0001) doAB_onGtGs = /* apply AB on Tendencies (rather than on T,S)*/
(PID.TID 0000.0001)                   T
(PID.TID 0000.0001)     ;
(PID.TID 0000.0001) abEps =   /* Adams-Bashforth-2 stabilizing weight */
(PID.TID 0000.0001)                 1.000000000000000E-01
(PID.TID 0000.0001)     ;
(PID.TID 0000.0001) applyExchUV_early = /* Apply EXCH to U,V earlier in time-step */
(PID.TID 0000.0001)                   F
(PID.TID 0000.0001)     ;
(PID.TID 0000.0001) pickupStrictlyMatch= /* stop if pickup do not strictly match */
(PID.TID 0000.0001)                   T
(PID.TID 0000.0001)     ;
(PID.TID 0000.0001) nIter0   =   /* Run starting timestep number */
(PID.TID 0000.0001)                       0
(PID.TID 0000.0001)     ;
(PID.TID 0000.0001) nTimeSteps = /* Number of timesteps */
(PID.TID 0000.0001)                      20
(PID.TID 0000.0001)     ;
(PID.TID 0000.0001) nEndIter =   /* Run ending timestep number */
(PID.TID 0000.0001)                      20
(PID.TID 0000.0001)     ;
(PID.TID 0000.0001) baseTime =   /* Model base time ( s ) */
(PID.TID 0000.0001)                 0.000000000000000E+00
(PID.TID 0000.0001)     ;
(PID.TID 0000.0001) startTime =  /* Run start time ( s ) */
(PID.TID 0000.0001)                 0.000000000000000E+00
(PID.TID 0000.0001)     ;
(PID.TID 0000.0001) endTime  =   /* Integration ending time ( s ) */
(PID.TID 0000.0001)                 3.600000000000000E+04
(PID.TID 0000.0001)     ;
(PID.TID 0000.0001) pChkPtFreq = /* Permanent restart/pickup file interval ( s ) */
(PID.TID 0000.0001)                 0.000000000000000E+00
(PID.TID 0000.0001)     ;
(PID.TID 0000.0001) chkPtFreq  = /* Rolling restart/pickup file interval ( s ) */
(PID.TID 0000.0001)                 0.000000000000000E+00
(PID.TID 0000.0001)     ;
(PID.TID 0000.0001) pickup_write_mdsio =   /* Model IO flag. */
(PID.TID 0000.0001)                   T
(PID.TID 0000.0001)     ;
(PID.TID 0000.0001) pickup_read_mdsio =   /* Model IO flag. */
(PID.TID 0000.0001)                   T
(PID.TID 0000.0001)     ;
(PID.TID 0000.0001) pickup_write_mnc =   /* Model IO flag. */
(PID.TID 0000.0001)                   F
(PID.TID 0000.0001)     ;
(PID.TID 0000.0001) pickup_read_mnc =   /* Model IO flag. */
(PID.TID 0000.0001)                   F
(PID.TID 0000.0001)     ;
(PID.TID 0000.0001) writePickupAtEnd =   /* Model IO flag. */
(PID.TID 0000.0001)                   T
(PID.TID 0000.0001)     ;
(PID.TID 0000.0001) dumpFreq =   /* Model state write out interval ( s ). */
(PID.TID 0000.0001)                 0.000000000000000E+00
(PID.TID 0000.0001)     ;
(PID.TID 0000.0001) dumpInitAndLast= /* write out Initial & Last iter. model state */
(PID.TID 0000.0001)                   T
(PID.TID 0000.0001)     ;
(PID.TID 0000.0001) snapshot_mdsio =   /* Model IO flag. */
(PID.TID 0000.0001)                   T
(PID.TID 0000.0001)     ;
(PID.TID 0000.0001) snapshot_mnc =   /* Model IO flag. */
(PID.TID 0000.0001)                   F
(PID.TID 0000.0001)     ;
(PID.TID 0000.0001) monitorFreq =   /* Monitor output interval ( s ). */
(PID.TID 0000.0001)                 1.000000000000000E+00
(PID.TID 0000.0001)     ;
(PID.TID 0000.0001) monitorSelect = /* select group of variables to monitor */
(PID.TID 0000.0001)                       2
(PID.TID 0000.0001)     ;
(PID.TID 0000.0001) monitor_stdio =   /* Model IO flag. */
(PID.TID 0000.0001)                   T
(PID.TID 0000.0001)     ;
(PID.TID 0000.0001) monitor_mnc =   /* Model IO flag. */
(PID.TID 0000.0001)                   F
(PID.TID 0000.0001)     ;
(PID.TID 0000.0001) externForcingPeriod =   /* forcing period (s) */
(PID.TID 0000.0001)                 0.000000000000000E+00
(PID.TID 0000.0001)     ;
(PID.TID 0000.0001) externForcingCycle =   /* period of the cyle (s). */
(PID.TID 0000.0001)                 0.000000000000000E+00
(PID.TID 0000.0001)     ;
(PID.TID 0000.0001) tauThetaClimRelax =   /* relaxation time scale (s) */
(PID.TID 0000.0001)                 0.000000000000000E+00
(PID.TID 0000.0001)     ;
(PID.TID 0000.0001) tauSaltClimRelax =   /* relaxation time scale (s) */
(PID.TID 0000.0001)                 0.000000000000000E+00
(PID.TID 0000.0001)     ;
(PID.TID 0000.0001) latBandClimRelax =   /* max. Lat. where relaxation */
(PID.TID 0000.0001)                 1.800000000000000E+02
(PID.TID 0000.0001)     ;
(PID.TID 0000.0001) //
(PID.TID 0000.0001) // Gridding paramters ( PARM04 in namelist )
(PID.TID 0000.0001) //
(PID.TID 0000.0001) usingCartesianGrid = /* Cartesian coordinates flag ( True/False ) */
(PID.TID 0000.0001)                   F
(PID.TID 0000.0001)     ;
(PID.TID 0000.0001) usingCylindricalGrid = /* Cylindrical coordinates flag ( True/False ) */
(PID.TID 0000.0001)                   F
(PID.TID 0000.0001)     ;
(PID.TID 0000.0001) usingSphericalPolarGrid = /* Spherical coordinates flag ( True/False ) */
(PID.TID 0000.0001)                   T
(PID.TID 0000.0001)     ;
(PID.TID 0000.0001) usingCurvilinearGrid = /* Curvilinear coordinates flag ( True/False ) */
(PID.TID 0000.0001)                   F
(PID.TID 0000.0001)     ;
(PID.TID 0000.0001) useMin4hFacEdges = /* set hFacW,S as minimum of adjacent hFacC factor */
(PID.TID 0000.0001)                   F
(PID.TID 0000.0001)     ;
(PID.TID 0000.0001) interViscAr_pCell = /* account for partial-cell in interior vert. viscosity */
(PID.TID 0000.0001)                   F
(PID.TID 0000.0001)     ;
(PID.TID 0000.0001) interDiffKr_pCell = /* account for partial-cell in interior vert. diffusion */
(PID.TID 0000.0001)                   F
(PID.TID 0000.0001)     ;
(PID.TID 0000.0001) pCellMix_select = /* option to enhance mixing near surface & bottom */
(PID.TID 0000.0001)                       0
(PID.TID 0000.0001)     ;
(PID.TID 0000.0001) selectSigmaCoord = /* Hybrid-Sigma Vert. Coordinate option */
(PID.TID 0000.0001)                       0
(PID.TID 0000.0001)     ;
(PID.TID 0000.0001) rSigmaBnd = /* r/sigma transition ( units of r ==  m ) */
(PID.TID 0000.0001)                 1.234567000000000E+05
(PID.TID 0000.0001)     ;
(PID.TID 0000.0001) rkSign =   /* index orientation relative to vertical coordinate */
(PID.TID 0000.0001)                -1.000000000000000E+00
(PID.TID 0000.0001)     ;
(PID.TID 0000.0001) gravitySign = /* gravity orientation relative to vertical coordinate */
(PID.TID 0000.0001)                -1.000000000000000E+00
(PID.TID 0000.0001)     ;
(PID.TID 0000.0001) seaLev_Z =  /* reference height of sea-level [m] */
(PID.TID 0000.0001)                 0.000000000000000E+00
(PID.TID 0000.0001)     ;
(PID.TID 0000.0001) top_Pres =  /* reference pressure at the top [Pa] */
(PID.TID 0000.0001)                 0.000000000000000E+00
(PID.TID 0000.0001)     ;
(PID.TID 0000.0001) mass2rUnit = /* convert mass per unit area [kg/m2] to r-units [m] */
(PID.TID 0000.0001)                 9.708737864077669E-04
(PID.TID 0000.0001)     ;
(PID.TID 0000.0001) rUnit2mass = /* convert r-units [m] to mass per unit area [kg/m2] */
(PID.TID 0000.0001)                 1.030000000000000E+03
(PID.TID 0000.0001)     ;
(PID.TID 0000.0001) drC =   /* C spacing ( units of r ) */
(PID.TID 0000.0001)                 1.500000000000000E+01,      /* K =  1 */
(PID.TID 0000.0001)    29 @  3.000000000000000E+01,             /* K =  2: 30 */
(PID.TID 0000.0001)                 1.500000000000000E+01       /* K = 31 */
(PID.TID 0000.0001)     ;
(PID.TID 0000.0001) drF =   /* W spacing ( units of r ) */
(PID.TID 0000.0001)    30 @  3.000000000000000E+01              /* K =  1: 30 */
(PID.TID 0000.0001)     ;
(PID.TID 0000.0001) delX = /* U spacing ( m - cartesian, degrees - spherical ) */
(PID.TID 0000.0001)    50 @  3.000000000000000E-01              /* I =  1: 50 */
(PID.TID 0000.0001)     ;
(PID.TID 0000.0001) delY = /* V spacing ( m - cartesian, degrees - spherical ) */
(PID.TID 0000.0001)   100 @  1.000000000000000E-01              /* J =  1:100 */
(PID.TID 0000.0001)     ;
(PID.TID 0000.0001) xgOrigin = /* X-axis origin of West  edge (cartesian: m, lat-lon: deg) */
(PID.TID 0000.0001)                 0.000000000000000E+00
(PID.TID 0000.0001)     ;
(PID.TID 0000.0001) ygOrigin = /* Y-axis origin of South edge (cartesian: m, lat-lon: deg) */
(PID.TID 0000.0001)                -8.000000000000000E+01
(PID.TID 0000.0001)     ;
(PID.TID 0000.0001) rSphere =  /* Radius ( ignored - cartesian, m - spherical ) */
(PID.TID 0000.0001)                 6.370000000000000E+06
(PID.TID 0000.0001)     ;
(PID.TID 0000.0001) deepAtmosphere = /* Deep/Shallow Atmosphere flag (True/False) */
(PID.TID 0000.0001)                   F
(PID.TID 0000.0001)     ;
(PID.TID 0000.0001) xC =  /* xC(:,1,:,1) : P-point X coord ( deg. or m if cartesian) */
(PID.TID 0000.0001)                 1.500000000000001E-01,      /* I =  1 */
(PID.TID 0000.0001)                 4.500000000000001E-01,      /* I =  2 */
(PID.TID 0000.0001)                 7.500000000000002E-01,      /* I =  3 */
(PID.TID 0000.0001)                 1.050000000000000E+00,      /* I =  4 */
(PID.TID 0000.0001)                 1.350000000000000E+00,      /* I =  5 */
(PID.TID 0000.0001)                 1.650000000000000E+00,      /* I =  6 */
(PID.TID 0000.0001)                 1.950000000000000E+00,      /* I =  7 */
(PID.TID 0000.0001)                 2.250000000000000E+00,      /* I =  8 */
(PID.TID 0000.0001)                 2.550000000000000E+00,      /* I =  9 */
(PID.TID 0000.0001)                 2.850000000000000E+00,      /* I = 10 */
(PID.TID 0000.0001)                 3.149999999999999E+00,      /* I = 11 */
(PID.TID 0000.0001)                 3.449999999999999E+00,      /* I = 12 */
(PID.TID 0000.0001)                 3.749999999999999E+00,      /* I = 13 */
(PID.TID 0000.0001)                 4.049999999999999E+00,      /* I = 14 */
(PID.TID 0000.0001)                 4.350000000000000E+00,      /* I = 15 */
(PID.TID 0000.0001)                 4.649999999999999E+00,      /* I = 16 */
(PID.TID 0000.0001)                 4.949999999999999E+00,      /* I = 17 */
(PID.TID 0000.0001)                 5.249999999999998E+00,      /* I = 18 */
(PID.TID 0000.0001)                 5.549999999999999E+00,      /* I = 19 */
(PID.TID 0000.0001)                 5.849999999999998E+00,      /* I = 20 */
(PID.TID 0000.0001)                 6.149999999999999E+00,      /* I = 21 */
(PID.TID 0000.0001)                 6.449999999999998E+00,      /* I = 22 */
(PID.TID 0000.0001)                 6.749999999999998E+00,      /* I = 23 */
(PID.TID 0000.0001)                 7.049999999999997E+00,      /* I = 24 */
(PID.TID 0000.0001)                 7.349999999999997E+00,      /* I = 25 */
(PID.TID 0000.0001)                 7.649999999999997E+00,      /* I = 26 */
(PID.TID 0000.0001)                 7.949999999999998E+00,      /* I = 27 */
(PID.TID 0000.0001)                 8.249999999999998E+00,      /* I = 28 */
(PID.TID 0000.0001)                 8.549999999999999E+00,      /* I = 29 */
(PID.TID 0000.0001)                 8.850000000000000E+00,      /* I = 30 */
(PID.TID 0000.0001)                 9.150000000000000E+00,      /* I = 31 */
(PID.TID 0000.0001)                 9.450000000000001E+00,      /* I = 32 */
(PID.TID 0000.0001)                 9.750000000000002E+00,      /* I = 33 */
(PID.TID 0000.0001)                 1.005000000000000E+01,      /* I = 34 */
(PID.TID 0000.0001)                 1.035000000000000E+01,      /* I = 35 */
(PID.TID 0000.0001)                 1.065000000000000E+01,      /* I = 36 */
(PID.TID 0000.0001)                 1.095000000000001E+01,      /* I = 37 */
(PID.TID 0000.0001)                 1.125000000000001E+01,      /* I = 38 */
(PID.TID 0000.0001)                 1.155000000000000E+01,      /* I = 39 */
(PID.TID 0000.0001)                 1.185000000000001E+01,      /* I = 40 */
(PID.TID 0000.0001)                 1.215000000000001E+01,      /* I = 41 */
(PID.TID 0000.0001)                 1.245000000000001E+01,      /* I = 42 */
(PID.TID 0000.0001)                 1.275000000000001E+01,      /* I = 43 */
(PID.TID 0000.0001)                 1.305000000000001E+01,      /* I = 44 */
(PID.TID 0000.0001)                 1.335000000000001E+01,      /* I = 45 */
(PID.TID 0000.0001)                 1.365000000000001E+01,      /* I = 46 */
(PID.TID 0000.0001)                 1.395000000000001E+01,      /* I = 47 */
(PID.TID 0000.0001)                 1.425000000000001E+01,      /* I = 48 */
(PID.TID 0000.0001)                 1.455000000000001E+01,      /* I = 49 */
(PID.TID 0000.0001)                 1.485000000000001E+01       /* I = 50 */
(PID.TID 0000.0001)     ;
(PID.TID 0000.0001) yC =  /* yC(1,:,1,:) : P-point Y coord ( deg. or m if cartesian) */
(PID.TID 0000.0001)                -7.995000000000000E+01,      /* J =  1 */
(PID.TID 0000.0001)                -7.985000000000001E+01,      /* J =  2 */
(PID.TID 0000.0001)                -7.975000000000001E+01,      /* J =  3 */
(PID.TID 0000.0001)      . . .
(PID.TID 0000.0001)                -7.775000000000013E+01,      /* J = 23 */
(PID.TID 0000.0001)                -7.765000000000013E+01,      /* J = 24 */
(PID.TID 0000.0001)                -7.755000000000014E+01,      /* J = 25 */
(PID.TID 0000.0001)                -7.745000000000014E+01,      /* J = 26 */
(PID.TID 0000.0001)                -7.735000000000015E+01,      /* J = 27 */
(PID.TID 0000.0001)                -7.725000000000016E+01,      /* J = 28 */
(PID.TID 0000.0001)      . . .
(PID.TID 0000.0001)                -7.525000000000027E+01,      /* J = 48 */
(PID.TID 0000.0001)                -7.515000000000028E+01,      /* J = 49 */
(PID.TID 0000.0001)                -7.505000000000028E+01,      /* J = 50 */
(PID.TID 0000.0001)                -7.495000000000029E+01,      /* J = 51 */
(PID.TID 0000.0001)                -7.485000000000029E+01,      /* J = 52 */
(PID.TID 0000.0001)                -7.475000000000030E+01,      /* J = 53 */
(PID.TID 0000.0001)      . . .
(PID.TID 0000.0001)                -7.275000000000041E+01,      /* J = 73 */
(PID.TID 0000.0001)                -7.265000000000042E+01,      /* J = 74 */
(PID.TID 0000.0001)                -7.255000000000042E+01,      /* J = 75 */
(PID.TID 0000.0001)                -7.245000000000043E+01,      /* J = 76 */
(PID.TID 0000.0001)                -7.235000000000043E+01,      /* J = 77 */
(PID.TID 0000.0001)                -7.225000000000044E+01,      /* J = 78 */
(PID.TID 0000.0001)      . . .
(PID.TID 0000.0001)                -7.025000000000055E+01,      /* J = 98 */
(PID.TID 0000.0001)                -7.015000000000056E+01,      /* J = 99 */
(PID.TID 0000.0001)                -7.005000000000057E+01       /* J =100 */
(PID.TID 0000.0001)     ;
(PID.TID 0000.0001) rcoord = /* P-point R coordinate (  units of r ) */
(PID.TID 0000.0001)                -1.500000000000000E+01,      /* K =  1 */
(PID.TID 0000.0001)                -4.500000000000000E+01,      /* K =  2 */
(PID.TID 0000.0001)                -7.500000000000000E+01,      /* K =  3 */
(PID.TID 0000.0001)                -1.050000000000000E+02,      /* K =  4 */
(PID.TID 0000.0001)                -1.350000000000000E+02,      /* K =  5 */
(PID.TID 0000.0001)                -1.650000000000000E+02,      /* K =  6 */
(PID.TID 0000.0001)                -1.950000000000000E+02,      /* K =  7 */
(PID.TID 0000.0001)                -2.250000000000000E+02,      /* K =  8 */
(PID.TID 0000.0001)                -2.550000000000000E+02,      /* K =  9 */
(PID.TID 0000.0001)                -2.850000000000000E+02,      /* K = 10 */
(PID.TID 0000.0001)                -3.150000000000000E+02,      /* K = 11 */
(PID.TID 0000.0001)                -3.450000000000000E+02,      /* K = 12 */
(PID.TID 0000.0001)                -3.750000000000000E+02,      /* K = 13 */
(PID.TID 0000.0001)                -4.050000000000000E+02,      /* K = 14 */
(PID.TID 0000.0001)                -4.350000000000000E+02,      /* K = 15 */
(PID.TID 0000.0001)                -4.650000000000000E+02,      /* K = 16 */
(PID.TID 0000.0001)                -4.950000000000000E+02,      /* K = 17 */
(PID.TID 0000.0001)                -5.250000000000000E+02,      /* K = 18 */
(PID.TID 0000.0001)                -5.550000000000000E+02,      /* K = 19 */
(PID.TID 0000.0001)                -5.850000000000000E+02,      /* K = 20 */
(PID.TID 0000.0001)                -6.150000000000000E+02,      /* K = 21 */
(PID.TID 0000.0001)                -6.450000000000000E+02,      /* K = 22 */
(PID.TID 0000.0001)                -6.750000000000000E+02,      /* K = 23 */
(PID.TID 0000.0001)                -7.050000000000000E+02,      /* K = 24 */
(PID.TID 0000.0001)                -7.350000000000000E+02,      /* K = 25 */
(PID.TID 0000.0001)                -7.650000000000000E+02,      /* K = 26 */
(PID.TID 0000.0001)                -7.950000000000000E+02,      /* K = 27 */
(PID.TID 0000.0001)                -8.250000000000000E+02,      /* K = 28 */
(PID.TID 0000.0001)                -8.550000000000000E+02,      /* K = 29 */
(PID.TID 0000.0001)                -8.850000000000000E+02       /* K = 30 */
(PID.TID 0000.0001)     ;
(PID.TID 0000.0001) rF =   /* W-Interf. R coordinate (  units of r ) */
(PID.TID 0000.0001)                 0.000000000000000E+00,      /* K =  1 */
(PID.TID 0000.0001)                -3.000000000000000E+01,      /* K =  2 */
(PID.TID 0000.0001)                -6.000000000000000E+01,      /* K =  3 */
(PID.TID 0000.0001)                -9.000000000000000E+01,      /* K =  4 */
(PID.TID 0000.0001)                -1.200000000000000E+02,      /* K =  5 */
(PID.TID 0000.0001)                -1.500000000000000E+02,      /* K =  6 */
(PID.TID 0000.0001)                -1.800000000000000E+02,      /* K =  7 */
(PID.TID 0000.0001)                -2.100000000000000E+02,      /* K =  8 */
(PID.TID 0000.0001)                -2.400000000000000E+02,      /* K =  9 */
(PID.TID 0000.0001)                -2.700000000000000E+02,      /* K = 10 */
(PID.TID 0000.0001)                -3.000000000000000E+02,      /* K = 11 */
(PID.TID 0000.0001)                -3.300000000000000E+02,      /* K = 12 */
(PID.TID 0000.0001)                -3.600000000000000E+02,      /* K = 13 */
(PID.TID 0000.0001)                -3.900000000000000E+02,      /* K = 14 */
(PID.TID 0000.0001)                -4.200000000000000E+02,      /* K = 15 */
(PID.TID 0000.0001)                -4.500000000000000E+02,      /* K = 16 */
(PID.TID 0000.0001)                -4.800000000000000E+02,      /* K = 17 */
(PID.TID 0000.0001)                -5.100000000000000E+02,      /* K = 18 */
(PID.TID 0000.0001)                -5.400000000000000E+02,      /* K = 19 */
(PID.TID 0000.0001)                -5.700000000000000E+02,      /* K = 20 */
(PID.TID 0000.0001)                -6.000000000000000E+02,      /* K = 21 */
(PID.TID 0000.0001)                -6.300000000000000E+02,      /* K = 22 */
(PID.TID 0000.0001)                -6.600000000000000E+02,      /* K = 23 */
(PID.TID 0000.0001)                -6.900000000000000E+02,      /* K = 24 */
(PID.TID 0000.0001)                -7.200000000000000E+02,      /* K = 25 */
(PID.TID 0000.0001)                -7.500000000000000E+02,      /* K = 26 */
(PID.TID 0000.0001)                -7.800000000000000E+02,      /* K = 27 */
(PID.TID 0000.0001)                -8.100000000000000E+02,      /* K = 28 */
(PID.TID 0000.0001)                -8.400000000000000E+02,      /* K = 29 */
(PID.TID 0000.0001)                -8.700000000000000E+02,      /* K = 30 */
(PID.TID 0000.0001)                -9.000000000000000E+02       /* K = 31 */
(PID.TID 0000.0001)     ;
(PID.TID 0000.0001) deepFacC = /* deep-model grid factor @ cell-Center (-) */
(PID.TID 0000.0001)    30 @  1.000000000000000E+00              /* K =  1: 30 */
(PID.TID 0000.0001)     ;
(PID.TID 0000.0001) deepFacF = /* deep-model grid factor @ W-Interface (-) */
(PID.TID 0000.0001)    31 @  1.000000000000000E+00              /* K =  1: 31 */
(PID.TID 0000.0001)     ;
(PID.TID 0000.0001) rVel2wUnit = /* convert units: rVel -> wSpeed (=1 if z-coord)*/
(PID.TID 0000.0001)    31 @  1.000000000000000E+00              /* K =  1: 31 */
(PID.TID 0000.0001)     ;
(PID.TID 0000.0001) wUnit2rVel = /* convert units: wSpeed -> rVel (=1 if z-coord)*/
(PID.TID 0000.0001)    31 @  1.000000000000000E+00              /* K =  1: 31 */
(PID.TID 0000.0001)     ;
(PID.TID 0000.0001) dBdrRef = /* Vertical grad. of reference buoyancy [(m/s/r)^2] */
(PID.TID 0000.0001)    30 @  0.000000000000000E+00              /* K =  1: 30 */
(PID.TID 0000.0001)     ;
(PID.TID 0000.0001) rotateGrid = /* use rotated grid ( True/False ) */
(PID.TID 0000.0001)                   F
(PID.TID 0000.0001)     ;
(PID.TID 0000.0001) phiEuler = /* Euler angle, rotation about original z-coordinate [rad] */
(PID.TID 0000.0001)                 0.000000000000000E+00
(PID.TID 0000.0001)     ;
(PID.TID 0000.0001) thetaEuler = /* Euler angle, rotation about new x-coordinate [rad] */
(PID.TID 0000.0001)                 0.000000000000000E+00
(PID.TID 0000.0001)     ;
(PID.TID 0000.0001) psiEuler = /* Euler angle, rotation about new z-coordinate [rad] */
(PID.TID 0000.0001)                 0.000000000000000E+00
(PID.TID 0000.0001)     ;
(PID.TID 0000.0001) dxF =  /* dxF(:,1,:,1) ( units: m ) */
(PID.TID 0000.0001)    50 @  5.820391490558872E+03              /* I =  1: 50 */
(PID.TID 0000.0001)     ;
(PID.TID 0000.0001) dxF =  /* dxF(1,:,1,:) ( units: m ) */
(PID.TID 0000.0001)                 5.820391490558872E+03,      /* J =  1 */
(PID.TID 0000.0001)                 5.877701765291692E+03,      /* J =  2 */
(PID.TID 0000.0001)                 5.934994135525598E+03,      /* J =  3 */
(PID.TID 0000.0001)      . . .
(PID.TID 0000.0001)                 7.076813247621209E+03,      /* J = 23 */
(PID.TID 0000.0001)                 7.133689397375063E+03,      /* J = 24 */
(PID.TID 0000.0001)                 7.190543816673855E+03,      /* J = 25 */
(PID.TID 0000.0001)                 7.247376332329164E+03,      /* J = 26 */
(PID.TID 0000.0001)                 7.304186771219292E+03,      /* J = 27 */
(PID.TID 0000.0001)                 7.360974960289787E+03,      /* J = 28 */
(PID.TID 0000.0001)      . . .
(PID.TID 0000.0001)                 8.491800393599013E+03,      /* J = 48 */
(PID.TID 0000.0001)                 8.548081485571185E+03,      /* J = 49 */
(PID.TID 0000.0001)                 8.604336538604706E+03,      /* J = 50 */
(PID.TID 0000.0001)                 8.660565381336924E+03,      /* J = 51 */
(PID.TID 0000.0001)                 8.716767842485036E+03,      /* J = 52 */
(PID.TID 0000.0001)                 8.772943750846600E+03,      /* J = 53 */
(PID.TID 0000.0001)      . . .
(PID.TID 0000.0001)                 9.890622914885218E+03,      /* J = 73 */
(PID.TID 0000.0001)                 9.946201814818334E+03,      /* J = 74 */
(PID.TID 0000.0001)                 1.000175041689580E+04,      /* J = 75 */
(PID.TID 0000.0001)                 1.005726855190695E+04,      /* J = 76 */
(PID.TID 0000.0001)                 1.011275605073392E+04,      /* J = 77 */
(PID.TID 0000.0001)                 1.016821274435215E+04,      /* J = 78 */
(PID.TID 0000.0001)      . . .
(PID.TID 0000.0001)                 1.127061807330668E+04,      /* J = 98 */
(PID.TID 0000.0001)                 1.132538898360582E+04,      /* J = 99 */
(PID.TID 0000.0001)                 1.138012539480601E+04       /* J =100 */
(PID.TID 0000.0001)     ;
(PID.TID 0000.0001) dyF =  /* dyF(:,1,:,1) ( units: m ) */
(PID.TID 0000.0001)    50 @  1.111774733520388E+04              /* I =  1: 50 */
(PID.TID 0000.0001)     ;
(PID.TID 0000.0001) dyF =  /* dyF(1,:,1,:) ( units: m ) */
(PID.TID 0000.0001)   100 @  1.111774733520388E+04              /* J =  1:100 */
(PID.TID 0000.0001)     ;
(PID.TID 0000.0001) dxG =  /* dxG(:,1,:,1) ( units: m ) */
(PID.TID 0000.0001)    50 @  5.791729693558576E+03              /* I =  1: 50 */
(PID.TID 0000.0001)     ;
(PID.TID 0000.0001) dxG =  /* dxG(1,:,1,:) ( units: m ) */
(PID.TID 0000.0001)                 5.791729693558576E+03,      /* J =  1 */
(PID.TID 0000.0001)                 5.849048855077854E+03,      /* J =  2 */
(PID.TID 0000.0001)                 5.906350199379949E+03,      /* J =  3 */
(PID.TID 0000.0001)      . . .
(PID.TID 0000.0001)                 7.048367077963129E+03,      /* J = 23 */
(PID.TID 0000.0001)                 7.105254027978149E+03,      /* J = 24 */
(PID.TID 0000.0001)                 7.162119334157175E+03,      /* J = 25 */
(PID.TID 0000.0001)                 7.218962823278620E+03,      /* J = 26 */
(PID.TID 0000.0001)                 7.275784322187360E+03,      /* J = 27 */
(PID.TID 0000.0001)                 7.332583657795253E+03,      /* J = 28 */
(PID.TID 0000.0001)      . . .
(PID.TID 0000.0001)                 8.463650136583461E+03,      /* J = 48 */
(PID.TID 0000.0001)                 8.519944183739159E+03,      /* J = 49 */
(PID.TID 0000.0001)                 8.576212277667308E+03,      /* J = 50 */
(PID.TID 0000.0001)                 8.632454246965530E+03,      /* J = 51 */
(PID.TID 0000.0001)                 8.688669920311038E+03,      /* J = 52 */
(PID.TID 0000.0001)                 8.744859126461139E+03,      /* J = 53 */
(PID.TID 0000.0001)      . . .
(PID.TID 0000.0001)                 9.862822156126382E+03,      /* J = 73 */
(PID.TID 0000.0001)                 9.918416141504455E+03,      /* J = 74 */
(PID.TID 0000.0001)                 9.973979913666863E+03,      /* J = 75 */
(PID.TID 0000.0001)                 1.002951330335672E+04,      /* J = 76 */
(PID.TID 0000.0001)                 1.008501614140969E+04,      /* J = 77 */
(PID.TID 0000.0001)                 1.014048825875450E+04,      /* J = 78 */
(PID.TID 0000.0001)      . . .
(PID.TID 0000.0001)                 1.124321973312895E+04,      /* J = 98 */
(PID.TID 0000.0001)                 1.129800783041847E+04,      /* J = 99 */
(PID.TID 0000.0001)                 1.135276151201679E+04       /* J =100 */
(PID.TID 0000.0001)     ;
(PID.TID 0000.0001) dyG =  /* dyG(:,1,:,1) ( units: m ) */
(PID.TID 0000.0001)    50 @  1.111774733520388E+04              /* I =  1: 50 */
(PID.TID 0000.0001)     ;
(PID.TID 0000.0001) dyG =  /* dyG(1,:,1,:) ( units: m ) */
(PID.TID 0000.0001)   100 @  1.111774733520388E+04              /* J =  1:100 */
(PID.TID 0000.0001)     ;
(PID.TID 0000.0001) dxC =  /* dxC(:,1,:,1) ( units: m ) */
(PID.TID 0000.0001)    50 @  5.820391490558872E+03              /* I =  1: 50 */
(PID.TID 0000.0001)     ;
(PID.TID 0000.0001) dxC =  /* dxC(1,:,1,:) ( units: m ) */
(PID.TID 0000.0001)                 5.820391490558872E+03,      /* J =  1 */
(PID.TID 0000.0001)                 5.877701765291692E+03,      /* J =  2 */
(PID.TID 0000.0001)                 5.934994135525598E+03,      /* J =  3 */
(PID.TID 0000.0001)      . . .
(PID.TID 0000.0001)                 7.076813247621209E+03,      /* J = 23 */
(PID.TID 0000.0001)                 7.133689397375063E+03,      /* J = 24 */
(PID.TID 0000.0001)                 7.190543816673855E+03,      /* J = 25 */
(PID.TID 0000.0001)                 7.247376332329164E+03,      /* J = 26 */
(PID.TID 0000.0001)                 7.304186771219292E+03,      /* J = 27 */
(PID.TID 0000.0001)                 7.360974960289787E+03,      /* J = 28 */
(PID.TID 0000.0001)      . . .
(PID.TID 0000.0001)                 8.491800393599013E+03,      /* J = 48 */
(PID.TID 0000.0001)                 8.548081485571185E+03,      /* J = 49 */
(PID.TID 0000.0001)                 8.604336538604706E+03,      /* J = 50 */
(PID.TID 0000.0001)                 8.660565381336924E+03,      /* J = 51 */
(PID.TID 0000.0001)                 8.716767842485036E+03,      /* J = 52 */
(PID.TID 0000.0001)                 8.772943750846600E+03,      /* J = 53 */
(PID.TID 0000.0001)      . . .
(PID.TID 0000.0001)                 9.890622914885218E+03,      /* J = 73 */
(PID.TID 0000.0001)                 9.946201814818334E+03,      /* J = 74 */
(PID.TID 0000.0001)                 1.000175041689580E+04,      /* J = 75 */
(PID.TID 0000.0001)                 1.005726855190695E+04,      /* J = 76 */
(PID.TID 0000.0001)                 1.011275605073392E+04,      /* J = 77 */
(PID.TID 0000.0001)                 1.016821274435215E+04,      /* J = 78 */
(PID.TID 0000.0001)      . . .
(PID.TID 0000.0001)                 1.127061807330668E+04,      /* J = 98 */
(PID.TID 0000.0001)                 1.132538898360582E+04,      /* J = 99 */
(PID.TID 0000.0001)                 1.138012539480601E+04       /* J =100 */
(PID.TID 0000.0001)     ;
(PID.TID 0000.0001) dyC =  /* dyC(:,1,:,1) ( units: m ) */
(PID.TID 0000.0001)    50 @  1.111774733520388E+04              /* I =  1: 50 */
(PID.TID 0000.0001)     ;
(PID.TID 0000.0001) dyC =  /* dyC(1,:,1,:) ( units: m ) */
(PID.TID 0000.0001)   100 @  1.111774733520388E+04              /* J =  1:100 */
(PID.TID 0000.0001)     ;
(PID.TID 0000.0001) dxV =  /* dxV(:,1,:,1) ( units: m ) */
(PID.TID 0000.0001)    50 @  5.791729693558576E+03              /* I =  1: 50 */
(PID.TID 0000.0001)     ;
(PID.TID 0000.0001) dxV =  /* dxV(1,:,1,:) ( units: m ) */
(PID.TID 0000.0001)                 5.791729693558576E+03,      /* J =  1 */
(PID.TID 0000.0001)                 5.849048855077854E+03,      /* J =  2 */
(PID.TID 0000.0001)                 5.906350199379949E+03,      /* J =  3 */
(PID.TID 0000.0001)      . . .
(PID.TID 0000.0001)                 7.048367077963129E+03,      /* J = 23 */
(PID.TID 0000.0001)                 7.105254027978149E+03,      /* J = 24 */
(PID.TID 0000.0001)                 7.162119334157175E+03,      /* J = 25 */
(PID.TID 0000.0001)                 7.218962823278620E+03,      /* J = 26 */
(PID.TID 0000.0001)                 7.275784322187360E+03,      /* J = 27 */
(PID.TID 0000.0001)                 7.332583657795253E+03,      /* J = 28 */
(PID.TID 0000.0001)      . . .
(PID.TID 0000.0001)                 8.463650136583461E+03,      /* J = 48 */
(PID.TID 0000.0001)                 8.519944183739159E+03,      /* J = 49 */
(PID.TID 0000.0001)                 8.576212277667308E+03,      /* J = 50 */
(PID.TID 0000.0001)                 8.632454246965530E+03,      /* J = 51 */
(PID.TID 0000.0001)                 8.688669920311038E+03,      /* J = 52 */
(PID.TID 0000.0001)                 8.744859126461139E+03,      /* J = 53 */
(PID.TID 0000.0001)      . . .
(PID.TID 0000.0001)                 9.862822156126382E+03,      /* J = 73 */
(PID.TID 0000.0001)                 9.918416141504455E+03,      /* J = 74 */
(PID.TID 0000.0001)                 9.973979913666863E+03,      /* J = 75 */
(PID.TID 0000.0001)                 1.002951330335672E+04,      /* J = 76 */
(PID.TID 0000.0001)                 1.008501614140969E+04,      /* J = 77 */
(PID.TID 0000.0001)                 1.014048825875450E+04,      /* J = 78 */
(PID.TID 0000.0001)      . . .
(PID.TID 0000.0001)                 1.124321973312895E+04,      /* J = 98 */
(PID.TID 0000.0001)                 1.129800783041847E+04,      /* J = 99 */
(PID.TID 0000.0001)                 1.135276151201679E+04       /* J =100 */
(PID.TID 0000.0001)     ;
(PID.TID 0000.0001) dyU =  /* dyU(:,1,:,1) ( units: m ) */
(PID.TID 0000.0001)    50 @  1.111774733520388E+04              /* I =  1: 50 */
(PID.TID 0000.0001)     ;
(PID.TID 0000.0001) dyU =  /* dyU(1,:,1,:) ( units: m ) */
(PID.TID 0000.0001)   100 @  1.111774733520388E+04              /* J =  1:100 */
(PID.TID 0000.0001)     ;
(PID.TID 0000.0001) rA  =  /* rA (:,1,:,1) ( units: m^2 ) */
(PID.TID 0000.0001)    50 @  6.470963377080289E+07              /* I =  1: 50 */
(PID.TID 0000.0001)     ;
(PID.TID 0000.0001) rA  =  /* rA (1,:,1,:) ( units: m^2 ) */
(PID.TID 0000.0001)                 6.470963377080289E+07,      /* J =  1 */
(PID.TID 0000.0001)                 6.534679484410104E+07,      /* J =  2 */
(PID.TID 0000.0001)                 6.598375685977945E+07,      /* J =  3 */
(PID.TID 0000.0001)      . . .
(PID.TID 0000.0001)                 7.867821163932665E+07,      /* J = 23 */
(PID.TID 0000.0001)                 7.931054622142966E+07,      /* J = 24 */
(PID.TID 0000.0001)                 7.994263920984067E+07,      /* J = 25 */
(PID.TID 0000.0001)                 8.057448867913349E+07,      /* J = 26 */
(PID.TID 0000.0001)                 8.120609270456599E+07,      /* J = 27 */
(PID.TID 0000.0001)                 8.183744936212724E+07,      /* J = 28 */
(PID.TID 0000.0001)      . . .
(PID.TID 0000.0001)                 9.440967921416211E+07,      /* J = 48 */
(PID.TID 0000.0001)                 9.503539809503193E+07,      /* J = 49 */
(PID.TID 0000.0001)                 9.566082748163140E+07,      /* J = 50 */
(PID.TID 0000.0001)                 9.628596546870193E+07,      /* J = 51 */
(PID.TID 0000.0001)                 9.691081015209354E+07,      /* J = 52 */
(PID.TID 0000.0001)                 9.753535962826957E+07,      /* J = 53 */
(PID.TID 0000.0001)      . . .
(PID.TID 0000.0001)                 1.099614325987181E+08,      /* J = 73 */
(PID.TID 0000.0001)                 1.105793446869293E+08,      /* J = 74 */
(PID.TID 0000.0001)                 1.111969199312560E+08,      /* J = 75 */
(PID.TID 0000.0001)                 1.118141564504991E+08,      /* J = 76 */
(PID.TID 0000.0001)                 1.124310523644033E+08,      /* J = 77 */
(PID.TID 0000.0001)                 1.130476057938687E+08,      /* J = 78 */
(PID.TID 0000.0001)      . . .
(PID.TID 0000.0001)                 1.253038681465364E+08,      /* J = 98 */
(PID.TID 0000.0001)                 1.259127972112936E+08,      /* J = 99 */
(PID.TID 0000.0001)                 1.265213427237870E+08       /* J =100 */
(PID.TID 0000.0001)     ;
(PID.TID 0000.0001) rAw =  /* rAw(:,1,:,1) ( units: m^2 ) */
(PID.TID 0000.0001)    50 @  6.470963377080289E+07              /* I =  1: 50 */
(PID.TID 0000.0001)     ;
(PID.TID 0000.0001) rAw =  /* rAw(1,:,1,:) ( units: m^2 ) */
(PID.TID 0000.0001)                 6.470963377080289E+07,      /* J =  1 */
(PID.TID 0000.0001)                 6.534679484410104E+07,      /* J =  2 */
(PID.TID 0000.0001)                 6.598375685977945E+07,      /* J =  3 */
(PID.TID 0000.0001)      . . .
(PID.TID 0000.0001)                 7.867821163932665E+07,      /* J = 23 */
(PID.TID 0000.0001)                 7.931054622142966E+07,      /* J = 24 */
(PID.TID 0000.0001)                 7.994263920984067E+07,      /* J = 25 */
(PID.TID 0000.0001)                 8.057448867913349E+07,      /* J = 26 */
(PID.TID 0000.0001)                 8.120609270456599E+07,      /* J = 27 */
(PID.TID 0000.0001)                 8.183744936212724E+07,      /* J = 28 */
(PID.TID 0000.0001)      . . .
(PID.TID 0000.0001)                 9.440967921416211E+07,      /* J = 48 */
(PID.TID 0000.0001)                 9.503539809503193E+07,      /* J = 49 */
(PID.TID 0000.0001)                 9.566082748163140E+07,      /* J = 50 */
(PID.TID 0000.0001)                 9.628596546870193E+07,      /* J = 51 */
(PID.TID 0000.0001)                 9.691081015209354E+07,      /* J = 52 */
(PID.TID 0000.0001)                 9.753535962826957E+07,      /* J = 53 */
(PID.TID 0000.0001)      . . .
(PID.TID 0000.0001)                 1.099614325987181E+08,      /* J = 73 */
(PID.TID 0000.0001)                 1.105793446869293E+08,      /* J = 74 */
(PID.TID 0000.0001)                 1.111969199312560E+08,      /* J = 75 */
(PID.TID 0000.0001)                 1.118141564504991E+08,      /* J = 76 */
(PID.TID 0000.0001)                 1.124310523644033E+08,      /* J = 77 */
(PID.TID 0000.0001)                 1.130476057938687E+08,      /* J = 78 */
(PID.TID 0000.0001)      . . .
(PID.TID 0000.0001)                 1.253038681465364E+08,      /* J = 98 */
(PID.TID 0000.0001)                 1.259127972112936E+08,      /* J = 99 */
(PID.TID 0000.0001)                 1.265213427237870E+08       /* J =100 */
(PID.TID 0000.0001)     ;
(PID.TID 0000.0001) rAs =  /* rAs(:,1,:,1) ( units: m^2 ) */
(PID.TID 0000.0001)    50 @  6.439097919401864E+07              /* I =  1: 50 */
(PID.TID 0000.0001)     ;
(PID.TID 0000.0001) rAs =  /* rAs(1,:,1,:) ( units: m^2 ) */
(PID.TID 0000.0001)                 6.439097919401864E+07,      /* J =  1 */
(PID.TID 0000.0001)                 6.502823906837179E+07,      /* J =  2 */
(PID.TID 0000.0001)                 6.566530085543716E+07,      /* J =  3 */
(PID.TID 0000.0001)      . . .
(PID.TID 0000.0001)                 7.836195435256335E+07,      /* J = 23 */
(PID.TID 0000.0001)                 7.899440900921808E+07,      /* J = 24 */
(PID.TID 0000.0001)                 7.962662303520055E+07,      /* J = 25 */
(PID.TID 0000.0001)                 8.025859450470714E+07,      /* J = 26 */
(PID.TID 0000.0001)                 8.089032149259475E+07,      /* J = 27 */
(PID.TID 0000.0001)                 8.152180207452223E+07,      /* J = 28 */
(PID.TID 0000.0001)      . . .
(PID.TID 0000.0001)                 9.409671180895932E+07,      /* J = 48 */
(PID.TID 0000.0001)                 9.472257472228888E+07,      /* J = 49 */
(PID.TID 0000.0001)                 9.534814909420149E+07,      /* J = 50 */
(PID.TID 0000.0001)                 9.597343301913190E+07,      /* J = 51 */
(PID.TID 0000.0001)                 9.659842459236403E+07,      /* J = 52 */
(PID.TID 0000.0001)                 9.722312190998378E+07,      /* J = 53 */
(PID.TID 0000.0001)      . . .
(PID.TID 0000.0001)                 1.096523508263446E+08,      /* J = 73 */
(PID.TID 0000.0001)                 1.102704306306916E+08,      /* J = 74 */
(PID.TID 0000.0001)                 1.108881745321664E+08,      /* J = 75 */
(PID.TID 0000.0001)                 1.115055806490511E+08,      /* J = 76 */
(PID.TID 0000.0001)                 1.121226471005947E+08,      /* J = 77 */
(PID.TID 0000.0001)                 1.127393720071080E+08,      /* J = 78 */
(PID.TID 0000.0001)      . . .
(PID.TID 0000.0001)                 1.249992603617116E+08,      /* J = 98 */
(PID.TID 0000.0001)                 1.256083805070198E+08,      /* J = 99 */
(PID.TID 0000.0001)                 1.262171180274426E+08       /* J =100 */
(PID.TID 0000.0001)     ;
(PID.TID 0000.0001) globalArea = /* Integrated horizontal Area (m^2) */
(PID.TID 0000.0001)                 4.603029058785420E+11
(PID.TID 0000.0001)     ;
(PID.TID 0000.0001) // =======================================================
(PID.TID 0000.0001) // End of Model config. summary
(PID.TID 0000.0001) // =======================================================
(PID.TID 0000.0001) 
(PID.TID 0000.0001) == Packages configuration : Check & print summary ==
(PID.TID 0000.0001) 
(PID.TID 0000.0001) OBCS_CHECK: #define ALLOW_OBCS
(PID.TID 0000.0001) OBCS_CHECK: start summary:
(PID.TID 0000.0001) useOBCSprescribe = /* prescribe OB values */
(PID.TID 0000.0001)                   T
(PID.TID 0000.0001)     ;
(PID.TID 0000.0001) useOBCSbalance = /* balance the flow through OB */
(PID.TID 0000.0001)                   T
(PID.TID 0000.0001)     ;
(PID.TID 0000.0001) OBCSbalanceSurf = /* include surf. flux in balance */
(PID.TID 0000.0001)                   T
(PID.TID 0000.0001)     ;
(PID.TID 0000.0001) OBCS_balanceFacN = /* Northern OB Factor for balancing OB flow [-] */
(PID.TID 0000.0001)                 1.000000000000000E+00
(PID.TID 0000.0001)     ;
(PID.TID 0000.0001) OBCS_balanceFacS = /* Southern OB Factor for balancing OB flow [-] */
(PID.TID 0000.0001)                 1.000000000000000E+00
(PID.TID 0000.0001)     ;
(PID.TID 0000.0001) OBCS_balanceFacE = /* Eastern  OB Factor for balancing OB flow [-] */
(PID.TID 0000.0001)                 1.000000000000000E+00
(PID.TID 0000.0001)     ;
(PID.TID 0000.0001) OBCS_balanceFacW = /* Western  OB Factor for balancing OB flow [-] */
(PID.TID 0000.0001)                 1.000000000000000E+00
(PID.TID 0000.0001)     ;
(PID.TID 0000.0001) OBCS_uvApplyFac = /* Factor to apply to U,V 2nd column/row */
(PID.TID 0000.0001)                 1.000000000000000E+00
(PID.TID 0000.0001)     ;
(PID.TID 0000.0001) OBCS_u1_adv_T = /* Temp uses upwind adv-scheme @ OB */
(PID.TID 0000.0001)                       0
(PID.TID 0000.0001)     ;
(PID.TID 0000.0001) OBCS_u1_adv_S = /* Salt uses upwind adv-scheme @ OB */
(PID.TID 0000.0001)                       0
(PID.TID 0000.0001)     ;
(PID.TID 0000.0001) OBCS_monitorFreq = /* monitor output frequency [s] */
(PID.TID 0000.0001)                 1.800000000000000E+03
(PID.TID 0000.0001)     ;
(PID.TID 0000.0001) OBCS_monSelect = /* select group of variables to monitor */
(PID.TID 0000.0001)                       1
(PID.TID 0000.0001)     ;
(PID.TID 0000.0001) useOBCStides = /* apply tidal forcing through OB */
(PID.TID 0000.0001)                   F
(PID.TID 0000.0001)     ;
(PID.TID 0000.0001) tidalPeriod = /* (s) */
(PID.TID 0000.0001)    10 @  0.000000000000000E+00              /* I =  1: 10 */
(PID.TID 0000.0001)     ;
(PID.TID 0000.0001) OB_indexNone = /* null value for OB index (i.e. no OB) */
(PID.TID 0000.0001)                     -99
(PID.TID 0000.0001)     ;
(PID.TID 0000.0001) ======== Tile bi=   1 , bj=   1 ========
(PID.TID 0000.0001)  OB_Jn = /* Northern OB local indices */
(PID.TID 0000.0001)    31 @      -99                            /* I = -2: 28 */
(PID.TID 0000.0001)  OB_Js = /* Southern OB local indices */
(PID.TID 0000.0001)    31 @      -99                            /* I = -2: 28 */
(PID.TID 0000.0001)  OB_Ie = /* Eastern OB local indices */
(PID.TID 0000.0001)    31 @      -99                            /* J = -2: 28 */
(PID.TID 0000.0001)  OB_Iw = /* Western OB local indices */
(PID.TID 0000.0001)    31 @      -99                            /* J = -2: 28 */
(PID.TID 0000.0001) ======== Tile bi=   2 , bj=   1 ========
(PID.TID 0000.0001)  OB_Jn = /* Northern OB local indices */
(PID.TID 0000.0001)    31 @      -99                            /* I = -2: 28 */
(PID.TID 0000.0001)  OB_Js = /* Southern OB local indices */
(PID.TID 0000.0001)    31 @      -99                            /* I = -2: 28 */
(PID.TID 0000.0001)  OB_Ie = /* Eastern OB local indices */
(PID.TID 0000.0001)    31 @      -99                            /* J = -2: 28 */
(PID.TID 0000.0001)  OB_Iw = /* Western OB local indices */
(PID.TID 0000.0001)    31 @      -99                            /* J = -2: 28 */
(PID.TID 0000.0001) ======== Tile bi=   1 , bj=   2 ========
(PID.TID 0000.0001)  OB_Jn = /* Northern OB local indices */
(PID.TID 0000.0001)    31 @      -99                            /* I = -2: 28 */
(PID.TID 0000.0001)  OB_Js = /* Southern OB local indices */
(PID.TID 0000.0001)    31 @      -99                            /* I = -2: 28 */
(PID.TID 0000.0001)  OB_Ie = /* Eastern OB local indices */
(PID.TID 0000.0001)    31 @      -99                            /* J = -2: 28 */
(PID.TID 0000.0001)  OB_Iw = /* Western OB local indices */
(PID.TID 0000.0001)    31 @      -99                            /* J = -2: 28 */
(PID.TID 0000.0001) ======== Tile bi=   2 , bj=   2 ========
(PID.TID 0000.0001)  OB_Jn = /* Northern OB local indices */
(PID.TID 0000.0001)    31 @      -99                            /* I = -2: 28 */
(PID.TID 0000.0001)  OB_Js = /* Southern OB local indices */
(PID.TID 0000.0001)    31 @      -99                            /* I = -2: 28 */
(PID.TID 0000.0001)  OB_Ie = /* Eastern OB local indices */
(PID.TID 0000.0001)    31 @      -99                            /* J = -2: 28 */
(PID.TID 0000.0001)  OB_Iw = /* Western OB local indices */
(PID.TID 0000.0001)    31 @      -99                            /* J = -2: 28 */
(PID.TID 0000.0001) ======== Tile bi=   1 , bj=   3 ========
(PID.TID 0000.0001)  OB_Jn = /* Northern OB local indices */
(PID.TID 0000.0001)    31 @      -99                            /* I = -2: 28 */
(PID.TID 0000.0001)  OB_Js = /* Southern OB local indices */
(PID.TID 0000.0001)    31 @      -99                            /* I = -2: 28 */
(PID.TID 0000.0001)  OB_Ie = /* Eastern OB local indices */
(PID.TID 0000.0001)    31 @      -99                            /* J = -2: 28 */
(PID.TID 0000.0001)  OB_Iw = /* Western OB local indices */
(PID.TID 0000.0001)    31 @      -99                            /* J = -2: 28 */
(PID.TID 0000.0001) ======== Tile bi=   2 , bj=   3 ========
(PID.TID 0000.0001)  OB_Jn = /* Northern OB local indices */
(PID.TID 0000.0001)    31 @      -99                            /* I = -2: 28 */
(PID.TID 0000.0001)  OB_Js = /* Southern OB local indices */
(PID.TID 0000.0001)    31 @      -99                            /* I = -2: 28 */
(PID.TID 0000.0001)  OB_Ie = /* Eastern OB local indices */
(PID.TID 0000.0001)    31 @      -99                            /* J = -2: 28 */
(PID.TID 0000.0001)  OB_Iw = /* Western OB local indices */
(PID.TID 0000.0001)    31 @      -99                            /* J = -2: 28 */
(PID.TID 0000.0001) ======== Tile bi=   1 , bj=   4 ========
(PID.TID 0000.0001)  OB_Jn = /* Northern OB local indices */
(PID.TID 0000.0001)    31 @       25                            /* I = -2: 28 */
(PID.TID 0000.0001)  OB_Js = /* Southern OB local indices */
(PID.TID 0000.0001)    31 @      -99                            /* I = -2: 28 */
(PID.TID 0000.0001)  OB_Ie = /* Eastern OB local indices */
(PID.TID 0000.0001)    31 @      -99                            /* J = -2: 28 */
(PID.TID 0000.0001)  OB_Iw = /* Western OB local indices */
(PID.TID 0000.0001)    31 @      -99                            /* J = -2: 28 */
(PID.TID 0000.0001) ======== Tile bi=   2 , bj=   4 ========
(PID.TID 0000.0001)  OB_Jn = /* Northern OB local indices */
(PID.TID 0000.0001)    31 @       25                            /* I = -2: 28 */
(PID.TID 0000.0001)  OB_Js = /* Southern OB local indices */
(PID.TID 0000.0001)    31 @      -99                            /* I = -2: 28 */
(PID.TID 0000.0001)  OB_Ie = /* Eastern OB local indices */
(PID.TID 0000.0001)    31 @      -99                            /* J = -2: 28 */
(PID.TID 0000.0001)  OB_Iw = /* Western OB local indices */
(PID.TID 0000.0001)    31 @      -99                            /* J = -2: 28 */
(PID.TID 0000.0001) OBCS_CHECK: end summary.
(PID.TID 0000.0001) OBCS_CHECK: #define ALLOW_ORLANSKI
(PID.TID 0000.0001) OBCS_CHECK: set-up OK
(PID.TID 0000.0001) OBCS_CHECK: check Inside Mask and OB locations: OK
(PID.TID 0000.0001) SHELFICE_CHECK: #define ALLOW_SHELFICE
(PID.TID 0000.0001) 
(PID.TID 0000.0001) SHELFICE_CHECK: start of SHELFICE config. summary
(PID.TID 0000.0001) SHELFICEisOn = /* package is turned on */
(PID.TID 0000.0001)                   T
(PID.TID 0000.0001)     ;
(PID.TID 0000.0001) useISOMIPTD = /* use simple isomip thermodynamics */
(PID.TID 0000.0001)                   F
(PID.TID 0000.0001)     ;
(PID.TID 0000.0001) SHELFICEconserve = /* use a conservative form of boundary conditions */
(PID.TID 0000.0001)                   T
(PID.TID 0000.0001)     ;
(PID.TID 0000.0001) SHELFICEboundaryLayer = /* use simple boundary layer scheme to suppress noise */
(PID.TID 0000.0001)                   T
(PID.TID 0000.0001)     ;
(PID.TID 0000.0001) SHELFICEadvDiffHeatFlux = /* use adv.-diff. instead of just diff. heat flux into the ice shelf */
(PID.TID 0000.0001)                   T
(PID.TID 0000.0001)     ;
(PID.TID 0000.0001) SHELFICEMassStepping = /* step forward ice shelf mass/thickness */
(PID.TID 0000.0001)                   T
(PID.TID 0000.0001)     ;
(PID.TID 0000.0001) no_slip_shelfice = /* use no slip boundary conditions */
(PID.TID 0000.0001)                   F
(PID.TID 0000.0001)     ;
(PID.TID 0000.0001) SHELFICEdragLinear    = /* linear drag coefficient */
(PID.TID 0000.0001)                 0.000000000000000E+00
(PID.TID 0000.0001)     ;
(PID.TID 0000.0001) SHELFICEdragQuadratic = /* quadratic drag coefficient */
(PID.TID 0000.0001)                 1.500000000000000E-03
(PID.TID 0000.0001)     ;
(PID.TID 0000.0001) SHELFICEselectDragQuadr = /* select quadratic drag option */
(PID.TID 0000.0001)                       1
(PID.TID 0000.0001)     ;
(PID.TID 0000.0001) SHELFICElatentHeat      = /* latent heat of ice */
(PID.TID 0000.0001)                 3.340000000000000E+05
(PID.TID 0000.0001)     ;
(PID.TID 0000.0001) SHELFICEheatCapacity_Cp = /* heat capacity of ice shelf */
(PID.TID 0000.0001)                 2.000000000000000E+03
(PID.TID 0000.0001)     ;
(PID.TID 0000.0001) rhoShelfice   = /* density of ice shelf */
(PID.TID 0000.0001)                 9.170000000000000E+02
(PID.TID 0000.0001)     ;
(PID.TID 0000.0001) SHELFICEkappa = /* thermal conductivity of ice shelf */
(PID.TID 0000.0001)                 1.540000000000000E-06
(PID.TID 0000.0001)     ;
(PID.TID 0000.0001) SHELFICEthetaSurface = /* surface temperature above i.s. */
(PID.TID 0000.0001)                -2.000000000000000E+01
(PID.TID 0000.0001)     ;
(PID.TID 0000.0001) SHELFICEheatTransCoeff = /* heat transfer coefficient */
(PID.TID 0000.0001)                 1.000000000000000E-04
(PID.TID 0000.0001)     ;
(PID.TID 0000.0001) SHELFICEsaltTransCoeff = /* salt transfer coefficient */
(PID.TID 0000.0001)                 5.050000000000000E-07
(PID.TID 0000.0001)     ;
(PID.TID 0000.0001) SHELFICEuseGammaFrict = /* use velocity dependent exchange coefficients */
(PID.TID 0000.0001)                   T
(PID.TID 0000.0001)     ;
(PID.TID 0000.0001) SHELFICE_oldCalcUStar = /* use old uStar expression */
(PID.TID 0000.0001)                   T
(PID.TID 0000.0001)     ;
(PID.TID 0000.0001) shiCdrag   = /* quadr. drag coefficient for uStar */
(PID.TID 0000.0001)                 1.500000000000000E-03
(PID.TID 0000.0001)     ;
(PID.TID 0000.0001) shiZetaN   = /* parameter for gammaTurb */
(PID.TID 0000.0001)                 5.200000000000000E-02
(PID.TID 0000.0001)     ;
(PID.TID 0000.0001) shiRc      = /* parameter for gammaTurb (not used) */
(PID.TID 0000.0001)                 2.000000000000000E-01
(PID.TID 0000.0001)     ;
(PID.TID 0000.0001) shiPrandtl = /* const. Prandtl No. for gammaTurb */
(PID.TID 0000.0001)                 1.380000000000000E+01
(PID.TID 0000.0001)     ;
(PID.TID 0000.0001) shiSchmidt = /* const. Schmidt No. for gammaTurb */
(PID.TID 0000.0001)                 2.432000000000000E+03
(PID.TID 0000.0001)     ;
(PID.TID 0000.0001) shiKinVisc = /* const. kin. viscosity for gammaTurb */
(PID.TID 0000.0001)                 1.950000000000000E-06
(PID.TID 0000.0001)     ;
(PID.TID 0000.0001) SHELFICEloadAnomalyFile = /* file name of loaded loadAnomaly field */
(PID.TID 0000.0001)               ''
(PID.TID 0000.0001)     ;
(PID.TID 0000.0001) SHELFICEmassFile = /* file name of loaded mass field */
(PID.TID 0000.0001)               'iceShelf_Mass.obcs'
(PID.TID 0000.0001)     ;
(PID.TID 0000.0001) SHELFICEtopoFile = /* file name of loaded under-ice topography */
(PID.TID 0000.0001)               'icetopo.obcs'
(PID.TID 0000.0001)     ;
(PID.TID 0000.0001) SHELFICEMassDynTendFile = /* file name of loaded dynamic mass tendency field */
(PID.TID 0000.0001)               'iceShelf_MassTend.obcs'
(PID.TID 0000.0001)     ;
(PID.TID 0000.0001) SHELFICEwriteState  = /* do simple standard output */
(PID.TID 0000.0001)                   T
(PID.TID 0000.0001)     ;
(PID.TID 0000.0001) SHELFICE_dump_mdsio = /* use mdsio for snapshots */
(PID.TID 0000.0001)                   T
(PID.TID 0000.0001)     ;
(PID.TID 0000.0001) SHELFICE_tave_mdsio = /* use mdsio for time averages */
(PID.TID 0000.0001)                   T
(PID.TID 0000.0001)     ;
(PID.TID 0000.0001) SHELFICE_dump_mnc   = /* use netcdf for snapshots */
(PID.TID 0000.0001)                   F
(PID.TID 0000.0001)     ;
(PID.TID 0000.0001) SHELFICE_tave_mnc   = /* use netcdf for time averages */
(PID.TID 0000.0001)                   F
(PID.TID 0000.0001)     ;
(PID.TID 0000.0001) SHELFICE_dumpFreq = /* analoguous to dumpFreq */
(PID.TID 0000.0001)                 0.000000000000000E+00
(PID.TID 0000.0001)     ;
(PID.TID 0000.0001) SHELFICE_taveFreq = /* analoguous to taveFreq */
(PID.TID 0000.0001)                 0.000000000000000E+00
(PID.TID 0000.0001)     ;
(PID.TID 0000.0001) SHELFICE_CHECK: end of SHELFICE config. summary
(PID.TID 0000.0001) GAD_CHECK: #define ALLOW_GENERIC_ADVDIFF
(PID.TID 0000.0001) // =======================================================
(PID.TID 0000.0001) // Check Model config. (CONFIG_CHECK):
(PID.TID 0000.0001) // CONFIG_CHECK : Normal End
(PID.TID 0000.0001) // =======================================================
(PID.TID 0000.0001) 
(PID.TID 0000.0001)  MDS_WRITE_FIELD: it,rec,kS,kL,kH=      -1     1   1   1   1 file=XC
(PID.TID 0000.0001)  MDS_WRITE_FIELD: it,rec,kS,kL,kH=      -1     1   1   1   1 file=YC
(PID.TID 0000.0001)  MDS_WRITE_FIELD: it,rec,kS,kL,kH=      -1     1   1   1   1 file=XG
(PID.TID 0000.0001)  MDS_WRITE_FIELD: it,rec,kS,kL,kH=      -1     1   1   1   1 file=YG
(PID.TID 0000.0001)  MDS_WRITE_FIELD: it,rec,kS,kL,kH=      -1     1   1   1   1 file=RAC
(PID.TID 0000.0001)  MDS_WRITE_FIELD: it,rec,kS,kL,kH=      -1     1   1   1   1 file=RAW
(PID.TID 0000.0001)  MDS_WRITE_FIELD: it,rec,kS,kL,kH=      -1     1   1   1   1 file=RAS
(PID.TID 0000.0001)  MDS_WRITE_FIELD: it,rec,kS,kL,kH=      -1     1   1   1   1 file=RAZ
(PID.TID 0000.0001)  MDS_WRITE_FIELD: it,rec,kS,kL,kH=      -1     1   1   1   1 file=DXG
(PID.TID 0000.0001)  MDS_WRITE_FIELD: it,rec,kS,kL,kH=      -1     1   1   1   1 file=DYG
(PID.TID 0000.0001)  MDS_WRITE_FIELD: it,rec,kS,kL,kH=      -1     1   1   1   1 file=DXC
(PID.TID 0000.0001)  MDS_WRITE_FIELD: it,rec,kS,kL,kH=      -1     1   1   1   1 file=DYC
(PID.TID 0000.0001)  MDS_WRITE_FIELD: it,rec,kS,kL,kH=      -1     1   1   1   1 file=Depth
(PID.TID 0000.0001)  MDS_WRITE_FIELD: it,rec,kS,kL,kH=      -1     1   1   1   1 file=rLowC
(PID.TID 0000.0001)  MDS_WRITE_FIELD: it,rec,kS,kL,kH=      -1     1   1   1   1 file=rLowW
(PID.TID 0000.0001)  MDS_WRITE_FIELD: it,rec,kS,kL,kH=      -1     1   1   1   1 file=rLowS
(PID.TID 0000.0001)  MDS_WRITE_FIELD: it,rec,kS,kL,kH=      -1     1   1   1   1 file=rSurfC
(PID.TID 0000.0001)  MDS_WRITE_FIELD: it,rec,kS,kL,kH=      -1     1   1   1   1 file=rSurfW
(PID.TID 0000.0001)  MDS_WRITE_FIELD: it,rec,kS,kL,kH=      -1     1   1   1   1 file=rSurfS
(PID.TID 0000.0001)  MDS_WRITE_FIELD: it,rec,kS,kL,kH=       0     1  30   1  30 file=hFacC
(PID.TID 0000.0001)  MDS_WRITE_FIELD: it,rec,kS,kL,kH=       0     1  30   1  30 file=hFacW
(PID.TID 0000.0001)  MDS_WRITE_FIELD: it,rec,kS,kL,kH=       0     1  30   1  30 file=hFacS
(PID.TID 0000.0001)  MDS_WRITE_FIELD: it,rec,kS,kL,kH=      -1     1   1   1   1 file=maskInC
(PID.TID 0000.0001)  MDS_WRITE_FIELD: it,rec,kS,kL,kH=      -1     1   1   1   1 file=maskInW
(PID.TID 0000.0001)  MDS_WRITE_FIELD: it,rec,kS,kL,kH=      -1     1   1   1   1 file=maskInS
(PID.TID 0000.0001)  MDS_WRITEVEC_LOC: open file: RC.data
(PID.TID 0000.0001)  MDS_WRITEVEC_LOC: open file: RF.data
(PID.TID 0000.0001)  MDS_WRITEVEC_LOC: open file: DRC.data
(PID.TID 0000.0001)  MDS_WRITEVEC_LOC: open file: DRF.data
(PID.TID 0000.0001)  MDS_WRITEVEC_LOC: open file: PHrefF.data
(PID.TID 0000.0001)  MDS_WRITEVEC_LOC: open file: PHrefC.data
(PID.TID 0000.0001) // =======================================================
(PID.TID 0000.0001) // Field Initial Temperature at iteration          1
(PID.TID 0000.0001) // CMIN =         -1.900000000000000E+00
(PID.TID 0000.0001) // CMAX =         -1.900000000000000E+00
(PID.TID 0000.0001) // CINT =          0.000000000000000E+00
(PID.TID 0000.0001) // SYMBOLS (CMIN->CMAX): -abcdefghijklmnopqrstuvwxyz+
(PID.TID 0000.0001) //                  0.0: .
(PID.TID 0000.0001) // RANGE I (Lo:Hi:Step):(     1:    50:     1)
(PID.TID 0000.0001) // RANGE J (Lo:Hi:Step):(   100:     1:    -1)
(PID.TID 0000.0001) // RANGE K (Lo:Hi:Step):(   1:   1:   1)
(PID.TID 0000.0001) // =======================================================
(PID.TID 0000.0001) // =======================================================
(PID.TID 0000.0001) // END OF FIELD                                          =
(PID.TID 0000.0001) // =======================================================
(PID.TID 0000.0001) 
(PID.TID 0000.0001) // =======================================================
(PID.TID 0000.0001) // Field Initial Salinity at iteration          1
(PID.TID 0000.0001) // CMIN =          3.440000000000000E+01
(PID.TID 0000.0001) // CMAX =          3.440000000000000E+01
(PID.TID 0000.0001) // CINT =          0.000000000000000E+00
(PID.TID 0000.0001) // SYMBOLS (CMIN->CMAX): -abcdefghijklmnopqrstuvwxyz+
(PID.TID 0000.0001) //                  0.0: .
(PID.TID 0000.0001) // RANGE I (Lo:Hi:Step):(     1:    50:     1)
(PID.TID 0000.0001) // RANGE J (Lo:Hi:Step):(   100:     1:    -1)
(PID.TID 0000.0001) // RANGE K (Lo:Hi:Step):(   1:   1:   1)
(PID.TID 0000.0001) // =======================================================
(PID.TID 0000.0001) // =======================================================
(PID.TID 0000.0001) // END OF FIELD                                          =
(PID.TID 0000.0001) // =======================================================
(PID.TID 0000.0001) 
(PID.TID 0000.0001) Start initial hydrostatic pressure computation
(PID.TID 0000.0001) Pressure is predetermined for buoyancyRelation OCEANIC
(PID.TID 0000.0001) 
(PID.TID 0000.0001)  write diagnostics summary to file ioUnit:      6
Iter.Nb:         0 ; Time(s):  0.0000000000000E+00
------------------------------------------------------------------------
2D/3D diagnostics: Number of lists:     1
------------------------------------------------------------------------
listId=    1 ; file name: dynDiag
 nFlds, nActive,       freq     &     phase        , nLev               
   11  |   11  |   5184000.000000         0.000000 |  30
 levels:   1   2   3   4   5   6   7   8   9  10  11  12  13  14  15  16  17  18  19  20  21  22  23  24  25
 levels:  26  27  28  29  30
 diag# | name   |   ipt  |  iMate | kLev|   count |   mate.C|           
    30 |UVEL    |      1 |     31 |  30 |       0 |       0 |
    31 |VVEL    |     31 |      1 |  30 |       0 |       0 |
    32 |WVEL    |     61 |      0 |  30 |       0 |
    71 |PHIHYD  |     91 |      0 |  30 |       0 |
    46 |VVELMASS|    121 |    151 |  30 |       0 |       0 |
    45 |UVELMASS|    151 |    121 |  30 |       0 |       0 |
    38 |WVELSQ  |    181 |      0 |  30 |       0 |
    26 |THETA   |    211 |      0 |  30 |       0 |
    27 |SALT    |    241 |      0 |  30 |       0 |
   198 |SHIUDrag|    271 |    301 |  30 |       0 |       0 |
   199 |SHIVDrag|    301 |    271 |  30 |       0 |       0 |
------------------------------------------------------------------------
Global & Regional Statistics diagnostics: Number of lists:     1
------------------------------------------------------------------------
listId=   1 ; file name: dynStDiag
 nFlds, nActive,       freq     &     phase        |                    
    6  |    6  |     86400.000000         0.000000 |
 Regions:   0  1  2
 diag# | name   |   ipt  |  iMate |    Volume   |   mate-Vol. |         
    23 |ETAN    |      1 |      0 | 0.00000E+00 |
    30 |UVEL    |      2 |      0 | 0.00000E+00 |
    31 |VVEL    |     32 |      0 | 0.00000E+00 |
    32 |WVEL    |     62 |      0 | 0.00000E+00 |
    26 |THETA   |     92 |      0 | 0.00000E+00 |
    27 |SALT    |    122 |      0 | 0.00000E+00 |
------------------------------------------------------------------------
(PID.TID 0000.0001)  OBCS_FIELDS_LOAD: Reading initial data:         0  0.000000000000E+00
(PID.TID 0000.0001) OBCS_balance (it=        0 ) correct for netFreshWaterFlux:  0.00000000E+00
(PID.TID 0000.0001) OBCS_balance (it=        0 ) correct for shelfIceNetMassFlux:  3.53584581E+05
(PID.TID 0000.0001) OBCS_balance (it=        0 ) correct for inFlow:  0.00000000E+00  0.00000000E+00
(PID.TID 0000.0001) OBCS_balance correction to OBEu,OBWu:  7.06241467E-04 -7.06241467E-04
(PID.TID 0000.0001) OBCS_balance correction to OBNv,OBSv:  7.06241467E-04 -7.06241467E-04
(PID.TID 0000.0001) // =======================================================
(PID.TID 0000.0001) // Model current state
(PID.TID 0000.0001) // =======================================================
(PID.TID 0000.0001) 
(PID.TID 0000.0001) // =======================================================
(PID.TID 0000.0001) // Begin MONITOR dynamic field statistics
(PID.TID 0000.0001) // =======================================================
(PID.TID 0000.0001) %MON time_tsnumber                =                     0
(PID.TID 0000.0001) %MON time_secondsf                =   0.0000000000000E+00
(PID.TID 0000.0001) %MON dynstat_eta_max              =   0.0000000000000E+00
(PID.TID 0000.0001) %MON dynstat_eta_min              =   0.0000000000000E+00
(PID.TID 0000.0001) %MON dynstat_eta_mean             =   0.0000000000000E+00
(PID.TID 0000.0001) %MON dynstat_eta_sd               =   0.0000000000000E+00
(PID.TID 0000.0001) %MON dynstat_eta_del2             =   0.0000000000000E+00
(PID.TID 0000.0001) %MON dynstat_uvel_max             =   0.0000000000000E+00
(PID.TID 0000.0001) %MON dynstat_uvel_min             =   0.0000000000000E+00
(PID.TID 0000.0001) %MON dynstat_uvel_mean            =   0.0000000000000E+00
(PID.TID 0000.0001) %MON dynstat_uvel_sd              =   0.0000000000000E+00
(PID.TID 0000.0001) %MON dynstat_uvel_del2            =   0.0000000000000E+00
(PID.TID 0000.0001) %MON dynstat_vvel_max             =   7.0624146672442E-04
(PID.TID 0000.0001) %MON dynstat_vvel_min             =   0.0000000000000E+00
(PID.TID 0000.0001) %MON dynstat_vvel_mean            =   1.1477303311954E-05
(PID.TID 0000.0001) %MON dynstat_vvel_sd              =   8.9297362972040E-05
(PID.TID 0000.0001) %MON dynstat_vvel_del2            =   2.3788474409353E-07
(PID.TID 0000.0001) %MON dynstat_wvel_max             =   0.0000000000000E+00
(PID.TID 0000.0001) %MON dynstat_wvel_min             =   0.0000000000000E+00
(PID.TID 0000.0001) %MON dynstat_wvel_mean            =   0.0000000000000E+00
(PID.TID 0000.0001) %MON dynstat_wvel_sd              =   0.0000000000000E+00
(PID.TID 0000.0001) %MON dynstat_wvel_del2            =   0.0000000000000E+00
(PID.TID 0000.0001) %MON dynstat_theta_max            =  -1.9000000000000E+00
(PID.TID 0000.0001) %MON dynstat_theta_min            =  -1.9000000000000E+00
(PID.TID 0000.0001) %MON dynstat_theta_mean           =  -1.9000000000001E+00
(PID.TID 0000.0001) %MON dynstat_theta_sd             =   1.1368683772162E-13
(PID.TID 0000.0001) %MON dynstat_theta_del2           =   0.0000000000000E+00
(PID.TID 0000.0001) %MON dynstat_salt_max             =   3.4400000000000E+01
(PID.TID 0000.0001) %MON dynstat_salt_min             =   3.4400000000000E+01
(PID.TID 0000.0001) %MON dynstat_salt_mean            =   3.4400000000001E+01
(PID.TID 0000.0001) %MON dynstat_salt_sd              =   7.3896444519050E-13
(PID.TID 0000.0001) %MON dynstat_salt_del2            =   0.0000000000000E+00
(PID.TID 0000.0001) %MON trAdv_CFL_u_max              =   0.0000000000000E+00
(PID.TID 0000.0001) %MON trAdv_CFL_v_max              =   0.0000000000000E+00
(PID.TID 0000.0001) %MON trAdv_CFL_w_max              =   0.0000000000000E+00
(PID.TID 0000.0001) %MON advcfl_uvel_max              =   0.0000000000000E+00
(PID.TID 0000.0001) %MON advcfl_vvel_max              =   1.1434282519433E-04
(PID.TID 0000.0001) %MON advcfl_wvel_max              =   0.0000000000000E+00
(PID.TID 0000.0001) %MON advcfl_W_hf_max              =   0.0000000000000E+00
(PID.TID 0000.0001) %MON pe_b_mean                    =   0.0000000000000E+00
(PID.TID 0000.0001) %MON ke_max                       =   1.2499564388918E-07
(PID.TID 0000.0001) %MON ke_mean                      =   2.0326669033501E-09
(PID.TID 0000.0001) %MON ke_vol                       =   3.4145786752861E+14
(PID.TID 0000.0001) %MON vort_r_min                   =  -6.2208789959684E-08
(PID.TID 0000.0001) %MON vort_r_max                   =   6.2208789959684E-08
(PID.TID 0000.0001) %MON vort_a_mean                  =  -1.3992981969631E-04
(PID.TID 0000.0001) %MON vort_a_sd                    =   1.7365072537249E-06
(PID.TID 0000.0001) %MON vort_p_mean                  =  -1.4746660593269E-04
(PID.TID 0000.0001) %MON vort_p_sd                    =   7.7973631916445E-05
(PID.TID 0000.0001) %MON surfExpan_theta_mean         =   0.0000000000000E+00
(PID.TID 0000.0001) %MON surfExpan_salt_mean          =   0.0000000000000E+00
(PID.TID 0000.0001) // =======================================================
(PID.TID 0000.0001) // End MONITOR dynamic field statistics
(PID.TID 0000.0001) // =======================================================
(PID.TID 0000.0001)  MDS_WRITE_FIELD: it,rec,kS,kL,kH=       0     1  30   1  30 file=U.0000000000
(PID.TID 0000.0001)  MDS_WRITE_FIELD: it,rec,kS,kL,kH=       0     1  30   1  30 file=V.0000000000
(PID.TID 0000.0001)  MDS_WRITE_FIELD: it,rec,kS,kL,kH=       0     1  30   1  30 file=T.0000000000
(PID.TID 0000.0001)  MDS_WRITE_FIELD: it,rec,kS,kL,kH=       0     1  30   1  30 file=S.0000000000
(PID.TID 0000.0001)  MDS_WRITE_FIELD: it,rec,kS,kL,kH=       0     1   1   1   1 file=Eta.0000000000
(PID.TID 0000.0001)  MDS_WRITE_FIELD: it,rec,kS,kL,kH=       0     1  30   1  30 file=W.0000000000
(PID.TID 0000.0001) // =======================================================
(PID.TID 0000.0001) // Begin OBCS MONITOR field statistics
(PID.TID 0000.0001) // =======================================================
(PID.TID 0000.0001) %MON obc_time_tsnumber            =                     0
(PID.TID 0000.0001) %MON obc_time_secondsf            =   0.0000000000000E+00
(PID.TID 0000.0001) %MON obc_N_vVel_max               =   7.0624146672442E-04
(PID.TID 0000.0001) %MON obc_N_vVel_min               =   7.0624146672442E-04
(PID.TID 0000.0001) %MON obc_N_vVel_mean              =   7.0624146672440E-04
(PID.TID 0000.0001) %MON obc_N_vVel_sd                =   1.2131445692309E-10
(PID.TID 0000.0001) %MON obc_N_vVel_Int               =   3.5358458052541E+05
(PID.TID 0000.0001) %MON obc_N_theta_max              =  -1.9000000000000E+00
(PID.TID 0000.0001) %MON obc_N_theta_min              =  -1.9000000000000E+00
(PID.TID 0000.0001) %MON obc_N_theta_mean             =  -1.9000000000000E+00
(PID.TID 0000.0001) %MON obc_N_theta_sd               =   1.1733186057228E-07
(PID.TID 0000.0001) // =======================================================
(PID.TID 0000.0001) // End OBCS MONITOR field statistics
(PID.TID 0000.0001) // =======================================================
(PID.TID 0000.0001) OBCS_balance (it=        1 ) correct for netFreshWaterFlux:  0.00000000E+00
(PID.TID 0000.0001) OBCS_balance (it=        1 ) correct for shelfIceNetMassFlux:  3.53378404E+05
(PID.TID 0000.0001) OBCS_balance (it=        1 ) correct for inFlow:  0.00000000E+00  0.00000000E+00
(PID.TID 0000.0001) OBCS_balance correction to OBEu,OBWu:  7.05829655E-04 -7.05829655E-04
(PID.TID 0000.0001) OBCS_balance correction to OBNv,OBSv:  7.05829655E-04 -7.05829655E-04
(PID.TID 0000.0001) SOLVE_FOR_PRESSURE: putPmEinXvector =    F
(PID.TID 0000.0001) SOLVE_FOR_PRESSURE: zeroPsNH=    F , zeroMeanPnh=    F
(PID.TID 0000.0001) SOLVE_FOR_PRESSURE: oldFreeSurfTerm =    F
 cg2d: Sum(rhs),rhsMax =   1.93051006195996E+01  8.80202029899560E-03
(PID.TID 0000.0001)      cg2d_init_res =   9.99358447911503E+00
(PID.TID 0000.0001)      cg2d_iters(min,last) =      -1     215
(PID.TID 0000.0001)      cg2d_last_res =   9.62944337925059E-14
(PID.TID 0000.0001) // =======================================================
(PID.TID 0000.0001) // Begin MONITOR dynamic field statistics
(PID.TID 0000.0001) // =======================================================
(PID.TID 0000.0001) %MON time_tsnumber                =                     1
(PID.TID 0000.0001) %MON time_secondsf                =   1.8000000000000E+03
(PID.TID 0000.0001) %MON dynstat_eta_max              =   1.2580869410963E-03
(PID.TID 0000.0001) %MON dynstat_eta_min              =  -6.8666866500054E-03
(PID.TID 0000.0001) %MON dynstat_eta_mean             =  -1.3818751072781E-03
(PID.TID 0000.0001) %MON dynstat_eta_sd               =   1.7760873903952E-03
(PID.TID 0000.0001) %MON dynstat_eta_del2             =   4.1094800540007E-06
(PID.TID 0000.0001) %MON dynstat_uvel_max             =   1.7014811824012E-05
(PID.TID 0000.0001) %MON dynstat_uvel_min             =  -8.5506233163702E-05
(PID.TID 0000.0001) %MON dynstat_uvel_mean            =  -6.3228509354945E-07
(PID.TID 0000.0001) %MON dynstat_uvel_sd              =   1.0373822655853E-05
(PID.TID 0000.0001) %MON dynstat_uvel_del2            =   6.3772481849953E-08
(PID.TID 0000.0001) %MON dynstat_vvel_max             =   7.0582965488353E-04
(PID.TID 0000.0001) %MON dynstat_vvel_min             =   3.4668519413419E-05
(PID.TID 0000.0001) %MON dynstat_vvel_mean            =   2.3212565787086E-04
(PID.TID 0000.0001) %MON dynstat_vvel_sd              =   1.5488561110641E-04
(PID.TID 0000.0001) %MON dynstat_vvel_del2            =   1.3959618807850E-08
(PID.TID 0000.0001) %MON dynstat_wvel_max             =   1.7713531837006E-06
(PID.TID 0000.0001) %MON dynstat_wvel_min             =  -9.7101077746375E-19
(PID.TID 0000.0001) %MON dynstat_wvel_mean            =   3.2363364983265E-08
(PID.TID 0000.0001) %MON dynstat_wvel_sd              =   1.2364648003119E-07
(PID.TID 0000.0001) %MON dynstat_wvel_del2            =   8.1153688765118E-10
(PID.TID 0000.0001) %MON dynstat_theta_max            =  -1.9000000000000E+00
(PID.TID 0000.0001) %MON dynstat_theta_min            =  -1.9000112213776E+00
(PID.TID 0000.0001) %MON dynstat_theta_mean           =  -1.9000001013622E+00
(PID.TID 0000.0001) %MON dynstat_theta_sd             =   7.6836348628903E-07
(PID.TID 0000.0001) %MON dynstat_theta_del2           =   9.1680479180359E-10
(PID.TID 0000.0001) %MON dynstat_salt_max             =   3.4400000000000E+01
(PID.TID 0000.0001) %MON dynstat_salt_min             =   3.4399995863593E+01
(PID.TID 0000.0001) %MON dynstat_salt_mean            =   3.4399999962613E+01
(PID.TID 0000.0001) %MON dynstat_salt_sd              =   2.8337060320929E-07
(PID.TID 0000.0001) %MON dynstat_salt_del2            =   3.3813505784612E-10
(PID.TID 0000.0001) %MON trAdv_CFL_u_max              =   0.0000000000000E+00
(PID.TID 0000.0001) %MON trAdv_CFL_v_max              =   1.1461919689304E-04
(PID.TID 0000.0001) %MON trAdv_CFL_w_max              =   0.0000000000000E+00
(PID.TID 0000.0001) %MON advcfl_uvel_max              =   1.3589927897175E-05
(PID.TID 0000.0001) %MON advcfl_vvel_max              =   1.1427615149765E-04
(PID.TID 0000.0001) %MON advcfl_wvel_max              =   1.0628119102204E-04
(PID.TID 0000.0001) %MON advcfl_W_hf_max              =   1.0628119102204E-04
(PID.TID 0000.0001) %MON pe_b_mean                    =   1.0870981158447E-06
(PID.TID 0000.0001) %MON ke_max                       =   2.4954179214053E-07
(PID.TID 0000.0001) %MON ke_mean                      =   3.7078249072226E-08
(PID.TID 0000.0001) %MON ke_vol                       =   3.4145786752861E+14
(PID.TID 0000.0001) %MON vort_r_min                   =  -6.2461632241779E-08
(PID.TID 0000.0001) %MON vort_r_max                   =   6.2172515799189E-08
(PID.TID 0000.0001) %MON vort_a_mean                  =  -1.3992981969631E-04
(PID.TID 0000.0001) %MON vort_a_sd                    =   1.7365127314049E-06
(PID.TID 0000.0001) %MON vort_p_mean                  =  -1.4746660593269E-04
(PID.TID 0000.0001) %MON vort_p_sd                    =   7.7973686880528E-05
(PID.TID 0000.0001) %MON surfExpan_theta_mean         =   1.4586460179786E-06
(PID.TID 0000.0001) %MON surfExpan_salt_mean          =  -2.6409168690527E-05
(PID.TID 0000.0001) // =======================================================
(PID.TID 0000.0001) // End MONITOR dynamic field statistics
(PID.TID 0000.0001) // =======================================================
(PID.TID 0000.0001) // =======================================================
(PID.TID 0000.0001) // Begin OBCS MONITOR field statistics
(PID.TID 0000.0001) // =======================================================
(PID.TID 0000.0001) %MON obc_time_tsnumber            =                     1
(PID.TID 0000.0001) %MON obc_time_secondsf            =   1.8000000000000E+03
(PID.TID 0000.0001) %MON obc_N_vVel_max               =   7.0582965488353E-04
(PID.TID 0000.0001) %MON obc_N_vVel_min               =   7.0582965488353E-04
(PID.TID 0000.0001) %MON obc_N_vVel_mean              =   7.0582965488352E-04
(PID.TID 0000.0001) %MON obc_N_vVel_sd                =   9.4866880757074E-11
(PID.TID 0000.0001) %MON obc_N_vVel_Int               =   3.5337840413408E+05
(PID.TID 0000.0001) %MON obc_N_theta_max              =  -1.9000000000000E+00
(PID.TID 0000.0001) %MON obc_N_theta_min              =  -1.9000000000000E+00
(PID.TID 0000.0001) %MON obc_N_theta_mean             =  -1.9000000000000E+00
(PID.TID 0000.0001) %MON obc_N_theta_sd               =   1.1733186057228E-07
(PID.TID 0000.0001) // =======================================================
(PID.TID 0000.0001) // End OBCS MONITOR field statistics
(PID.TID 0000.0001) // =======================================================
(PID.TID 0000.0001) OBCS_balance (it=        2 ) correct for netFreshWaterFlux:  0.00000000E+00
(PID.TID 0000.0001) OBCS_balance (it=        2 ) correct for shelfIceNetMassFlux:  3.53378408E+05
(PID.TID 0000.0001) OBCS_balance (it=        2 ) correct for inFlow:  0.00000000E+00  0.00000000E+00
(PID.TID 0000.0001) OBCS_balance correction to OBEu,OBWu:  7.05829662E-04 -7.05829662E-04
(PID.TID 0000.0001) OBCS_balance correction to OBNv,OBSv:  7.05829662E-04 -7.05829662E-04
 cg2d: Sum(rhs),rhsMax =   1.46119349983044E+01  2.32582321855888E-02
(PID.TID 0000.0001)      cg2d_init_res =   5.92154439037976E+00
(PID.TID 0000.0001)      cg2d_iters(min,last) =      -1     215
(PID.TID 0000.0001)      cg2d_last_res =   9.63706518375752E-14
(PID.TID 0000.0001) // =======================================================
(PID.TID 0000.0001) // Begin MONITOR dynamic field statistics
(PID.TID 0000.0001) // =======================================================
(PID.TID 0000.0001) %MON time_tsnumber                =                     2
(PID.TID 0000.0001) %MON time_secondsf                =   3.6000000000000E+03
(PID.TID 0000.0001) %MON dynstat_eta_max              =   3.6472297494404E-03
(PID.TID 0000.0001) %MON dynstat_eta_min              =  -8.5630985870627E-03
(PID.TID 0000.0001) %MON dynstat_eta_mean             =  -2.7637502293210E-03
(PID.TID 0000.0001) %MON dynstat_eta_sd               =   2.5161203705443E-03
(PID.TID 0000.0001) %MON dynstat_eta_del2             =   1.0704177351961E-05
(PID.TID 0000.0001) %MON dynstat_uvel_max             =   3.7488761449124E-05
(PID.TID 0000.0001) %MON dynstat_uvel_min             =  -2.4444813937206E-04
(PID.TID 0000.0001) %MON dynstat_uvel_mean            =  -3.6395242588209E-05
(PID.TID 0000.0001) %MON dynstat_uvel_sd              =   4.3400801814444E-05
(PID.TID 0000.0001) %MON dynstat_uvel_del2            =   8.5615167296539E-08
(PID.TID 0000.0001) %MON dynstat_vvel_max             =   7.6720768223254E-04
(PID.TID 0000.0001) %MON dynstat_vvel_min             =   8.3955139542195E-05
(PID.TID 0000.0001) %MON dynstat_vvel_mean            =   5.2785646605424E-04
(PID.TID 0000.0001) %MON dynstat_vvel_sd              =   1.2809037829506E-04
(PID.TID 0000.0001) %MON dynstat_vvel_del2            =   4.5941779362150E-08
(PID.TID 0000.0001) %MON dynstat_wvel_max             =   7.2927917912692E-06
(PID.TID 0000.0001) %MON dynstat_wvel_min             =  -2.8221284295419E-09
(PID.TID 0000.0001) %MON dynstat_wvel_mean            =   1.1058021326620E-07
(PID.TID 0000.0001) %MON dynstat_wvel_sd              =   4.5378501618822E-07
(PID.TID 0000.0001) %MON dynstat_wvel_del2            =   3.0242047572420E-09
(PID.TID 0000.0001) %MON dynstat_theta_max            =  -1.9000000000000E+00
(PID.TID 0000.0001) %MON dynstat_theta_min            =  -1.9000224401761E+00
(PID.TID 0000.0001) %MON dynstat_theta_mean           =  -1.9000002027216E+00
(PID.TID 0000.0001) %MON dynstat_theta_sd             =   1.5362771628576E-06
(PID.TID 0000.0001) %MON dynstat_theta_del2           =   1.8296845895027E-09
(PID.TID 0000.0001) %MON dynstat_salt_max             =   3.4400000000000E+01
(PID.TID 0000.0001) %MON dynstat_salt_min             =   3.4399991728136E+01
(PID.TID 0000.0001) %MON dynstat_salt_mean            =   3.4399999925225E+01
(PID.TID 0000.0001) %MON dynstat_salt_sd              =   5.6657532281636E-07
(PID.TID 0000.0001) %MON dynstat_salt_del2            =   6.7482243621754E-10
(PID.TID 0000.0001) %MON trAdv_CFL_u_max              =   1.3589929622061E-05
(PID.TID 0000.0001) %MON trAdv_CFL_v_max              =   1.1455236204307E-04
(PID.TID 0000.0001) %MON trAdv_CFL_w_max              =   1.0628119102204E-04
(PID.TID 0000.0001) %MON advcfl_uvel_max              =   3.8851349963047E-05
(PID.TID 0000.0001) %MON advcfl_vvel_max              =   1.2421345677157E-04
(PID.TID 0000.0001) %MON advcfl_wvel_max              =   4.3756750747615E-04
(PID.TID 0000.0001) %MON advcfl_W_hf_max              =   4.3756737572138E-04
(PID.TID 0000.0001) %MON pe_b_mean                    =   4.8398444672274E-06
(PID.TID 0000.0001) %MON ke_max                       =   2.9390148567804E-07
(PID.TID 0000.0001) %MON ke_mean                      =   1.4751442216707E-07
(PID.TID 0000.0001) %MON ke_vol                       =   3.4145723144749E+14
(PID.TID 0000.0001) %MON vort_r_min                   =  -9.5047301846148E-08
(PID.TID 0000.0001) %MON vort_r_max                   =   9.1053692306773E-08
(PID.TID 0000.0001) %MON vort_a_mean                  =  -1.3992981969631E-04
(PID.TID 0000.0001) %MON vort_a_sd                    =   1.7364142469015E-06
(PID.TID 0000.0001) %MON vort_p_mean                  =  -1.4746687361505E-04
(PID.TID 0000.0001) %MON vort_p_sd                    =   7.7974560144312E-05
(PID.TID 0000.0001) %MON surfExpan_theta_mean         =   1.4586464367329E-06
(PID.TID 0000.0001) %MON surfExpan_salt_mean          =  -2.6409168824054E-05
(PID.TID 0000.0001) // =======================================================
(PID.TID 0000.0001) // End MONITOR dynamic field statistics
(PID.TID 0000.0001) // =======================================================
(PID.TID 0000.0001) // =======================================================
(PID.TID 0000.0001) // Begin OBCS MONITOR field statistics
(PID.TID 0000.0001) // =======================================================
(PID.TID 0000.0001) %MON obc_time_tsnumber            =                     2
(PID.TID 0000.0001) %MON obc_time_secondsf            =   3.6000000000000E+03
(PID.TID 0000.0001) %MON obc_N_vVel_max               =   7.0582966242499E-04
(PID.TID 0000.0001) %MON obc_N_vVel_min               =   7.0582966242499E-04
(PID.TID 0000.0001) %MON obc_N_vVel_mean              =   7.0582966242498E-04
(PID.TID 0000.0001) %MON obc_N_vVel_sd                =  -7.4115382884751E-22
(PID.TID 0000.0001) %MON obc_N_vVel_Int               =   3.5337840790976E+05
(PID.TID 0000.0001) %MON obc_N_theta_max              =  -1.9000000000000E+00
(PID.TID 0000.0001) %MON obc_N_theta_min              =  -1.9000000000000E+00
(PID.TID 0000.0001) %MON obc_N_theta_mean             =  -1.9000000000000E+00
(PID.TID 0000.0001) %MON obc_N_theta_sd               =   1.1733186057228E-07
(PID.TID 0000.0001) // =======================================================
(PID.TID 0000.0001) // End OBCS MONITOR field statistics
(PID.TID 0000.0001) // =======================================================
(PID.TID 0000.0001) OBCS_balance (it=        3 ) correct for netFreshWaterFlux:  0.00000000E+00
(PID.TID 0000.0001) OBCS_balance (it=        3 ) correct for shelfIceNetMassFlux:  3.53378412E+05
(PID.TID 0000.0001) OBCS_balance (it=        3 ) correct for inFlow:  0.00000000E+00  0.00000000E+00
(PID.TID 0000.0001) OBCS_balance correction to OBEu,OBWu:  7.05829670E-04 -7.05829670E-04
(PID.TID 0000.0001) OBCS_balance correction to OBNv,OBSv:  7.05829670E-04 -7.05829670E-04
 cg2d: Sum(rhs),rhsMax =   1.55930276269938E+01  3.26922827448071E-02
(PID.TID 0000.0001)      cg2d_init_res =   2.61585970412174E+00
(PID.TID 0000.0001)      cg2d_iters(min,last) =      -1     214
(PID.TID 0000.0001)      cg2d_last_res =   8.32407394052720E-14
(PID.TID 0000.0001) // =======================================================
(PID.TID 0000.0001) // Begin MONITOR dynamic field statistics
(PID.TID 0000.0001) // =======================================================
(PID.TID 0000.0001) %MON time_tsnumber                =                     3
(PID.TID 0000.0001) %MON time_secondsf                =   5.4000000000000E+03
(PID.TID 0000.0001) %MON dynstat_eta_max              =   5.4169925466883E-03
(PID.TID 0000.0001) %MON dynstat_eta_min              =  -1.1408677131053E-02
(PID.TID 0000.0001) %MON dynstat_eta_mean             =  -4.1456253661203E-03
(PID.TID 0000.0001) %MON dynstat_eta_sd               =   3.3326196475074E-03
(PID.TID 0000.0001) %MON dynstat_eta_del2             =   1.4837121384320E-05
(PID.TID 0000.0001) %MON dynstat_uvel_max             =   1.4879786506530E-04
(PID.TID 0000.0001) %MON dynstat_uvel_min             =  -2.7864810953676E-04
(PID.TID 0000.0001) %MON dynstat_uvel_mean            =  -6.6715087828349E-05
(PID.TID 0000.0001) %MON dynstat_uvel_sd              =   5.7911792076896E-05
(PID.TID 0000.0001) %MON dynstat_uvel_del2            =   9.6476246428114E-08
(PID.TID 0000.0001) %MON dynstat_vvel_max             =   1.2047687305656E-03
(PID.TID 0000.0001) %MON dynstat_vvel_min             =   9.3186163518372E-05
(PID.TID 0000.0001) %MON dynstat_vvel_mean            =   8.1417229095357E-04
(PID.TID 0000.0001) %MON dynstat_vvel_sd              =   1.6633578279485E-04
(PID.TID 0000.0001) %MON dynstat_vvel_del2            =   8.9056069673086E-08
(PID.TID 0000.0001) %MON dynstat_wvel_max             =   1.5914839711401E-05
(PID.TID 0000.0001) %MON dynstat_wvel_min             =  -1.2670134622244E-08
(PID.TID 0000.0001) %MON dynstat_wvel_mean            =   1.9940798073926E-07
(PID.TID 0000.0001) %MON dynstat_wvel_sd              =   8.7564616249481E-07
(PID.TID 0000.0001) %MON dynstat_wvel_del2            =   5.9133809035844E-09
(PID.TID 0000.0001) %MON dynstat_theta_max            =  -1.9000000000000E+00
(PID.TID 0000.0001) %MON dynstat_theta_min            =  -1.9000336574118E+00
(PID.TID 0000.0001) %MON dynstat_theta_mean           =  -1.9000003040801E+00
(PID.TID 0000.0001) %MON dynstat_theta_sd             =   2.3039145136981E-06
(PID.TID 0000.0001) %MON dynstat_theta_del2           =   2.7401887889161E-09
(PID.TID 0000.0001) %MON dynstat_salt_max             =   3.4400000000000E+01
(PID.TID 0000.0001) %MON dynstat_salt_min             =   3.4399987593255E+01
(PID.TID 0000.0001) %MON dynstat_salt_mean            =   3.4399999887838E+01
(PID.TID 0000.0001) %MON dynstat_salt_sd              =   8.4967813682013E-07
(PID.TID 0000.0001) %MON dynstat_salt_del2            =   1.0106336325013E-09
(PID.TID 0000.0001) %MON trAdv_CFL_u_max              =   3.8851354917550E-05
(PID.TID 0000.0001) %MON trAdv_CFL_v_max              =   1.2452035454626E-04
(PID.TID 0000.0001) %MON trAdv_CFL_w_max              =   4.3756737572138E-04
(PID.TID 0000.0001) %MON advcfl_uvel_max              =   4.4286920113050E-05
(PID.TID 0000.0001) %MON advcfl_vvel_max              =   1.9505603515123E-04
(PID.TID 0000.0001) %MON advcfl_wvel_max              =   9.5489038268406E-04
(PID.TID 0000.0001) %MON advcfl_W_hf_max              =   9.5488917705889E-04
(PID.TID 0000.0001) %MON pe_b_mean                    =   1.1765654492598E-05
(PID.TID 0000.0001) %MON ke_max                       =   7.2571164345254E-07
(PID.TID 0000.0001) %MON ke_mean                      =   3.4812598013006E-07
(PID.TID 0000.0001) %MON ke_vol                       =   3.4145659536635E+14
(PID.TID 0000.0001) %MON vort_r_min                   =  -1.7344318018964E-07
(PID.TID 0000.0001) %MON vort_r_max                   =   1.5669253263504E-07
(PID.TID 0000.0001) %MON vort_a_mean                  =  -1.3992981969631E-04
(PID.TID 0000.0001) %MON vort_a_sd                    =   1.7363827005175E-06
(PID.TID 0000.0001) %MON vort_p_mean                  =  -1.4746714480741E-04
(PID.TID 0000.0001) %MON vort_p_sd                    =   7.7976689455231E-05
(PID.TID 0000.0001) %MON surfExpan_theta_mean         =   1.4586472251099E-06
(PID.TID 0000.0001) %MON surfExpan_salt_mean          =  -2.6409168821092E-05
(PID.TID 0000.0001) // =======================================================
(PID.TID 0000.0001) // End MONITOR dynamic field statistics
(PID.TID 0000.0001) // =======================================================
(PID.TID 0000.0001) // =======================================================
(PID.TID 0000.0001) // Begin OBCS MONITOR field statistics
(PID.TID 0000.0001) // =======================================================
(PID.TID 0000.0001) %MON obc_time_tsnumber            =                     3
(PID.TID 0000.0001) %MON obc_time_secondsf            =   5.4000000000000E+03
(PID.TID 0000.0001) %MON obc_N_vVel_max               =   7.0582966996227E-04
(PID.TID 0000.0001) %MON obc_N_vVel_min               =   7.0582966996227E-04
(PID.TID 0000.0001) %MON obc_N_vVel_mean              =   7.0582966996225E-04
(PID.TID 0000.0001) %MON obc_N_vVel_sd                =   1.8058451890816E-10
(PID.TID 0000.0001) %MON obc_N_vVel_Int               =   3.5337841168335E+05
(PID.TID 0000.0001) %MON obc_N_theta_max              =  -1.9000000000000E+00
(PID.TID 0000.0001) %MON obc_N_theta_min              =  -1.9000000000000E+00
(PID.TID 0000.0001) %MON obc_N_theta_mean             =  -1.9000000000000E+00
(PID.TID 0000.0001) %MON obc_N_theta_sd               =   1.1733186057228E-07
(PID.TID 0000.0001) // =======================================================
(PID.TID 0000.0001) // End OBCS MONITOR field statistics
(PID.TID 0000.0001) // =======================================================
(PID.TID 0000.0001) OBCS_balance (it=        4 ) correct for netFreshWaterFlux:  0.00000000E+00
(PID.TID 0000.0001) OBCS_balance (it=        4 ) correct for shelfIceNetMassFlux:  3.53378249E+05
(PID.TID 0000.0001) OBCS_balance (it=        4 ) correct for inFlow:  0.00000000E+00  0.00000000E+00
(PID.TID 0000.0001) OBCS_balance correction to OBEu,OBWu:  7.05829345E-04 -7.05829345E-04
(PID.TID 0000.0001) OBCS_balance correction to OBNv,OBSv:  7.05829345E-04 -7.05829345E-04
 cg2d: Sum(rhs),rhsMax =   1.61973812053576E+01  4.19632946985064E-02
(PID.TID 0000.0001)      cg2d_init_res =   2.02754443066592E+00
(PID.TID 0000.0001)      cg2d_iters(min,last) =      -1     213
(PID.TID 0000.0001)      cg2d_last_res =   6.80542142083025E-14
(PID.TID 0000.0001) // =======================================================
(PID.TID 0000.0001) // Begin MONITOR dynamic field statistics
(PID.TID 0000.0001) // =======================================================
(PID.TID 0000.0001) %MON time_tsnumber                =                     4
(PID.TID 0000.0001) %MON time_secondsf                =   7.2000000000000E+03
(PID.TID 0000.0001) %MON dynstat_eta_max              =   6.5924067691488E-03
(PID.TID 0000.0001) %MON dynstat_eta_min              =  -1.9965969002058E-02
(PID.TID 0000.0001) %MON dynstat_eta_mean             =  -5.5274998659739E-03
(PID.TID 0000.0001) %MON dynstat_eta_sd               =   5.1935792250040E-03
(PID.TID 0000.0001) %MON dynstat_eta_del2             =   1.8949119802682E-05
(PID.TID 0000.0001) %MON dynstat_uvel_max             =   3.2892446775840E-04
(PID.TID 0000.0001) %MON dynstat_uvel_min             =  -2.4576430434050E-04
(PID.TID 0000.0001) %MON dynstat_uvel_mean            =  -7.1344752504337E-05
(PID.TID 0000.0001) %MON dynstat_uvel_sd              =   6.7945305169551E-05
(PID.TID 0000.0001) %MON dynstat_uvel_del2            =   1.1455857980001E-07
(PID.TID 0000.0001) %MON dynstat_vvel_max             =   1.7310733624647E-03
(PID.TID 0000.0001) %MON dynstat_vvel_min             =   7.4801143921643E-05
(PID.TID 0000.0001) %MON dynstat_vvel_mean            =   1.0603403678854E-03
(PID.TID 0000.0001) %MON dynstat_vvel_sd              =   2.8676656640129E-04
(PID.TID 0000.0001) %MON dynstat_vvel_del2            =   1.3167302245266E-07
(PID.TID 0000.0001) %MON dynstat_wvel_max             =   2.6014892764483E-05
(PID.TID 0000.0001) %MON dynstat_wvel_min             =  -1.0723483041108E-07
(PID.TID 0000.0001) %MON dynstat_wvel_mean            =   2.8154944283239E-07
(PID.TID 0000.0001) %MON dynstat_wvel_sd              =   1.2830381660446E-06
(PID.TID 0000.0001) %MON dynstat_wvel_del2            =   8.7541060790907E-09
(PID.TID 0000.0001) %MON dynstat_theta_max            =  -1.8999999999989E+00
(PID.TID 0000.0001) %MON dynstat_theta_min            =  -1.9000448730412E+00
(PID.TID 0000.0001) %MON dynstat_theta_mean           =  -1.9000004055687E+00
(PID.TID 0000.0001) %MON dynstat_theta_sd             =   3.0716575352470E-06
(PID.TID 0000.0001) %MON dynstat_theta_del2           =   3.6487790450607E-09
(PID.TID 0000.0001) %MON dynstat_salt_max             =   3.4400000000000E+01
(PID.TID 0000.0001) %MON dynstat_salt_min             =   3.4399983458966E+01
(PID.TID 0000.0001) %MON dynstat_salt_mean            =   3.4399999850403E+01
(PID.TID 0000.0001) %MON dynstat_salt_sd              =   1.1328201580708E-06
(PID.TID 0000.0001) %MON dynstat_salt_del2            =   1.3457391514894E-09
(PID.TID 0000.0001) %MON trAdv_CFL_u_max              =   4.4286926633465E-05
(PID.TID 0000.0001) %MON trAdv_CFL_v_max              =   1.9583996884791E-04
(PID.TID 0000.0001) %MON trAdv_CFL_w_max              =   9.5488917705889E-04
(PID.TID 0000.0001) %MON advcfl_uvel_max              =   9.7964772526588E-05
(PID.TID 0000.0001) %MON advcfl_vvel_max              =   2.8026649270666E-04
(PID.TID 0000.0001) %MON advcfl_wvel_max              =   1.5608935658690E-03
(PID.TID 0000.0001) %MON advcfl_W_hf_max              =   1.5608895573002E-03
(PID.TID 0000.0001) %MON pe_b_mean                    =   2.1648054522138E-05
(PID.TID 0000.0001) %MON ke_max                       =   1.4953998188335E-06
(PID.TID 0000.0001) %MON ke_mean                      =   6.0785712545857E-07
(PID.TID 0000.0001) %MON ke_vol                       =   3.4145595928521E+14
(PID.TID 0000.0001) %MON vort_r_min                   =  -2.5232840482661E-07
(PID.TID 0000.0001) %MON vort_r_max                   =   2.1494709223589E-07
(PID.TID 0000.0001) %MON vort_a_mean                  =  -1.3992981969631E-04
(PID.TID 0000.0001) %MON vort_a_sd                    =   1.7364716066784E-06
(PID.TID 0000.0001) %MON vort_p_mean                  =  -1.4746741551739E-04
(PID.TID 0000.0001) %MON vort_p_sd                    =   7.7980803796574E-05
(PID.TID 0000.0001) %MON surfExpan_theta_mean         =   1.4586476185413E-06
(PID.TID 0000.0001) %MON surfExpan_salt_mean          =  -2.6409156255353E-05
(PID.TID 0000.0001) // =======================================================
(PID.TID 0000.0001) // End MONITOR dynamic field statistics
(PID.TID 0000.0001) // =======================================================
(PID.TID 0000.0001) // =======================================================
(PID.TID 0000.0001) // Begin OBCS MONITOR field statistics
(PID.TID 0000.0001) // =======================================================
(PID.TID 0000.0001) %MON obc_time_tsnumber            =                     4
(PID.TID 0000.0001) %MON obc_time_secondsf            =   7.2000000000000E+03
(PID.TID 0000.0001) %MON obc_N_vVel_max               =   7.0582934462521E-04
(PID.TID 0000.0001) %MON obc_N_vVel_min               =   7.0582934462521E-04
(PID.TID 0000.0001) %MON obc_N_vVel_mean              =   7.0582934462519E-04
(PID.TID 0000.0001) %MON obc_N_vVel_sd                =   1.4108605267877E-10
(PID.TID 0000.0001) %MON obc_N_vVel_Int               =   3.5337824880115E+05
(PID.TID 0000.0001) %MON obc_N_theta_max              =  -1.9000000000000E+00
(PID.TID 0000.0001) %MON obc_N_theta_min              =  -1.9000000000000E+00
(PID.TID 0000.0001) %MON obc_N_theta_mean             =  -1.9000000000000E+00
(PID.TID 0000.0001) %MON obc_N_theta_sd               =   1.1733186057228E-07
(PID.TID 0000.0001) // =======================================================
(PID.TID 0000.0001) // End OBCS MONITOR field statistics
(PID.TID 0000.0001) // =======================================================
(PID.TID 0000.0001) OBCS_balance (it=        5 ) correct for netFreshWaterFlux:  0.00000000E+00
(PID.TID 0000.0001) OBCS_balance (it=        5 ) correct for shelfIceNetMassFlux:  3.53343952E+05
(PID.TID 0000.0001) OBCS_balance (it=        5 ) correct for inFlow:  0.00000000E+00  0.00000000E+00
(PID.TID 0000.0001) OBCS_balance correction to OBEu,OBWu:  7.05760840E-04 -7.05760840E-04
(PID.TID 0000.0001) OBCS_balance correction to OBNv,OBSv:  7.05760840E-04 -7.05760840E-04
 cg2d: Sum(rhs),rhsMax =   1.65919397328065E+01  5.12057550466096E-02
(PID.TID 0000.0001)      cg2d_init_res =   1.66522576661169E+00
(PID.TID 0000.0001)      cg2d_iters(min,last) =      -1     211
(PID.TID 0000.0001)      cg2d_last_res =   9.38545894308587E-14
(PID.TID 0000.0001) // =======================================================
(PID.TID 0000.0001) // Begin MONITOR dynamic field statistics
(PID.TID 0000.0001) // =======================================================
(PID.TID 0000.0001) %MON time_tsnumber                =                     5
(PID.TID 0000.0001) %MON time_secondsf                =   9.0000000000000E+03
(PID.TID 0000.0001) %MON dynstat_eta_max              =   7.1599325467348E-03
(PID.TID 0000.0001) %MON dynstat_eta_min              =  -3.0131824508992E-02
(PID.TID 0000.0001) %MON dynstat_eta_mean             =  -6.9092402476903E-03
(PID.TID 0000.0001) %MON dynstat_eta_sd               =   8.1753018903324E-03
(PID.TID 0000.0001) %MON dynstat_eta_del2             =   2.3067830865006E-05
(PID.TID 0000.0001) %MON dynstat_uvel_max             =   6.6126404476644E-04
(PID.TID 0000.0001) %MON dynstat_uvel_min             =  -2.2973360163801E-04
(PID.TID 0000.0001) %MON dynstat_uvel_mean            =  -5.5639935931672E-05
(PID.TID 0000.0001) %MON dynstat_uvel_sd              =   8.5438006777110E-05
(PID.TID 0000.0001) %MON dynstat_uvel_del2            =   1.5450629059817E-07
(PID.TID 0000.0001) %MON dynstat_vvel_max             =   2.2215226919655E-03
(PID.TID 0000.0001) %MON dynstat_vvel_min             =   2.5634805615915E-05
(PID.TID 0000.0001) %MON dynstat_vvel_mean            =   1.2443648291025E-03
(PID.TID 0000.0001) %MON dynstat_vvel_sd              =   3.9914170058403E-04
(PID.TID 0000.0001) %MON dynstat_vvel_del2            =   1.6725819258258E-07
(PID.TID 0000.0001) %MON dynstat_wvel_max             =   3.6322256252948E-05
(PID.TID 0000.0001) %MON dynstat_wvel_min             =  -5.2860073326655E-07
(PID.TID 0000.0001) %MON dynstat_wvel_mean            =   3.4589081010102E-07
(PID.TID 0000.0001) %MON dynstat_wvel_sd              =   1.6134912375957E-06
(PID.TID 0000.0001) %MON dynstat_wvel_del2            =   1.1139353114089E-08
(PID.TID 0000.0001) %MON dynstat_theta_max            =  -1.8999999999950E+00
(PID.TID 0000.0001) %MON dynstat_theta_min            =  -1.9000560870551E+00
(PID.TID 0000.0001) %MON dynstat_theta_mean           =  -1.9000005339817E+00
(PID.TID 0000.0001) %MON dynstat_theta_sd             =   3.9938250412738E-06
(PID.TID 0000.0001) %MON dynstat_theta_del2           =   4.7642627285018E-09
(PID.TID 0000.0001) %MON dynstat_salt_max             =   3.4400000000002E+01
(PID.TID 0000.0001) %MON dynstat_salt_min             =   3.4399979325272E+01
(PID.TID 0000.0001) %MON dynstat_salt_mean            =   3.4399999803035E+01
(PID.TID 0000.0001) %MON dynstat_salt_sd              =   1.4729486219274E-06
(PID.TID 0000.0001) %MON dynstat_salt_del2            =   1.7572024513262E-09
(PID.TID 0000.0001) %MON trAdv_CFL_u_max              =   9.7964776923941E-05
(PID.TID 0000.0001) %MON trAdv_CFL_v_max              =   2.8141219018068E-04
(PID.TID 0000.0001) %MON trAdv_CFL_w_max              =   1.5608895573002E-03
(PID.TID 0000.0001) %MON advcfl_uvel_max              =   2.0250691989993E-04
(PID.TID 0000.0001) %MON advcfl_vvel_max              =   3.5967185842369E-04
(PID.TID 0000.0001) %MON advcfl_wvel_max              =   2.1793353751769E-03
(PID.TID 0000.0001) %MON advcfl_W_hf_max              =   2.1793268568538E-03
(PID.TID 0000.0001) %MON pe_b_mean                    =   3.3793310739383E-05
(PID.TID 0000.0001) %MON ke_max                       =   2.4084538680966E-06
(PID.TID 0000.0001) %MON ke_mean                      =   8.5956597864074E-07
(PID.TID 0000.0001) %MON ke_vol                       =   3.4145532320437E+14
(PID.TID 0000.0001) %MON vort_r_min                   =  -3.2405827280887E-07
(PID.TID 0000.0001) %MON vort_r_max                   =   2.6025779661877E-07
(PID.TID 0000.0001) %MON vort_a_mean                  =  -1.3992981969631E-04
(PID.TID 0000.0001) %MON vort_a_sd                    =   1.7366354797399E-06
(PID.TID 0000.0001) %MON vort_p_mean                  =  -1.4746768605409E-04
(PID.TID 0000.0001) %MON vort_p_sd                    =   7.7986562942328E-05
(PID.TID 0000.0001) %MON surfExpan_theta_mean         =   1.4585073741801E-06
(PID.TID 0000.0001) %MON surfExpan_salt_mean          =  -2.6406592620184E-05
(PID.TID 0000.0001) // =======================================================
(PID.TID 0000.0001) // End MONITOR dynamic field statistics
(PID.TID 0000.0001) // =======================================================
(PID.TID 0000.0001) // =======================================================
(PID.TID 0000.0001) // Begin OBCS MONITOR field statistics
(PID.TID 0000.0001) // =======================================================
(PID.TID 0000.0001) %MON obc_time_tsnumber            =                     5
(PID.TID 0000.0001) %MON obc_time_secondsf            =   9.0000000000000E+03
(PID.TID 0000.0001) %MON obc_N_vVel_max               =   7.0576084020108E-04
(PID.TID 0000.0001) %MON obc_N_vVel_min               =   7.0576084020108E-04
(PID.TID 0000.0001) %MON obc_N_vVel_mean              =   7.0576084020108E-04
(PID.TID 0000.0001) %MON obc_N_vVel_sd                =  -1.3129010682442E-20
(PID.TID 0000.0001) %MON obc_N_vVel_Int               =   3.5334395159657E+05
(PID.TID 0000.0001) %MON obc_N_theta_max              =  -1.9000000000000E+00
(PID.TID 0000.0001) %MON obc_N_theta_min              =  -1.9000000000000E+00
(PID.TID 0000.0001) %MON obc_N_theta_mean             =  -1.9000000000000E+00
(PID.TID 0000.0001) %MON obc_N_theta_sd               =   1.1733186057228E-07
(PID.TID 0000.0001) // =======================================================
(PID.TID 0000.0001) // End OBCS MONITOR field statistics
(PID.TID 0000.0001) // =======================================================
(PID.TID 0000.0001) OBCS_balance (it=        6 ) correct for netFreshWaterFlux:  0.00000000E+00
(PID.TID 0000.0001) OBCS_balance (it=        6 ) correct for shelfIceNetMassFlux:  3.53303070E+05
(PID.TID 0000.0001) OBCS_balance (it=        6 ) correct for inFlow:  0.00000000E+00  0.00000000E+00
(PID.TID 0000.0001) OBCS_balance correction to OBEu,OBWu:  7.05679185E-04 -7.05679185E-04
(PID.TID 0000.0001) OBCS_balance correction to OBNv,OBSv:  7.05679185E-04 -7.05679185E-04
 cg2d: Sum(rhs),rhsMax =   1.69023120793684E+01  6.03166276776865E-02
(PID.TID 0000.0001)      cg2d_init_res =   1.41398330180723E+00
(PID.TID 0000.0001)      cg2d_iters(min,last) =      -1     211
(PID.TID 0000.0001)      cg2d_last_res =   7.82560110336091E-14
(PID.TID 0000.0001) // =======================================================
(PID.TID 0000.0001) // Begin MONITOR dynamic field statistics
(PID.TID 0000.0001) // =======================================================
(PID.TID 0000.0001) %MON time_tsnumber                =                     6
(PID.TID 0000.0001) %MON time_secondsf                =   1.0800000000000E+04
(PID.TID 0000.0001) %MON dynstat_eta_max              =   7.1737154905915E-03
(PID.TID 0000.0001) %MON dynstat_eta_min              =  -4.1175821890184E-02
(PID.TID 0000.0001) %MON dynstat_eta_mean             =  -8.2908207645854E-03
(PID.TID 0000.0001) %MON dynstat_eta_sd               =   1.1829572829991E-02
(PID.TID 0000.0001) %MON dynstat_eta_del2             =   2.7186520384024E-05
(PID.TID 0000.0001) %MON dynstat_uvel_max             =   1.0940774334664E-03
(PID.TID 0000.0001) %MON dynstat_uvel_min             =  -2.4571610895719E-04
(PID.TID 0000.0001) %MON dynstat_uvel_mean            =  -3.1855994183426E-05
(PID.TID 0000.0001) %MON dynstat_uvel_sd              =   1.1271901073037E-04
(PID.TID 0000.0001) %MON dynstat_uvel_del2            =   2.1429904477096E-07
(PID.TID 0000.0001) %MON dynstat_vvel_max             =   2.6394839576020E-03
(PID.TID 0000.0001) %MON dynstat_vvel_min             =  -5.6186120033278E-05
(PID.TID 0000.0001) %MON dynstat_vvel_mean            =   1.3517618698011E-03
(PID.TID 0000.0001) %MON dynstat_vvel_sd              =   4.7514255179940E-04
(PID.TID 0000.0001) %MON dynstat_vvel_del2            =   1.9429165644636E-07
(PID.TID 0000.0001) %MON dynstat_wvel_max             =   4.6012146028906E-05
(PID.TID 0000.0001) %MON dynstat_wvel_min             =  -1.3509161098839E-06
(PID.TID 0000.0001) %MON dynstat_wvel_mean            =   3.8523656846306E-07
(PID.TID 0000.0001) %MON dynstat_wvel_sd              =   1.8414675472053E-06
(PID.TID 0000.0001) %MON dynstat_wvel_del2            =   1.2918257894329E-08
(PID.TID 0000.0001) %MON dynstat_theta_max            =  -1.8999999999862E+00
(PID.TID 0000.0001) %MON dynstat_theta_min            =  -1.9000672994353E+00
(PID.TID 0000.0001) %MON dynstat_theta_mean           =  -1.9000006844338E+00
(PID.TID 0000.0001) %MON dynstat_theta_sd             =   5.0701757423815E-06
(PID.TID 0000.0001) %MON dynstat_theta_del2           =   6.0653413278256E-09
(PID.TID 0000.0001) %MON dynstat_salt_max             =   3.4400000000005E+01
(PID.TID 0000.0001) %MON dynstat_salt_min             =   3.4399975192181E+01
(PID.TID 0000.0001) %MON dynstat_salt_mean            =   3.4399999747536E+01
(PID.TID 0000.0001) %MON dynstat_salt_sd              =   1.8699558533918E-06
(PID.TID 0000.0001) %MON dynstat_salt_del2            =   2.2371367149215E-09
(PID.TID 0000.0001) %MON trAdv_CFL_u_max              =   2.0250690852590E-04
(PID.TID 0000.0001) %MON trAdv_CFL_v_max              =   3.6116777061187E-04
(PID.TID 0000.0001) %MON trAdv_CFL_w_max              =   2.1793268568538E-03
(PID.TID 0000.0001) %MON advcfl_uvel_max              =   3.3505262071455E-04
(PID.TID 0000.0001) %MON advcfl_vvel_max              =   4.2734116727402E-04
(PID.TID 0000.0001) %MON advcfl_wvel_max              =   2.7607287617343E-03
(PID.TID 0000.0001) %MON advcfl_W_hf_max              =   2.7607147119677E-03
(PID.TID 0000.0001) %MON pe_b_mean                    =   4.7242075973809E-05
(PID.TID 0000.0001) %MON ke_max                       =   3.2665940239421E-06
(PID.TID 0000.0001) %MON ke_mean                      =   1.0343571115379E-06
(PID.TID 0000.0001) %MON ke_vol                       =   3.4145468718525E+14
(PID.TID 0000.0001) %MON vort_r_min                   =  -3.8630260361140E-07
(PID.TID 0000.0001) %MON vort_r_max                   =   2.9070744292681E-07
(PID.TID 0000.0001) %MON vort_a_mean                  =  -1.3992981969631E-04
(PID.TID 0000.0001) %MON vort_a_sd                    =   1.7368057109816E-06
(PID.TID 0000.0001) %MON vort_p_mean                  =  -1.4746795650504E-04
(PID.TID 0000.0001) %MON vort_p_sd                    =   7.7993178763902E-05
(PID.TID 0000.0001) %MON surfExpan_theta_mean         =   1.4583400759158E-06
(PID.TID 0000.0001) %MON surfExpan_salt_mean          =  -2.6403536891873E-05
(PID.TID 0000.0001) // =======================================================
(PID.TID 0000.0001) // End MONITOR dynamic field statistics
(PID.TID 0000.0001) // =======================================================
(PID.TID 0000.0001) // =======================================================
(PID.TID 0000.0001) // Begin OBCS MONITOR field statistics
(PID.TID 0000.0001) // =======================================================
(PID.TID 0000.0001) %MON obc_time_tsnumber            =                     6
(PID.TID 0000.0001) %MON obc_time_secondsf            =   1.0800000000000E+04
(PID.TID 0000.0001) %MON obc_N_vVel_max               =   7.0567918496961E-04
(PID.TID 0000.0001) %MON obc_N_vVel_min               =   7.0567918496961E-04
(PID.TID 0000.0001) %MON obc_N_vVel_mean              =   7.0567918496961E-04
(PID.TID 0000.0001) %MON obc_N_vVel_sd                =  -7.5174174068819E-21
(PID.TID 0000.0001) %MON obc_N_vVel_Int               =   3.5330307035109E+05
(PID.TID 0000.0001) %MON obc_N_theta_max              =  -1.9000000000000E+00
(PID.TID 0000.0001) %MON obc_N_theta_min              =  -1.9000000000000E+00
(PID.TID 0000.0001) %MON obc_N_theta_mean             =  -1.9000000000000E+00
(PID.TID 0000.0001) %MON obc_N_theta_sd               =   1.1733186057228E-07
(PID.TID 0000.0001) // =======================================================
(PID.TID 0000.0001) // End OBCS MONITOR field statistics
(PID.TID 0000.0001) // =======================================================
(PID.TID 0000.0001) OBCS_balance (it=        7 ) correct for netFreshWaterFlux:  0.00000000E+00
(PID.TID 0000.0001) OBCS_balance (it=        7 ) correct for shelfIceNetMassFlux:  3.53274426E+05
(PID.TID 0000.0001) OBCS_balance (it=        7 ) correct for inFlow:  0.00000000E+00  0.00000000E+00
(PID.TID 0000.0001) OBCS_balance correction to OBEu,OBWu:  7.05621971E-04 -7.05621971E-04
(PID.TID 0000.0001) OBCS_balance correction to OBNv,OBSv:  7.05621971E-04 -7.05621971E-04
 cg2d: Sum(rhs),rhsMax =   1.71706142665408E+01  6.92674318585770E-02
(PID.TID 0000.0001)      cg2d_init_res =   1.23110279104526E+00
(PID.TID 0000.0001)      cg2d_iters(min,last) =      -1     210
(PID.TID 0000.0001)      cg2d_last_res =   7.88835877606416E-14
(PID.TID 0000.0001) // =======================================================
(PID.TID 0000.0001) // Begin MONITOR dynamic field statistics
(PID.TID 0000.0001) // =======================================================
(PID.TID 0000.0001) %MON time_tsnumber                =                     7
(PID.TID 0000.0001) %MON time_secondsf                =   1.2600000000000E+04
(PID.TID 0000.0001) %MON dynstat_eta_max              =   6.7626462066953E-03
(PID.TID 0000.0001) %MON dynstat_eta_min              =  -5.2387828744509E-02
(PID.TID 0000.0001) %MON dynstat_eta_mean             =  -9.6722892686961E-03
(PID.TID 0000.0001) %MON dynstat_eta_sd               =   1.5718507074536E-02
(PID.TID 0000.0001) %MON dynstat_eta_del2             =   3.1305337456426E-05
(PID.TID 0000.0001) %MON dynstat_uvel_max             =   1.5676779937931E-03
(PID.TID 0000.0001) %MON dynstat_uvel_min             =  -2.7229533712457E-04
(PID.TID 0000.0001) %MON dynstat_uvel_mean            =  -9.0539686550934E-06
(PID.TID 0000.0001) %MON dynstat_uvel_sd              =   1.4619702985332E-04
(PID.TID 0000.0001) %MON dynstat_uvel_del2            =   2.8505329362753E-07
(PID.TID 0000.0001) %MON dynstat_vvel_max             =   2.9433288244489E-03
(PID.TID 0000.0001) %MON dynstat_vvel_min             =  -1.6942754889051E-04
(PID.TID 0000.0001) %MON dynstat_vvel_mean            =   1.3788113024992E-03
(PID.TID 0000.0001) %MON dynstat_vvel_sd              =   5.0739435381993E-04
(PID.TID 0000.0001) %MON dynstat_vvel_del2            =   2.1456266365891E-07
(PID.TID 0000.0001) %MON dynstat_wvel_max             =   5.4576782962456E-05
(PID.TID 0000.0001) %MON dynstat_wvel_min             =  -2.6368683841120E-06
(PID.TID 0000.0001) %MON dynstat_wvel_mean            =   3.9702244817154E-07
(PID.TID 0000.0001) %MON dynstat_wvel_sd              =   1.9693172331914E-06
(PID.TID 0000.0001) %MON dynstat_wvel_del2            =   1.4120858264628E-08
(PID.TID 0000.0001) %MON dynstat_theta_max            =  -1.8999999999689E+00
(PID.TID 0000.0001) %MON dynstat_theta_min            =  -1.9000852477931E+00
(PID.TID 0000.0001) %MON dynstat_theta_mean           =  -1.9000008453593E+00
(PID.TID 0000.0001) %MON dynstat_theta_sd             =   6.2299426041059E-06
(PID.TID 0000.0001) %MON dynstat_theta_del2           =   7.4547332431609E-09
(PID.TID 0000.0001) %MON dynstat_salt_max             =   3.4400000000011E+01
(PID.TID 0000.0001) %MON dynstat_salt_min             =   3.4399968568691E+01
(PID.TID 0000.0001) %MON dynstat_salt_mean            =   3.4399999688174E+01
(PID.TID 0000.0001) %MON dynstat_salt_sd              =   2.2977287812387E-06
(PID.TID 0000.0001) %MON dynstat_salt_del2            =   2.7496444017196E-09
(PID.TID 0000.0001) %MON trAdv_CFL_u_max              =   3.3505256735996E-04
(PID.TID 0000.0001) %MON trAdv_CFL_v_max              =   4.2911860539214E-04
(PID.TID 0000.0001) %MON trAdv_CFL_w_max              =   2.7607147119677E-03
(PID.TID 0000.0001) %MON advcfl_uvel_max              =   4.8008907248249E-04
(PID.TID 0000.0001) %MON advcfl_vvel_max              =   4.7653465439281E-04
(PID.TID 0000.0001) %MON advcfl_wvel_max              =   3.2746069777474E-03
(PID.TID 0000.0001) %MON advcfl_W_hf_max              =   3.2745874826827E-03
(PID.TID 0000.0001) %MON pe_b_mean                    =   6.0979339003686E-05
(PID.TID 0000.0001) %MON ke_max                       =   3.9184818055708E-06
(PID.TID 0000.0001) %MON ke_mean                      =   1.0910829082413E-06
(PID.TID 0000.0001) %MON ke_vol                       =   3.4145405123972E+14
(PID.TID 0000.0001) %MON vort_r_min                   =  -4.3153649373877E-07
(PID.TID 0000.0001) %MON vort_r_max                   =   3.1044677454291E-07
(PID.TID 0000.0001) %MON vort_a_mean                  =  -1.3992981969631E-04
(PID.TID 0000.0001) %MON vort_a_sd                    =   1.7369345844099E-06
(PID.TID 0000.0001) %MON vort_p_mean                  =  -1.4746822686460E-04
(PID.TID 0000.0001) %MON vort_p_sd                    =   7.7999824875954E-05
(PID.TID 0000.0001) %MON surfExpan_theta_mean         =   1.4582231481364E-06
(PID.TID 0000.0001) %MON surfExpan_salt_mean          =  -2.6401395720808E-05
(PID.TID 0000.0001) // =======================================================
(PID.TID 0000.0001) // End MONITOR dynamic field statistics
(PID.TID 0000.0001) // =======================================================
(PID.TID 0000.0001) // =======================================================
(PID.TID 0000.0001) // Begin OBCS MONITOR field statistics
(PID.TID 0000.0001) // =======================================================
(PID.TID 0000.0001) %MON obc_time_tsnumber            =                     7
(PID.TID 0000.0001) %MON obc_time_secondsf            =   1.2600000000000E+04
(PID.TID 0000.0001) %MON obc_N_vVel_max               =   7.0562197144540E-04
(PID.TID 0000.0001) %MON obc_N_vVel_min               =   7.0562197144540E-04
(PID.TID 0000.0001) %MON obc_N_vVel_mean              =   7.0562197144539E-04
(PID.TID 0000.0001) %MON obc_N_vVel_sd                =   1.3376685318399E-10
(PID.TID 0000.0001) %MON obc_N_vVel_Int               =   3.5327442601213E+05
(PID.TID 0000.0001) %MON obc_N_theta_max              =  -1.9000000000000E+00
(PID.TID 0000.0001) %MON obc_N_theta_min              =  -1.9000000000000E+00
(PID.TID 0000.0001) %MON obc_N_theta_mean             =  -1.9000000000000E+00
(PID.TID 0000.0001) %MON obc_N_theta_sd               =   1.1733186057228E-07
(PID.TID 0000.0001) // =======================================================
(PID.TID 0000.0001) // End OBCS MONITOR field statistics
(PID.TID 0000.0001) // =======================================================
(PID.TID 0000.0001) OBCS_balance (it=        8 ) correct for netFreshWaterFlux:  0.00000000E+00
(PID.TID 0000.0001) OBCS_balance (it=        8 ) correct for shelfIceNetMassFlux:  3.53258797E+05
(PID.TID 0000.0001) OBCS_balance (it=        8 ) correct for inFlow:  0.00000000E+00  0.00000000E+00
(PID.TID 0000.0001) OBCS_balance correction to OBEu,OBWu:  7.05590755E-04 -7.05590755E-04
(PID.TID 0000.0001) OBCS_balance correction to OBNv,OBSv:  7.05590755E-04 -7.05590755E-04
 cg2d: Sum(rhs),rhsMax =   1.74105787254586E+01  7.80692445164804E-02
(PID.TID 0000.0001)      cg2d_init_res =   1.09180630648986E+00
(PID.TID 0000.0001)      cg2d_iters(min,last) =      -1     208
(PID.TID 0000.0001)      cg2d_last_res =   7.31807535192574E-14
(PID.TID 0000.0001) // =======================================================
(PID.TID 0000.0001) // Begin MONITOR dynamic field statistics
(PID.TID 0000.0001) // =======================================================
(PID.TID 0000.0001) %MON time_tsnumber                =                     8
(PID.TID 0000.0001) %MON time_secondsf                =   1.4400000000000E+04
(PID.TID 0000.0001) %MON dynstat_eta_max              =   6.1224291259247E-03
(PID.TID 0000.0001) %MON dynstat_eta_min              =  -6.3112479107394E-02
(PID.TID 0000.0001) %MON dynstat_eta_mean             =  -1.1053696657782E-02
(PID.TID 0000.0001) %MON dynstat_eta_sd               =   1.9483308812882E-02
(PID.TID 0000.0001) %MON dynstat_eta_del2             =   3.5424292828663E-05
(PID.TID 0000.0001) %MON dynstat_uvel_max             =   2.0370550314074E-03
(PID.TID 0000.0001) %MON dynstat_uvel_min             =  -3.1714454947215E-04
(PID.TID 0000.0001) %MON dynstat_uvel_mean            =   9.0566303142179E-06
(PID.TID 0000.0001) %MON dynstat_uvel_sd              =   1.8129540700035E-04
(PID.TID 0000.0001) %MON dynstat_uvel_del2            =   3.5918128419705E-07
(PID.TID 0000.0001) %MON dynstat_vvel_max             =   3.1541424878956E-03
(PID.TID 0000.0001) %MON dynstat_vvel_min             =  -3.6485475306453E-04
(PID.TID 0000.0001) %MON dynstat_vvel_mean            =   1.3335633091276E-03
(PID.TID 0000.0001) %MON dynstat_vvel_sd              =   4.9877789017602E-04
(PID.TID 0000.0001) %MON dynstat_vvel_del2            =   2.3177284223877E-07
(PID.TID 0000.0001) %MON dynstat_wvel_max             =   6.1767083234265E-05
(PID.TID 0000.0001) %MON dynstat_wvel_min             =  -4.4146239691261E-06
(PID.TID 0000.0001) %MON dynstat_wvel_mean            =   3.8331334309370E-07
(PID.TID 0000.0001) %MON dynstat_wvel_sd              =   2.0166899081015E-06
(PID.TID 0000.0001) %MON dynstat_wvel_del2            =   1.4876122603786E-08
(PID.TID 0000.0001) %MON dynstat_theta_max            =  -1.8999999999398E+00
(PID.TID 0000.0001) %MON dynstat_theta_min            =  -1.9001057586139E+00
(PID.TID 0000.0001) %MON dynstat_theta_mean           =  -1.9000010101321E+00
(PID.TID 0000.0001) %MON dynstat_theta_sd             =   7.4354209283994E-06
(PID.TID 0000.0001) %MON dynstat_theta_del2           =   8.8712117333265E-09
(PID.TID 0000.0001) %MON dynstat_salt_max             =   3.4400000000022E+01
(PID.TID 0000.0001) %MON dynstat_salt_min             =   3.4399961006393E+01
(PID.TID 0000.0001) %MON dynstat_salt_mean            =   3.4399999627394E+01
(PID.TID 0000.0001) %MON dynstat_salt_sd              =   2.7423451621017E-06
(PID.TID 0000.0001) %MON dynstat_salt_del2            =   3.2721256760388E-09
(PID.TID 0000.0001) %MON trAdv_CFL_u_max              =   4.8008896068688E-04
(PID.TID 0000.0001) %MON trAdv_CFL_v_max              =   4.7851681042722E-04
(PID.TID 0000.0001) %MON trAdv_CFL_w_max              =   3.2745874826827E-03
(PID.TID 0000.0001) %MON advcfl_uvel_max              =   6.2383210359286E-04
(PID.TID 0000.0001) %MON advcfl_vvel_max              =   5.1066608252866E-04
(PID.TID 0000.0001) %MON advcfl_wvel_max              =   3.7060249940559E-03
(PID.TID 0000.0001) %MON advcfl_W_hf_max              =   3.7060011566940E-03
(PID.TID 0000.0001) %MON pe_b_mean                    =   7.4098875782362E-05
(PID.TID 0000.0001) %MON ke_max                       =   4.2266338910334E-06
(PID.TID 0000.0001) %MON ke_mean                      =   1.0308115048290E-06
(PID.TID 0000.0001) %MON ke_vol                       =   3.4145341534576E+14
(PID.TID 0000.0001) %MON vort_r_min                   =  -4.5666623720901E-07
(PID.TID 0000.0001) %MON vort_r_max                   =   3.2605914682998E-07
(PID.TID 0000.0001) %MON vort_a_mean                  =  -1.3992981969631E-04
(PID.TID 0000.0001) %MON vort_a_sd                    =   1.7370072754576E-06
(PID.TID 0000.0001) %MON vort_p_mean                  =  -1.4746849710533E-04
(PID.TID 0000.0001) %MON vort_p_sd                    =   7.8005840040395E-05
(PID.TID 0000.0001) %MON surfExpan_theta_mean         =   1.4581595974055E-06
(PID.TID 0000.0001) %MON surfExpan_salt_mean          =  -2.6400227390902E-05
(PID.TID 0000.0001) // =======================================================
(PID.TID 0000.0001) // End MONITOR dynamic field statistics
(PID.TID 0000.0001) // =======================================================
(PID.TID 0000.0001) // =======================================================
(PID.TID 0000.0001) // Begin OBCS MONITOR field statistics
(PID.TID 0000.0001) // =======================================================
(PID.TID 0000.0001) %MON obc_time_tsnumber            =                     8
(PID.TID 0000.0001) %MON obc_time_secondsf            =   1.4400000000000E+04
(PID.TID 0000.0001) %MON obc_N_vVel_max               =   7.0559075531255E-04
(PID.TID 0000.0001) %MON obc_N_vVel_min               =   7.0559075531255E-04
(PID.TID 0000.0001) %MON obc_N_vVel_mean              =   7.0559075531255E-04
(PID.TID 0000.0001) %MON obc_N_vVel_sd                =   2.3008598219664E-11
(PID.TID 0000.0001) %MON obc_N_vVel_Int               =   3.5325879744350E+05
(PID.TID 0000.0001) %MON obc_N_theta_max              =  -1.9000000000000E+00
(PID.TID 0000.0001) %MON obc_N_theta_min              =  -1.9000000000000E+00
(PID.TID 0000.0001) %MON obc_N_theta_mean             =  -1.9000000000000E+00
(PID.TID 0000.0001) %MON obc_N_theta_sd               =   1.1733186057228E-07
(PID.TID 0000.0001) // =======================================================
(PID.TID 0000.0001) // End OBCS MONITOR field statistics
(PID.TID 0000.0001) // =======================================================
(PID.TID 0000.0001) OBCS_balance (it=        9 ) correct for netFreshWaterFlux:  0.00000000E+00
(PID.TID 0000.0001) OBCS_balance (it=        9 ) correct for shelfIceNetMassFlux:  3.53257673E+05
(PID.TID 0000.0001) OBCS_balance (it=        9 ) correct for inFlow:  0.00000000E+00  0.00000000E+00
(PID.TID 0000.0001) OBCS_balance correction to OBEu,OBWu:  7.05588509E-04 -7.05588509E-04
(PID.TID 0000.0001) OBCS_balance correction to OBNv,OBSv:  7.05588509E-04 -7.05588509E-04
 cg2d: Sum(rhs),rhsMax =   1.76259757689784E+01  8.67524488321097E-02
(PID.TID 0000.0001)      cg2d_init_res =   9.81878159569736E-01
(PID.TID 0000.0001)      cg2d_iters(min,last) =      -1     209
(PID.TID 0000.0001)      cg2d_last_res =   8.15281003072727E-14
(PID.TID 0000.0001) // =======================================================
(PID.TID 0000.0001) // Begin MONITOR dynamic field statistics
(PID.TID 0000.0001) // =======================================================
(PID.TID 0000.0001) %MON time_tsnumber                =                     9
(PID.TID 0000.0001) %MON time_secondsf                =   1.6200000000000E+04
(PID.TID 0000.0001) %MON dynstat_eta_max              =   6.7032019613025E-03
(PID.TID 0000.0001) %MON dynstat_eta_min              =  -7.2799135787175E-02
(PID.TID 0000.0001) %MON dynstat_eta_mean             =  -1.2435099649799E-02
(PID.TID 0000.0001) %MON dynstat_eta_sd               =   2.2860341434489E-02
(PID.TID 0000.0001) %MON dynstat_eta_del2             =   3.9543412101397E-05
(PID.TID 0000.0001) %MON dynstat_uvel_max             =   2.4685342182067E-03
(PID.TID 0000.0001) %MON dynstat_uvel_min             =  -3.8177027280306E-04
(PID.TID 0000.0001) %MON dynstat_uvel_mean            =   2.1979999266331E-05
(PID.TID 0000.0001) %MON dynstat_uvel_sd              =   2.1445434104277E-04
(PID.TID 0000.0001) %MON dynstat_uvel_del2            =   4.3142828236003E-07
(PID.TID 0000.0001) %MON dynstat_vvel_max             =   3.2677239329912E-03
(PID.TID 0000.0001) %MON dynstat_vvel_min             =  -6.2237731624716E-04
(PID.TID 0000.0001) %MON dynstat_vvel_mean            =   1.2339740891563E-03
(PID.TID 0000.0001) %MON dynstat_vvel_sd              =   4.6019023645805E-04
(PID.TID 0000.0001) %MON dynstat_vvel_del2            =   2.5021698664226E-07
(PID.TID 0000.0001) %MON dynstat_wvel_max             =   6.7568290345832E-05
(PID.TID 0000.0001) %MON dynstat_wvel_min             =  -6.6734194997359E-06
(PID.TID 0000.0001) %MON dynstat_wvel_mean            =   3.4999118858477E-07
(PID.TID 0000.0001) %MON dynstat_wvel_sd              =   2.0125770755724E-06
(PID.TID 0000.0001) %MON dynstat_wvel_del2            =   1.5356546250422E-08
(PID.TID 0000.0001) %MON dynstat_theta_max            =  -1.8999999998960E+00
(PID.TID 0000.0001) %MON dynstat_theta_min            =  -1.9001270791001E+00
(PID.TID 0000.0001) %MON dynstat_theta_mean           =  -1.9000011711832E+00
(PID.TID 0000.0001) %MON dynstat_theta_sd             =   8.6340607526666E-06
(PID.TID 0000.0001) %MON dynstat_theta_del2           =   1.0256414496518E-08
(PID.TID 0000.0001) %MON dynstat_salt_max             =   3.4400000000038E+01
(PID.TID 0000.0001) %MON dynstat_salt_min             =   3.4399953145586E+01
(PID.TID 0000.0001) %MON dynstat_salt_mean            =   3.4399999567988E+01
(PID.TID 0000.0001) %MON dynstat_salt_sd              =   3.1844175811829E-06
(PID.TID 0000.0001) %MON dynstat_salt_del2            =   3.7830441238337E-09
(PID.TID 0000.0001) %MON trAdv_CFL_u_max              =   6.2383193748127E-04
(PID.TID 0000.0001) %MON trAdv_CFL_v_max              =   5.1288663111216E-04
(PID.TID 0000.0001) %MON trAdv_CFL_w_max              =   3.7060011566940E-03
(PID.TID 0000.0001) %MON advcfl_uvel_max              =   7.5596921555470E-04
(PID.TID 0000.0001) %MON advcfl_vvel_max              =   5.2905529349092E-04
(PID.TID 0000.0001) %MON advcfl_wvel_max              =   4.0540974207499E-03
(PID.TID 0000.0001) %MON advcfl_W_hf_max              =   4.0540709120927E-03
(PID.TID 0000.0001) %MON pe_b_mean                    =   8.5917561224138E-05
(PID.TID 0000.0001) %MON ke_max                       =   4.1649668184432E-06
(PID.TID 0000.0001) %MON ke_mean                      =   8.9063375261066E-07
(PID.TID 0000.0001) %MON ke_vol                       =   3.4145277947992E+14
(PID.TID 0000.0001) %MON vort_r_min                   =  -4.6572924926116E-07
(PID.TID 0000.0001) %MON vort_r_max                   =   3.3036125040108E-07
(PID.TID 0000.0001) %MON vort_a_mean                  =  -1.3992981969631E-04
(PID.TID 0000.0001) %MON vort_a_sd                    =   1.7370325308410E-06
(PID.TID 0000.0001) %MON vort_p_mean                  =  -1.4746876723655E-04
(PID.TID 0000.0001) %MON vort_p_sd                    =   7.8010775295979E-05
(PID.TID 0000.0001) %MON surfExpan_theta_mean         =   1.4581554114471E-06
(PID.TID 0000.0001) %MON surfExpan_salt_mean          =  -2.6400143190170E-05
(PID.TID 0000.0001) // =======================================================
(PID.TID 0000.0001) // End MONITOR dynamic field statistics
(PID.TID 0000.0001) // =======================================================
(PID.TID 0000.0001) // =======================================================
(PID.TID 0000.0001) // Begin OBCS MONITOR field statistics
(PID.TID 0000.0001) // =======================================================
(PID.TID 0000.0001) %MON obc_time_tsnumber            =                     9
(PID.TID 0000.0001) %MON obc_time_secondsf            =   1.6200000000000E+04
(PID.TID 0000.0001) %MON obc_N_vVel_max               =   7.0558850939213E-04
(PID.TID 0000.0001) %MON obc_N_vVel_min               =   7.0558850939213E-04
(PID.TID 0000.0001) %MON obc_N_vVel_mean              =   7.0558850939213E-04
(PID.TID 0000.0001) %MON obc_N_vVel_sd                =  -1.1011428314306E-20
(PID.TID 0000.0001) %MON obc_N_vVel_Int               =   3.5325767300820E+05
(PID.TID 0000.0001) %MON obc_N_theta_max              =  -1.9000000000000E+00
(PID.TID 0000.0001) %MON obc_N_theta_min              =  -1.9000000000000E+00
(PID.TID 0000.0001) %MON obc_N_theta_mean             =  -1.9000000000000E+00
(PID.TID 0000.0001) %MON obc_N_theta_sd               =   1.1733186057228E-07
(PID.TID 0000.0001) // =======================================================
(PID.TID 0000.0001) // End OBCS MONITOR field statistics
(PID.TID 0000.0001) // =======================================================
(PID.TID 0000.0001) OBCS_balance (it=       10 ) correct for netFreshWaterFlux:  0.00000000E+00
(PID.TID 0000.0001) OBCS_balance (it=       10 ) correct for shelfIceNetMassFlux:  3.53269347E+05
(PID.TID 0000.0001) OBCS_balance (it=       10 ) correct for inFlow:  0.00000000E+00  0.00000000E+00
(PID.TID 0000.0001) OBCS_balance correction to OBEu,OBWu:  7.05611828E-04 -7.05611828E-04
(PID.TID 0000.0001) OBCS_balance correction to OBNv,OBSv:  7.05611828E-04 -7.05611828E-04
 cg2d: Sum(rhs),rhsMax =   1.78169151347241E+01  9.53570242224407E-02
(PID.TID 0000.0001)      cg2d_init_res =   8.92634373064025E-01
(PID.TID 0000.0001)      cg2d_iters(min,last) =      -1     209
(PID.TID 0000.0001)      cg2d_last_res =   8.06705924779806E-14
(PID.TID 0000.0001) // =======================================================
(PID.TID 0000.0001) // Begin MONITOR dynamic field statistics
(PID.TID 0000.0001) // =======================================================
(PID.TID 0000.0001) %MON time_tsnumber                =                    10
(PID.TID 0000.0001) %MON time_secondsf                =   1.8000000000000E+04
(PID.TID 0000.0001) %MON dynstat_eta_max              =   7.2646187739618E-03
(PID.TID 0000.0001) %MON dynstat_eta_min              =  -8.1103078021496E-02
(PID.TID 0000.0001) %MON dynstat_eta_mean             =  -1.3816548294484E-02
(PID.TID 0000.0001) %MON dynstat_eta_sd               =   2.5698942906530E-02
(PID.TID 0000.0001) %MON dynstat_eta_del2             =   4.3662725374408E-05
(PID.TID 0000.0001) %MON dynstat_uvel_max             =   2.8414901869450E-03
(PID.TID 0000.0001) %MON dynstat_uvel_min             =  -4.6808874319868E-04
(PID.TID 0000.0001) %MON dynstat_uvel_mean            =   2.9977266092996E-05
(PID.TID 0000.0001) %MON dynstat_uvel_sd              =   2.4340703426052E-04
(PID.TID 0000.0001) %MON dynstat_uvel_del2            =   4.9875950196974E-07
(PID.TID 0000.0001) %MON dynstat_vvel_max             =   3.2994450732874E-03
(PID.TID 0000.0001) %MON dynstat_vvel_min             =  -9.4211241180173E-04
(PID.TID 0000.0001) %MON dynstat_vvel_mean            =   1.1038492453055E-03
(PID.TID 0000.0001) %MON dynstat_vvel_sd              =   4.0806156801986E-04
(PID.TID 0000.0001) %MON dynstat_vvel_del2            =   2.7343711535864E-07
(PID.TID 0000.0001) %MON dynstat_wvel_max             =   7.2165283216190E-05
(PID.TID 0000.0001) %MON dynstat_wvel_min             =  -9.3680682159647E-06
(PID.TID 0000.0001) %MON dynstat_wvel_mean            =   3.0532612154097E-07
(PID.TID 0000.0001) %MON dynstat_wvel_sd              =   1.9891165977059E-06
(PID.TID 0000.0001) %MON dynstat_wvel_del2            =   1.5743837143357E-08
(PID.TID 0000.0001) %MON dynstat_theta_max            =  -1.8999999998358E+00
(PID.TID 0000.0001) %MON dynstat_theta_min            =  -1.9001546103274E+00
(PID.TID 0000.0001) %MON dynstat_theta_mean           =  -1.9000013227232E+00
(PID.TID 0000.0001) %MON dynstat_theta_sd             =   9.7846845966390E-06
(PID.TID 0000.0001) %MON dynstat_theta_del2           =   1.1562524703114E-08
(PID.TID 0000.0001) %MON dynstat_salt_max             =   3.4400000000061E+01
(PID.TID 0000.0001) %MON dynstat_salt_min             =   3.4399943008798E+01
(PID.TID 0000.0001) %MON dynstat_salt_mean            =   3.4399999512092E+01
(PID.TID 0000.0001) %MON dynstat_salt_sd              =   3.6087578977910E-06
(PID.TID 0000.0001) %MON dynstat_salt_del2            =   4.2647610289104E-09
(PID.TID 0000.0001) %MON trAdv_CFL_u_max              =   7.5596901663687E-04
(PID.TID 0000.0001) %MON trAdv_CFL_v_max              =   5.3135596246774E-04
(PID.TID 0000.0001) %MON trAdv_CFL_w_max              =   4.0540709120927E-03
(PID.TID 0000.0001) %MON advcfl_uvel_max              =   8.7018405164816E-04
(PID.TID 0000.0001) %MON advcfl_vvel_max              =   5.3419105083560E-04
(PID.TID 0000.0001) %MON advcfl_wvel_max              =   4.3299169929714E-03
(PID.TID 0000.0001) %MON advcfl_W_hf_max              =   4.3298896200799E-03
(PID.TID 0000.0001) %MON pe_b_mean                    =   9.6044898384006E-05
(PID.TID 0000.0001) %MON ke_max                       =   4.5906982783912E-06
(PID.TID 0000.0001) %MON ke_mean                      =   7.2205794512053E-07
(PID.TID 0000.0001) %MON ke_vol                       =   3.4145214361612E+14
(PID.TID 0000.0001) %MON vort_r_min                   =  -4.6903969084601E-07
(PID.TID 0000.0001) %MON vort_r_max                   =   3.2687250235615E-07
(PID.TID 0000.0001) %MON vort_a_mean                  =  -1.3992981969631E-04
(PID.TID 0000.0001) %MON vort_a_sd                    =   1.7370272786326E-06
(PID.TID 0000.0001) %MON vort_p_mean                  =  -1.4746903731340E-04
(PID.TID 0000.0001) %MON vort_p_sd                    =   7.8014379236557E-05
(PID.TID 0000.0001) %MON surfExpan_theta_mean         =   1.4582035338449E-06
(PID.TID 0000.0001) %MON surfExpan_salt_mean          =  -2.6401015687932E-05
(PID.TID 0000.0001) // =======================================================
(PID.TID 0000.0001) // End MONITOR dynamic field statistics
(PID.TID 0000.0001) // =======================================================
(PID.TID 0000.0001) // =======================================================
(PID.TID 0000.0001) // Begin OBCS MONITOR field statistics
(PID.TID 0000.0001) // =======================================================
(PID.TID 0000.0001) %MON obc_time_tsnumber            =                    10
(PID.TID 0000.0001) %MON obc_time_secondsf            =   1.8000000000000E+04
(PID.TID 0000.0001) %MON obc_N_vVel_max               =   7.0561182771296E-04
(PID.TID 0000.0001) %MON obc_N_vVel_min               =   7.0561182771296E-04
(PID.TID 0000.0001) %MON obc_N_vVel_mean              =   7.0561182771294E-04
(PID.TID 0000.0001) %MON obc_N_vVel_sd                =   1.2934025169402E-10
(PID.TID 0000.0001) %MON obc_N_vVel_Int               =   3.5326934748368E+05
(PID.TID 0000.0001) %MON obc_N_theta_max              =  -1.9000000000000E+00
(PID.TID 0000.0001) %MON obc_N_theta_min              =  -1.9000000000000E+00
(PID.TID 0000.0001) %MON obc_N_theta_mean             =  -1.9000000000000E+00
(PID.TID 0000.0001) %MON obc_N_theta_sd               =   1.1733186057228E-07
(PID.TID 0000.0001) // =======================================================
(PID.TID 0000.0001) // End OBCS MONITOR field statistics
(PID.TID 0000.0001) // =======================================================
(PID.TID 0000.0001) OBCS_balance (it=       11 ) correct for netFreshWaterFlux:  0.00000000E+00
(PID.TID 0000.0001) OBCS_balance (it=       11 ) correct for shelfIceNetMassFlux:  3.53288246E+05
(PID.TID 0000.0001) OBCS_balance (it=       11 ) correct for inFlow:  0.00000000E+00  0.00000000E+00
(PID.TID 0000.0001) OBCS_balance correction to OBEu,OBWu:  7.05649575E-04 -7.05649575E-04
(PID.TID 0000.0001) OBCS_balance correction to OBNv,OBSv:  7.05649575E-04 -7.05649575E-04
 cg2d: Sum(rhs),rhsMax =   1.79822674635847E+01  1.03927302067327E-01
(PID.TID 0000.0001)      cg2d_init_res =   8.18469991033011E-01
(PID.TID 0000.0001)      cg2d_iters(min,last) =      -1     208
(PID.TID 0000.0001)      cg2d_last_res =   8.75689030633643E-14
(PID.TID 0000.0001) // =======================================================
(PID.TID 0000.0001) // Begin MONITOR dynamic field statistics
(PID.TID 0000.0001) // =======================================================
(PID.TID 0000.0001) %MON time_tsnumber                =                    11
(PID.TID 0000.0001) %MON time_secondsf                =   1.9800000000000E+04
(PID.TID 0000.0001) %MON dynstat_eta_max              =   7.1883388334238E-03
(PID.TID 0000.0001) %MON dynstat_eta_min              =  -8.7964423326636E-02
(PID.TID 0000.0001) %MON dynstat_eta_mean             =  -1.5198070840924E-02
(PID.TID 0000.0001) %MON dynstat_eta_sd               =   2.7964981705810E-02
(PID.TID 0000.0001) %MON dynstat_eta_del2             =   4.7782252464050E-05
(PID.TID 0000.0001) %MON dynstat_uvel_max             =   3.1431850208381E-03
(PID.TID 0000.0001) %MON dynstat_uvel_min             =  -5.7493618661156E-04
(PID.TID 0000.0001) %MON dynstat_uvel_mean            =   3.3100800355532E-05
(PID.TID 0000.0001) %MON dynstat_uvel_sd              =   2.6717598752516E-04
(PID.TID 0000.0001) %MON dynstat_uvel_del2            =   5.6019667150605E-07
(PID.TID 0000.0001) %MON dynstat_vvel_max             =   3.2934347290331E-03
(PID.TID 0000.0001) %MON dynstat_vvel_min             =  -1.2799958907434E-03
(PID.TID 0000.0001) %MON dynstat_vvel_mean            =   9.6805918949827E-04
(PID.TID 0000.0001) %MON dynstat_vvel_sd              =   3.5999163401575E-04
(PID.TID 0000.0001) %MON dynstat_vvel_del2            =   3.0319695035514E-07
(PID.TID 0000.0001) %MON dynstat_wvel_max             =   7.5889053395348E-05
(PID.TID 0000.0001) %MON dynstat_wvel_min             =  -1.2426892674377E-05
(PID.TID 0000.0001) %MON dynstat_wvel_mean            =   2.5821744144903E-07
(PID.TID 0000.0001) %MON dynstat_wvel_sd              =   1.9752592296790E-06
(PID.TID 0000.0001) %MON dynstat_wvel_del2            =   1.6200477963705E-08
(PID.TID 0000.0001) %MON dynstat_theta_max            =  -1.8999999997581E+00
(PID.TID 0000.0001) %MON dynstat_theta_min            =  -1.9001871108650E+00
(PID.TID 0000.0001) %MON dynstat_theta_mean           =  -1.9000014628450E+00
(PID.TID 0000.0001) %MON dynstat_theta_sd             =   1.0875251081441E-05
(PID.TID 0000.0001) %MON dynstat_theta_del2           =   1.2784205593703E-08
(PID.TID 0000.0001) %MON dynstat_salt_max             =   3.4400000000089E+01
(PID.TID 0000.0001) %MON dynstat_salt_min             =   3.4399931029080E+01
(PID.TID 0000.0001) %MON dynstat_salt_mean            =   3.4399999460409E+01
(PID.TID 0000.0001) %MON dynstat_salt_sd              =   4.0109248610770E-06
(PID.TID 0000.0001) %MON dynstat_salt_del2            =   4.7153074409361E-09
(PID.TID 0000.0001) %MON trAdv_CFL_u_max              =   8.7018384891389E-04
(PID.TID 0000.0001) %MON trAdv_CFL_v_max              =   5.3651420901205E-04
(PID.TID 0000.0001) %MON trAdv_CFL_w_max              =   4.3298896200799E-03
(PID.TID 0000.0001) %MON advcfl_uvel_max              =   9.6257572490627E-04
(PID.TID 0000.0001) %MON advcfl_vvel_max              =   5.3321795625703E-04
(PID.TID 0000.0001) %MON advcfl_wvel_max              =   4.5533432037209E-03
(PID.TID 0000.0001) %MON advcfl_W_hf_max              =   4.5533165899282E-03
(PID.TID 0000.0001) %MON pe_b_mean                    =   1.0440242020951E-04
(PID.TID 0000.0001) %MON ke_max                       =   4.9679090080422E-06
(PID.TID 0000.0001) %MON ke_mean                      =   5.6847672169806E-07
(PID.TID 0000.0001) %MON ke_vol                       =   3.4145150773129E+14
(PID.TID 0000.0001) %MON vort_r_min                   =  -4.6452029536022E-07
(PID.TID 0000.0001) %MON vort_r_max                   =   3.1971228686336E-07
(PID.TID 0000.0001) %MON vort_a_mean                  =  -1.3992981969631E-04
(PID.TID 0000.0001) %MON vort_a_sd                    =   1.7370058344115E-06
(PID.TID 0000.0001) %MON vort_p_mean                  =  -1.4746930740128E-04
(PID.TID 0000.0001) %MON vort_p_sd                    =   7.8016584523917E-05
(PID.TID 0000.0001) %MON surfExpan_theta_mean         =   1.4582810982069E-06
(PID.TID 0000.0001) %MON surfExpan_salt_mean          =  -2.6402428195940E-05
(PID.TID 0000.0001) // =======================================================
(PID.TID 0000.0001) // End MONITOR dynamic field statistics
(PID.TID 0000.0001) // =======================================================
(PID.TID 0000.0001) // =======================================================
(PID.TID 0000.0001) // Begin OBCS MONITOR field statistics
(PID.TID 0000.0001) // =======================================================
(PID.TID 0000.0001) %MON obc_time_tsnumber            =                    11
(PID.TID 0000.0001) %MON obc_time_secondsf            =   1.9800000000000E+04
(PID.TID 0000.0001) %MON obc_N_vVel_max               =   7.0564957500991E-04
(PID.TID 0000.0001) %MON obc_N_vVel_min               =   7.0564957500991E-04
(PID.TID 0000.0001) %MON obc_N_vVel_mean              =   7.0564957500988E-04
(PID.TID 0000.0001) %MON obc_N_vVel_sd                =   1.6750512343746E-10
(PID.TID 0000.0001) %MON obc_N_vVel_Int               =   3.5328824592392E+05
(PID.TID 0000.0001) %MON obc_N_theta_max              =  -1.9000000000000E+00
(PID.TID 0000.0001) %MON obc_N_theta_min              =  -1.9000000000000E+00
(PID.TID 0000.0001) %MON obc_N_theta_mean             =  -1.9000000000000E+00
(PID.TID 0000.0001) %MON obc_N_theta_sd               =   1.1733186057228E-07
(PID.TID 0000.0001) // =======================================================
(PID.TID 0000.0001) // End OBCS MONITOR field statistics
(PID.TID 0000.0001) // =======================================================
(PID.TID 0000.0001) OBCS_balance (it=       12 ) correct for netFreshWaterFlux:  0.00000000E+00
(PID.TID 0000.0001) OBCS_balance (it=       12 ) correct for shelfIceNetMassFlux:  3.53307474E+05
(PID.TID 0000.0001) OBCS_balance (it=       12 ) correct for inFlow:  0.00000000E+00  0.00000000E+00
(PID.TID 0000.0001) OBCS_balance correction to OBEu,OBWu:  7.05687981E-04 -7.05687981E-04
(PID.TID 0000.0001) OBCS_balance correction to OBNv,OBSv:  7.05687981E-04 -7.05687981E-04
 cg2d: Sum(rhs),rhsMax =   1.81210145929241E+01  1.12506852892114E-01
(PID.TID 0000.0001)      cg2d_init_res =   7.55623249518610E-01
(PID.TID 0000.0001)      cg2d_iters(min,last) =      -1     206
(PID.TID 0000.0001)      cg2d_last_res =   9.33338876058969E-14
(PID.TID 0000.0001) // =======================================================
(PID.TID 0000.0001) // Begin MONITOR dynamic field statistics
(PID.TID 0000.0001) // =======================================================
(PID.TID 0000.0001) %MON time_tsnumber                =                    12
(PID.TID 0000.0001) %MON time_secondsf                =   2.1600000000000E+04
(PID.TID 0000.0001) %MON dynstat_eta_max              =   6.5723595187233E-03
(PID.TID 0000.0001) %MON dynstat_eta_min              =  -9.3600700175513E-02
(PID.TID 0000.0001) %MON dynstat_eta_mean             =  -1.6579668579153E-02
(PID.TID 0000.0001) %MON dynstat_eta_sd               =   2.9725510561446E-02
(PID.TID 0000.0001) %MON dynstat_eta_del2             =   5.1902002973122E-05
(PID.TID 0000.0001) %MON dynstat_uvel_max             =   3.3766464077752E-03
(PID.TID 0000.0001) %MON dynstat_uvel_min             =  -6.9990209149567E-04
(PID.TID 0000.0001) %MON dynstat_uvel_mean            =   3.1442069233570E-05
(PID.TID 0000.0001) %MON dynstat_uvel_sd              =   2.8597686945222E-04
(PID.TID 0000.0001) %MON dynstat_uvel_del2            =   6.1645408442899E-07
(PID.TID 0000.0001) %MON dynstat_vvel_max             =   3.2935560368812E-03
(PID.TID 0000.0001) %MON dynstat_vvel_min             =  -1.5970068809921E-03
(PID.TID 0000.0001) %MON dynstat_vvel_mean            =   8.4836226241023E-04
(PID.TID 0000.0001) %MON dynstat_vvel_sd              =   3.2848033692773E-04
(PID.TID 0000.0001) %MON dynstat_vvel_del2            =   3.3939667639815E-07
(PID.TID 0000.0001) %MON dynstat_wvel_max             =   7.9151754612153E-05
(PID.TID 0000.0001) %MON dynstat_wvel_min             =  -1.5761745013059E-05
(PID.TID 0000.0001) %MON dynstat_wvel_mean            =   2.1655252230793E-07
(PID.TID 0000.0001) %MON dynstat_wvel_sd              =   1.9913226182645E-06
(PID.TID 0000.0001) %MON dynstat_wvel_del2            =   1.6847466801974E-08
(PID.TID 0000.0001) %MON dynstat_theta_max            =  -1.8999999996623E+00
(PID.TID 0000.0001) %MON dynstat_theta_min            =  -1.9002222135139E+00
(PID.TID 0000.0001) %MON dynstat_theta_mean           =  -1.9000015934195E+00
(PID.TID 0000.0001) %MON dynstat_theta_sd             =   1.1918975077481E-05
(PID.TID 0000.0001) %MON dynstat_theta_del2           =   1.3946596354539E-08
(PID.TID 0000.0001) %MON dynstat_salt_max             =   3.4400000000125E+01
(PID.TID 0000.0001) %MON dynstat_salt_min             =   3.4399918090266E+01
(PID.TID 0000.0001) %MON dynstat_salt_mean            =   3.4399999412249E+01
(PID.TID 0000.0001) %MON dynstat_salt_sd              =   4.3957952997789E-06
(PID.TID 0000.0001) %MON dynstat_salt_del2            =   5.1439586341268E-09
(PID.TID 0000.0001) %MON trAdv_CFL_u_max              =   9.6257554741277E-04
(PID.TID 0000.0001) %MON trAdv_CFL_v_max              =   5.3553702120244E-04
(PID.TID 0000.0001) %MON trAdv_CFL_w_max              =   4.5533165899282E-03
(PID.TID 0000.0001) %MON advcfl_uvel_max              =   1.0340714409646E-03
(PID.TID 0000.0001) %MON advcfl_vvel_max              =   5.3323759639816E-04
(PID.TID 0000.0001) %MON advcfl_wvel_max              =   4.7491052767292E-03
(PID.TID 0000.0001) %MON advcfl_W_hf_max              =   4.7490806073943E-03
(PID.TID 0000.0001) %MON pe_b_mean                    =   1.1119039262141E-04
(PID.TID 0000.0001) %MON ke_max                       =   5.7008138149114E-06
(PID.TID 0000.0001) %MON ke_mean                      =   4.5359287157987E-07
(PID.TID 0000.0001) %MON ke_vol                       =   3.4145087181245E+14
(PID.TID 0000.0001) %MON vort_r_min                   =  -4.5877566438893E-07
(PID.TID 0000.0001) %MON vort_r_max                   =   3.1297967732355E-07
(PID.TID 0000.0001) %MON vort_a_mean                  =  -1.3992981969631E-04
(PID.TID 0000.0001) %MON vort_a_sd                    =   1.7369767512393E-06
(PID.TID 0000.0001) %MON vort_p_mean                  =  -1.4746957754106E-04
(PID.TID 0000.0001) %MON vort_p_sd                    =   7.8017500924498E-05
(PID.TID 0000.0001) %MON surfExpan_theta_mean         =   1.4583598959528E-06
(PID.TID 0000.0001) %MON surfExpan_salt_mean          =  -2.6403865405247E-05
(PID.TID 0000.0001) // =======================================================
(PID.TID 0000.0001) // End MONITOR dynamic field statistics
(PID.TID 0000.0001) // =======================================================
(PID.TID 0000.0001) // =======================================================
(PID.TID 0000.0001) // Begin OBCS MONITOR field statistics
(PID.TID 0000.0001) // =======================================================
(PID.TID 0000.0001) %MON obc_time_tsnumber            =                    12
(PID.TID 0000.0001) %MON obc_time_secondsf            =   2.1600000000000E+04
(PID.TID 0000.0001) %MON obc_N_vVel_max               =   7.0568798122607E-04
(PID.TID 0000.0001) %MON obc_N_vVel_min               =   7.0568798122607E-04
(PID.TID 0000.0001) %MON obc_N_vVel_mean              =   7.0568798122606E-04
(PID.TID 0000.0001) %MON obc_N_vVel_sd                =   1.0889656221185E-10
(PID.TID 0000.0001) %MON obc_N_vVel_Int               =   3.5330747425655E+05
(PID.TID 0000.0001) %MON obc_N_theta_max              =  -1.9000000000000E+00
(PID.TID 0000.0001) %MON obc_N_theta_min              =  -1.9000000000000E+00
(PID.TID 0000.0001) %MON obc_N_theta_mean             =  -1.9000000000000E+00
(PID.TID 0000.0001) %MON obc_N_theta_sd               =   1.1733186057228E-07
(PID.TID 0000.0001) // =======================================================
(PID.TID 0000.0001) // End OBCS MONITOR field statistics
(PID.TID 0000.0001) // =======================================================
(PID.TID 0000.0001) OBCS_balance (it=       13 ) correct for netFreshWaterFlux:  0.00000000E+00
(PID.TID 0000.0001) OBCS_balance (it=       13 ) correct for shelfIceNetMassFlux:  3.53320763E+05
(PID.TID 0000.0001) OBCS_balance (it=       13 ) correct for inFlow:  0.00000000E+00  0.00000000E+00
(PID.TID 0000.0001) OBCS_balance correction to OBEu,OBWu:  7.05714523E-04 -7.05714523E-04
(PID.TID 0000.0001) OBCS_balance correction to OBNv,OBSv:  7.05714523E-04 -7.05714523E-04
 cg2d: Sum(rhs),rhsMax =   1.82331881193145E+01  1.21132655400854E-01
(PID.TID 0000.0001)      cg2d_init_res =   7.01480770860423E-01
(PID.TID 0000.0001)      cg2d_iters(min,last) =      -1     204
(PID.TID 0000.0001)      cg2d_last_res =   9.17551854569278E-14
(PID.TID 0000.0001) // =======================================================
(PID.TID 0000.0001) // Begin MONITOR dynamic field statistics
(PID.TID 0000.0001) // =======================================================
(PID.TID 0000.0001) %MON time_tsnumber                =                    13
(PID.TID 0000.0001) %MON time_secondsf                =   2.3400000000000E+04
(PID.TID 0000.0001) %MON dynstat_eta_max              =   5.5882243306670E-03
(PID.TID 0000.0001) %MON dynstat_eta_min              =  -9.8419083218456E-02
(PID.TID 0000.0001) %MON dynstat_eta_mean             =  -1.7961318280742E-02
(PID.TID 0000.0001) %MON dynstat_eta_sd               =   3.1119324815531E-02
(PID.TID 0000.0001) %MON dynstat_eta_del2             =   5.6021777815409E-05
(PID.TID 0000.0001) %MON dynstat_uvel_max             =   3.5526689419365E-03
(PID.TID 0000.0001) %MON dynstat_uvel_min             =  -8.3977718639508E-04
(PID.TID 0000.0001) %MON dynstat_uvel_mean            =   2.5635178950248E-05
(PID.TID 0000.0001) %MON dynstat_uvel_sd              =   3.0094877256350E-04
(PID.TID 0000.0001) %MON dynstat_uvel_del2            =   6.6934577085579E-07
(PID.TID 0000.0001) %MON dynstat_vvel_max             =   3.3327071364587E-03
(PID.TID 0000.0001) %MON dynstat_vvel_min             =  -1.8713510976641E-03
(PID.TID 0000.0001) %MON dynstat_vvel_mean            =   7.6054477296750E-04
(PID.TID 0000.0001) %MON dynstat_vvel_sd              =   3.1587210608051E-04
(PID.TID 0000.0001) %MON dynstat_vvel_del2            =   3.8080710417244E-07
(PID.TID 0000.0001) %MON dynstat_wvel_max             =   8.2377832824472E-05
(PID.TID 0000.0001) %MON dynstat_wvel_min             =  -1.9278541338089E-05
(PID.TID 0000.0001) %MON dynstat_wvel_mean            =   1.8604219405005E-07
(PID.TID 0000.0001) %MON dynstat_wvel_sd              =   2.0467229144979E-06
(PID.TID 0000.0001) %MON dynstat_wvel_del2            =   1.7753222910775E-08
(PID.TID 0000.0001) %MON dynstat_theta_max            =  -1.8999999995477E+00
(PID.TID 0000.0001) %MON dynstat_theta_min            =  -1.9002591670154E+00
(PID.TID 0000.0001) %MON dynstat_theta_mean           =  -1.9000017192155E+00
(PID.TID 0000.0001) %MON dynstat_theta_sd             =   1.2944742170089E-05
(PID.TID 0000.0001) %MON dynstat_theta_del2           =   1.5096467470290E-08
(PID.TID 0000.0001) %MON dynstat_salt_max             =   3.4400000000167E+01
(PID.TID 0000.0001) %MON dynstat_salt_min             =   3.4399904469262E+01
(PID.TID 0000.0001) %MON dynstat_salt_mean            =   3.4399999365853E+01
(PID.TID 0000.0001) %MON dynstat_salt_sd              =   4.7740293619149E-06
(PID.TID 0000.0001) %MON dynstat_salt_del2            =   5.5679738125129E-09
(PID.TID 0000.0001) %MON trAdv_CFL_u_max              =   1.0340713104904E-03
(PID.TID 0000.0001) %MON trAdv_CFL_v_max              =   5.3555686111921E-04
(PID.TID 0000.0001) %MON trAdv_CFL_w_max              =   4.7490806073943E-03
(PID.TID 0000.0001) %MON advcfl_uvel_max              =   1.0879769595061E-03
(PID.TID 0000.0001) %MON advcfl_vvel_max              =   5.3957628868129E-04
(PID.TID 0000.0001) %MON advcfl_wvel_max              =   4.9426699694683E-03
(PID.TID 0000.0001) %MON advcfl_W_hf_max              =   4.9426478159363E-03
(PID.TID 0000.0001) %MON pe_b_mean                    =   1.1681188971821E-04
(PID.TID 0000.0001) %MON ke_max                       =   6.3121927830310E-06
(PID.TID 0000.0001) %MON ke_mean                      =   3.8279754957991E-07
(PID.TID 0000.0001) %MON ke_vol                       =   3.4145023585899E+14
(PID.TID 0000.0001) %MON vort_r_min                   =  -4.5733628501042E-07
(PID.TID 0000.0001) %MON vort_r_max                   =   3.1019983220990E-07
(PID.TID 0000.0001) %MON vort_a_mean                  =  -1.3992981969631E-04
(PID.TID 0000.0001) %MON vort_a_sd                    =   1.7369449152502E-06
(PID.TID 0000.0001) %MON vort_p_mean                  =  -1.4746984773852E-04
(PID.TID 0000.0001) %MON vort_p_sd                    =   7.8017393291813E-05
(PID.TID 0000.0001) %MON surfExpan_theta_mean         =   1.4584143175302E-06
(PID.TID 0000.0001) %MON surfExpan_salt_mean          =  -2.6404858640865E-05
(PID.TID 0000.0001) // =======================================================
(PID.TID 0000.0001) // End MONITOR dynamic field statistics
(PID.TID 0000.0001) // =======================================================
(PID.TID 0000.0001) // =======================================================
(PID.TID 0000.0001) // Begin OBCS MONITOR field statistics
(PID.TID 0000.0001) // =======================================================
(PID.TID 0000.0001) %MON obc_time_tsnumber            =                    13
(PID.TID 0000.0001) %MON obc_time_secondsf            =   2.3400000000000E+04
(PID.TID 0000.0001) %MON obc_N_vVel_max               =   7.0571452290187E-04
(PID.TID 0000.0001) %MON obc_N_vVel_min               =   7.0571452290187E-04
(PID.TID 0000.0001) %MON obc_N_vVel_mean              =   7.0571452290185E-04
(PID.TID 0000.0001) %MON obc_N_vVel_sd                =   1.7703168939037E-10
(PID.TID 0000.0001) %MON obc_N_vVel_Int               =   3.5332076252655E+05
(PID.TID 0000.0001) %MON obc_N_theta_max              =  -1.9000000000000E+00
(PID.TID 0000.0001) %MON obc_N_theta_min              =  -1.9000000000000E+00
(PID.TID 0000.0001) %MON obc_N_theta_mean             =  -1.9000000000000E+00
(PID.TID 0000.0001) %MON obc_N_theta_sd               =   1.1733186057228E-07
(PID.TID 0000.0001) // =======================================================
(PID.TID 0000.0001) // End OBCS MONITOR field statistics
(PID.TID 0000.0001) // =======================================================
(PID.TID 0000.0001) OBCS_balance (it=       14 ) correct for netFreshWaterFlux:  0.00000000E+00
(PID.TID 0000.0001) OBCS_balance (it=       14 ) correct for shelfIceNetMassFlux:  3.53326012E+05
(PID.TID 0000.0001) OBCS_balance (it=       14 ) correct for inFlow:  0.00000000E+00  0.00000000E+00
(PID.TID 0000.0001) OBCS_balance correction to OBEu,OBWu:  7.05725008E-04 -7.05725008E-04
(PID.TID 0000.0001) OBCS_balance correction to OBNv,OBSv:  7.05725008E-04 -7.05725008E-04
 cg2d: Sum(rhs),rhsMax =   1.83203807401573E+01  1.29829899361113E-01
(PID.TID 0000.0001)      cg2d_init_res =   6.54288685419828E-01
(PID.TID 0000.0001)      cg2d_iters(min,last) =      -1     204
(PID.TID 0000.0001)      cg2d_last_res =   7.97898981387097E-14
(PID.TID 0000.0001) // =======================================================
(PID.TID 0000.0001) // Begin MONITOR dynamic field statistics
(PID.TID 0000.0001) // =======================================================
(PID.TID 0000.0001) %MON time_tsnumber                =                    14
(PID.TID 0000.0001) %MON time_secondsf                =   2.5200000000000E+04
(PID.TID 0000.0001) %MON dynstat_eta_max              =   4.4380685137740E-03
(PID.TID 0000.0001) %MON dynstat_eta_min              =  -1.0289734484206E-01
(PID.TID 0000.0001) %MON dynstat_eta_mean             =  -1.9342988509783E-02
(PID.TID 0000.0001) %MON dynstat_eta_sd               =   3.2321281736747E-02
(PID.TID 0000.0001) %MON dynstat_eta_del2             =   6.0141571152629E-05
(PID.TID 0000.0001) %MON dynstat_uvel_max             =   3.6937038839943E-03
(PID.TID 0000.0001) %MON dynstat_uvel_min             =  -9.8949559333244E-04
(PID.TID 0000.0001) %MON dynstat_uvel_mean            =   1.7003490061956E-05
(PID.TID 0000.0001) %MON dynstat_uvel_sd              =   3.1372841627519E-04
(PID.TID 0000.0001) %MON dynstat_uvel_del2            =   7.2109245089180E-07
(PID.TID 0000.0001) %MON dynstat_vvel_max             =   3.4299394080279E-03
(PID.TID 0000.0001) %MON dynstat_vvel_min             =  -2.0973940650352E-03
(PID.TID 0000.0001) %MON dynstat_vvel_mean            =   7.1302619419491E-04
(PID.TID 0000.0001) %MON dynstat_vvel_sd              =   3.1670494689064E-04
(PID.TID 0000.0001) %MON dynstat_vvel_del2            =   4.2590091176735E-07
(PID.TID 0000.0001) %MON dynstat_wvel_max             =   8.5938570795828E-05
(PID.TID 0000.0001) %MON dynstat_wvel_min             =  -2.2886961536733E-05
(PID.TID 0000.0001) %MON dynstat_wvel_mean            =   1.6966642264809E-07
(PID.TID 0000.0001) %MON dynstat_wvel_sd              =   2.1414911087498E-06
(PID.TID 0000.0001) %MON dynstat_wvel_del2            =   1.8933570479542E-08
(PID.TID 0000.0001) %MON dynstat_theta_max            =  -1.8999999994123E+00
(PID.TID 0000.0001) %MON dynstat_theta_min            =  -1.9002975458495E+00
(PID.TID 0000.0001) %MON dynstat_theta_mean           =  -1.9000018448034E+00
(PID.TID 0000.0001) %MON dynstat_theta_sd             =   1.3980208190375E-05
(PID.TID 0000.0001) %MON dynstat_theta_del2           =   1.6272193855918E-08
(PID.TID 0000.0001) %MON dynstat_salt_max             =   3.4400000000217E+01
(PID.TID 0000.0001) %MON dynstat_salt_min             =   3.4399890322907E+01
(PID.TID 0000.0001) %MON dynstat_salt_mean            =   3.4399999319533E+01
(PID.TID 0000.0001) %MON dynstat_salt_sd              =   5.1558333214818E-06
(PID.TID 0000.0001) %MON dynstat_salt_del2            =   6.0015152832800E-09
(PID.TID 0000.0001) %MON trAdv_CFL_u_max              =   1.0879768837688E-03
(PID.TID 0000.0001) %MON trAdv_CFL_v_max              =   5.4192321361787E-04
(PID.TID 0000.0001) %MON trAdv_CFL_w_max              =   4.9426478159363E-03
(PID.TID 0000.0001) %MON advcfl_uvel_max              =   1.1311678027713E-03
(PID.TID 0000.0001) %MON advcfl_vvel_max              =   5.5531851447108E-04
(PID.TID 0000.0001) %MON advcfl_wvel_max              =   5.1563142477497E-03
(PID.TID 0000.0001) %MON advcfl_W_hf_max              =   5.1562945139401E-03
(PID.TID 0000.0001) %MON pe_b_mean                    =   1.2177433014521E-04
(PID.TID 0000.0001) %MON ke_max                       =   6.8181025995663E-06
(PID.TID 0000.0001) %MON ke_mean                      =   3.5161032787441E-07
(PID.TID 0000.0001) %MON ke_vol                       =   3.4144959988162E+14
(PID.TID 0000.0001) %MON vort_r_min                   =  -4.6397139669693E-07
(PID.TID 0000.0001) %MON vort_r_max                   =   3.1388486410479E-07
(PID.TID 0000.0001) %MON vort_a_mean                  =  -1.3992981969631E-04
(PID.TID 0000.0001) %MON vort_a_sd                    =   1.7369148385004E-06
(PID.TID 0000.0001) %MON vort_p_mean                  =  -1.4747011797383E-04
(PID.TID 0000.0001) %MON vort_p_sd                    =   7.8016631186184E-05
(PID.TID 0000.0001) %MON surfExpan_theta_mean         =   1.4584359256104E-06
(PID.TID 0000.0001) %MON surfExpan_salt_mean          =  -2.6405250965363E-05
(PID.TID 0000.0001) // =======================================================
(PID.TID 0000.0001) // End MONITOR dynamic field statistics
(PID.TID 0000.0001) // =======================================================
(PID.TID 0000.0001) // =======================================================
(PID.TID 0000.0001) // Begin OBCS MONITOR field statistics
(PID.TID 0000.0001) // =======================================================
(PID.TID 0000.0001) %MON obc_time_tsnumber            =                    14
(PID.TID 0000.0001) %MON obc_time_secondsf            =   2.5200000000000E+04
(PID.TID 0000.0001) %MON obc_N_vVel_max               =   7.0572500784662E-04
(PID.TID 0000.0001) %MON obc_N_vVel_min               =   7.0572500784662E-04
(PID.TID 0000.0001) %MON obc_N_vVel_mean              =   7.0572500784661E-04
(PID.TID 0000.0001) %MON obc_N_vVel_sd                =   4.7153594630129E-11
(PID.TID 0000.0001) %MON obc_N_vVel_Int               =   3.5332601188527E+05
(PID.TID 0000.0001) %MON obc_N_theta_max              =  -1.9000000000000E+00
(PID.TID 0000.0001) %MON obc_N_theta_min              =  -1.9000000000000E+00
(PID.TID 0000.0001) %MON obc_N_theta_mean             =  -1.9000000000000E+00
(PID.TID 0000.0001) %MON obc_N_theta_sd               =   1.1733186057228E-07
(PID.TID 0000.0001) // =======================================================
(PID.TID 0000.0001) // End OBCS MONITOR field statistics
(PID.TID 0000.0001) // =======================================================
(PID.TID 0000.0001) OBCS_balance (it=       15 ) correct for netFreshWaterFlux:  0.00000000E+00
(PID.TID 0000.0001) OBCS_balance (it=       15 ) correct for shelfIceNetMassFlux:  3.53325759E+05
(PID.TID 0000.0001) OBCS_balance (it=       15 ) correct for inFlow:  0.00000000E+00  0.00000000E+00
(PID.TID 0000.0001) OBCS_balance correction to OBEu,OBWu:  7.05724502E-04 -7.05724502E-04
(PID.TID 0000.0001) OBCS_balance correction to OBNv,OBSv:  7.05724502E-04 -7.05724502E-04
 cg2d: Sum(rhs),rhsMax =   1.83857573071452E+01  1.38609017726454E-01
(PID.TID 0000.0001)      cg2d_init_res =   6.12781183754458E-01
(PID.TID 0000.0001)      cg2d_iters(min,last) =      -1     197
(PID.TID 0000.0001)      cg2d_last_res =   9.81854245068047E-14
(PID.TID 0000.0001) // =======================================================
(PID.TID 0000.0001) // Begin MONITOR dynamic field statistics
(PID.TID 0000.0001) // =======================================================
(PID.TID 0000.0001) %MON time_tsnumber                =                    15
(PID.TID 0000.0001) %MON time_secondsf                =   2.7000000000000E+04
(PID.TID 0000.0001) %MON dynstat_eta_max              =   3.3208783031958E-03
(PID.TID 0000.0001) %MON dynstat_eta_min              =  -1.0747931840937E-01
(PID.TID 0000.0001) %MON dynstat_eta_mean             =  -2.0724657749222E-02
(PID.TID 0000.0001) %MON dynstat_eta_sd               =   3.3507635000109E-02
(PID.TID 0000.0001) %MON dynstat_eta_del2             =   6.4261407758836E-05
(PID.TID 0000.0001) %MON dynstat_uvel_max             =   3.8210531392170E-03
(PID.TID 0000.0001) %MON dynstat_uvel_min             =  -1.1426728865677E-03
(PID.TID 0000.0001) %MON dynstat_uvel_mean            =   7.2969913453943E-06
(PID.TID 0000.0001) %MON dynstat_uvel_sd              =   3.2598600906188E-04
(PID.TID 0000.0001) %MON dynstat_uvel_del2            =   7.7370276888548E-07
(PID.TID 0000.0001) %MON dynstat_vvel_max             =   3.5866371721015E-03
(PID.TID 0000.0001) %MON dynstat_vvel_min             =  -2.2698583176629E-03
(PID.TID 0000.0001) %MON dynstat_vvel_mean            =   7.0678369766593E-04
(PID.TID 0000.0001) %MON dynstat_vvel_sd              =   3.2557927627141E-04
(PID.TID 0000.0001) %MON dynstat_vvel_del2            =   4.7332291600305E-07
(PID.TID 0000.0001) %MON dynstat_wvel_max             =   9.0099655058591E-05
(PID.TID 0000.0001) %MON dynstat_wvel_min             =  -2.6508214415350E-05
(PID.TID 0000.0001) %MON dynstat_wvel_mean            =   1.6768292279218E-07
(PID.TID 0000.0001) %MON dynstat_wvel_sd              =   2.2695556136057E-06
(PID.TID 0000.0001) %MON dynstat_wvel_del2            =   2.0358563825044E-08
(PID.TID 0000.0001) %MON dynstat_theta_max            =  -1.8999999992528E+00
(PID.TID 0000.0001) %MON dynstat_theta_min            =  -1.9003370851499E+00
(PID.TID 0000.0001) %MON dynstat_theta_mean           =  -1.9000019721405E+00
(PID.TID 0000.0001) %MON dynstat_theta_sd             =   1.5039309880642E-05
(PID.TID 0000.0001) %MON dynstat_theta_del2           =   1.7484621321790E-08
(PID.TID 0000.0001) %MON dynstat_salt_max             =   3.4400000000276E+01
(PID.TID 0000.0001) %MON dynstat_salt_min             =   3.4399875748825E+01
(PID.TID 0000.0001) %MON dynstat_salt_mean            =   3.4399999272568E+01
(PID.TID 0000.0001) %MON dynstat_salt_sd              =   5.5463490142263E-06
(PID.TID 0000.0001) %MON dynstat_salt_del2            =   6.4485830998470E-09
(PID.TID 0000.0001) %MON trAdv_CFL_u_max              =   1.1311677771221E-03
(PID.TID 0000.0001) %MON trAdv_CFL_v_max              =   5.5784840413809E-04
(PID.TID 0000.0001) %MON trAdv_CFL_w_max              =   5.1562945139401E-03
(PID.TID 0000.0001) %MON advcfl_uvel_max              =   1.1701675119356E-03
(PID.TID 0000.0001) %MON advcfl_vvel_max              =   5.8068839982901E-04
(PID.TID 0000.0001) %MON advcfl_wvel_max              =   5.4059793035154E-03
(PID.TID 0000.0001) %MON advcfl_W_hf_max              =   5.4059612968511E-03
(PID.TID 0000.0001) %MON pe_b_mean                    =   1.2659065196346E-04
(PID.TID 0000.0001) %MON ke_max                       =   7.3018362676636E-06
(PID.TID 0000.0001) %MON ke_mean                      =   3.5374895321476E-07
(PID.TID 0000.0001) %MON ke_vol                       =   3.4144896389480E+14
(PID.TID 0000.0001) %MON vort_r_min                   =  -4.8091877976077E-07
(PID.TID 0000.0001) %MON vort_r_max                   =   3.2526953892213E-07
(PID.TID 0000.0001) %MON vort_a_mean                  =  -1.3992981969631E-04
(PID.TID 0000.0001) %MON vort_a_sd                    =   1.7368923416974E-06
(PID.TID 0000.0001) %MON vort_p_mean                  =  -1.4747038821953E-04
(PID.TID 0000.0001) %MON vort_p_sd                    =   7.8015618652389E-05
(PID.TID 0000.0001) %MON surfExpan_theta_mean         =   1.4584353295359E-06
(PID.TID 0000.0001) %MON surfExpan_salt_mean          =  -2.6405231887578E-05
(PID.TID 0000.0001) // =======================================================
(PID.TID 0000.0001) // End MONITOR dynamic field statistics
(PID.TID 0000.0001) // =======================================================
(PID.TID 0000.0001) // =======================================================
(PID.TID 0000.0001) // Begin OBCS MONITOR field statistics
(PID.TID 0000.0001) // =======================================================
(PID.TID 0000.0001) %MON obc_time_tsnumber            =                    15
(PID.TID 0000.0001) %MON obc_time_secondsf            =   2.7000000000000E+04
(PID.TID 0000.0001) %MON obc_N_vVel_max               =   7.0572450238103E-04
(PID.TID 0000.0001) %MON obc_N_vVel_min               =   7.0572450238103E-04
(PID.TID 0000.0001) %MON obc_N_vVel_mean              =   7.0572450238102E-04
(PID.TID 0000.0001) %MON obc_N_vVel_sd                =   1.1641532182693E-10
(PID.TID 0000.0001) %MON obc_N_vVel_Int               =   3.5332575882049E+05
(PID.TID 0000.0001) %MON obc_N_theta_max              =  -1.9000000000000E+00
(PID.TID 0000.0001) %MON obc_N_theta_min              =  -1.9000000000000E+00
(PID.TID 0000.0001) %MON obc_N_theta_mean             =  -1.9000000000000E+00
(PID.TID 0000.0001) %MON obc_N_theta_sd               =   1.1733186057228E-07
(PID.TID 0000.0001) // =======================================================
(PID.TID 0000.0001) // End OBCS MONITOR field statistics
(PID.TID 0000.0001) // =======================================================
(PID.TID 0000.0001) OBCS_balance (it=       16 ) correct for netFreshWaterFlux:  0.00000000E+00
(PID.TID 0000.0001) OBCS_balance (it=       16 ) correct for shelfIceNetMassFlux:  3.53321526E+05
(PID.TID 0000.0001) OBCS_balance (it=       16 ) correct for inFlow:  0.00000000E+00  0.00000000E+00
(PID.TID 0000.0001) OBCS_balance correction to OBEu,OBWu:  7.05716048E-04 -7.05716048E-04
(PID.TID 0000.0001) OBCS_balance correction to OBNv,OBSv:  7.05716048E-04 -7.05716048E-04
 cg2d: Sum(rhs),rhsMax =   1.84336271109858E+01  1.47465731052355E-01
(PID.TID 0000.0001)      cg2d_init_res =   5.76030096013015E-01
(PID.TID 0000.0001)      cg2d_iters(min,last) =      -1     203
(PID.TID 0000.0001)      cg2d_last_res =   9.78464808851533E-14
(PID.TID 0000.0001) // =======================================================
(PID.TID 0000.0001) // Begin MONITOR dynamic field statistics
(PID.TID 0000.0001) // =======================================================
(PID.TID 0000.0001) %MON time_tsnumber                =                    16
(PID.TID 0000.0001) %MON time_secondsf                =   2.8800000000000E+04
(PID.TID 0000.0001) %MON dynstat_eta_max              =   3.4427768739139E-03
(PID.TID 0000.0001) %MON dynstat_eta_min              =  -1.1250632899756E-01
(PID.TID 0000.0001) %MON dynstat_eta_mean             =  -2.2106310436297E-02
(PID.TID 0000.0001) %MON dynstat_eta_sd               =   3.4827761090095E-02
(PID.TID 0000.0001) %MON dynstat_eta_del2             =   6.8381348315607E-05
(PID.TID 0000.0001) %MON dynstat_uvel_max             =   3.9587993391895E-03
(PID.TID 0000.0001) %MON dynstat_uvel_min             =  -1.2926131237362E-03
(PID.TID 0000.0001) %MON dynstat_uvel_mean            =  -1.7400533933350E-06
(PID.TID 0000.0001) %MON dynstat_uvel_sd              =   3.3907050727337E-04
(PID.TID 0000.0001) %MON dynstat_uvel_del2            =   8.2856038898429E-07
(PID.TID 0000.0001) %MON dynstat_vvel_max             =   3.7865258210933E-03
(PID.TID 0000.0001) %MON dynstat_vvel_min             =  -2.4054361621131E-03
(PID.TID 0000.0001) %MON dynstat_vvel_mean            =   7.3635093001891E-04
(PID.TID 0000.0001) %MON dynstat_vvel_sd              =   3.4120300419591E-04
(PID.TID 0000.0001) %MON dynstat_vvel_del2            =   5.2200856876215E-07
(PID.TID 0000.0001) %MON dynstat_wvel_max             =   9.4991054919228E-05
(PID.TID 0000.0001) %MON dynstat_wvel_min             =  -3.0080062339535E-05
(PID.TID 0000.0001) %MON dynstat_wvel_mean            =   1.7806378611196E-07
(PID.TID 0000.0001) %MON dynstat_wvel_sd              =   2.4214091324266E-06
(PID.TID 0000.0001) %MON dynstat_wvel_del2            =   2.1962750124147E-08
(PID.TID 0000.0001) %MON dynstat_theta_max            =  -1.8999999990642E+00
(PID.TID 0000.0001) %MON dynstat_theta_min            =  -1.9003777601952E+00
(PID.TID 0000.0001) %MON dynstat_theta_mean           =  -1.9000021027343E+00
(PID.TID 0000.0001) %MON dynstat_theta_sd             =   1.6133658036047E-05
(PID.TID 0000.0001) %MON dynstat_theta_del2           =   1.8747218343130E-08
(PID.TID 0000.0001) %MON dynstat_salt_max             =   3.4400000000345E+01
(PID.TID 0000.0001) %MON dynstat_salt_min             =   3.4399860756129E+01
(PID.TID 0000.0001) %MON dynstat_salt_mean            =   3.4399999224402E+01
(PID.TID 0000.0001) %MON dynstat_salt_sd              =   5.9498592079416E-06
(PID.TID 0000.0001) %MON dynstat_salt_del2            =   6.9141464343627E-09
(PID.TID 0000.0001) %MON trAdv_CFL_u_max              =   1.1701675204705E-03
(PID.TID 0000.0001) %MON trAdv_CFL_v_max              =   5.8333395721200E-04
(PID.TID 0000.0001) %MON trAdv_CFL_w_max              =   5.4059612968511E-03
(PID.TID 0000.0001) %MON advcfl_uvel_max              =   1.2123512037681E-03
(PID.TID 0000.0001) %MON advcfl_vvel_max              =   6.1305103205451E-04
(PID.TID 0000.0001) %MON advcfl_wvel_max              =   5.6994632951537E-03
(PID.TID 0000.0001) %MON advcfl_W_hf_max              =   5.6994458831672E-03
(PID.TID 0000.0001) %MON pe_b_mean                    =   1.3169776355588E-04
(PID.TID 0000.0001) %MON ke_max                       =   7.8338303515336E-06
(PID.TID 0000.0001) %MON ke_mean                      =   3.8461176434338E-07
(PID.TID 0000.0001) %MON ke_vol                       =   3.4144832790843E+14
(PID.TID 0000.0001) %MON vort_r_min                   =  -5.0560921838455E-07
(PID.TID 0000.0001) %MON vort_r_max                   =   3.4426944381107E-07
(PID.TID 0000.0001) %MON vort_a_mean                  =  -1.3992981969631E-04
(PID.TID 0000.0001) %MON vort_a_sd                    =   1.7368839483567E-06
(PID.TID 0000.0001) %MON vort_p_mean                  =  -1.4747065845549E-04
(PID.TID 0000.0001) %MON vort_p_sd                    =   7.8014724576224E-05
(PID.TID 0000.0001) %MON surfExpan_theta_mean         =   1.4584188562279E-06
(PID.TID 0000.0001) %MON surfExpan_salt_mean          =  -2.6404915185355E-05
(PID.TID 0000.0001) // =======================================================
(PID.TID 0000.0001) // End MONITOR dynamic field statistics
(PID.TID 0000.0001) // =======================================================
(PID.TID 0000.0001) // =======================================================
(PID.TID 0000.0001) // Begin OBCS MONITOR field statistics
(PID.TID 0000.0001) // =======================================================
(PID.TID 0000.0001) %MON obc_time_tsnumber            =                    16
(PID.TID 0000.0001) %MON obc_time_secondsf            =   2.8800000000000E+04
(PID.TID 0000.0001) %MON obc_N_vVel_max               =   7.0571604781851E-04
(PID.TID 0000.0001) %MON obc_N_vVel_min               =   7.0571604781851E-04
(PID.TID 0000.0001) %MON obc_N_vVel_mean              =   7.0571604781849E-04
(PID.TID 0000.0001) %MON obc_N_vVel_sd                =   7.8364461764206E-11
(PID.TID 0000.0001) %MON obc_N_vVel_Int               =   3.5332152598642E+05
(PID.TID 0000.0001) %MON obc_N_theta_max              =  -1.9000000000000E+00
(PID.TID 0000.0001) %MON obc_N_theta_min              =  -1.9000000000000E+00
(PID.TID 0000.0001) %MON obc_N_theta_mean             =  -1.9000000000000E+00
(PID.TID 0000.0001) %MON obc_N_theta_sd               =   1.1733186057228E-07
(PID.TID 0000.0001) // =======================================================
(PID.TID 0000.0001) // End OBCS MONITOR field statistics
(PID.TID 0000.0001) // =======================================================
(PID.TID 0000.0001) OBCS_balance (it=       17 ) correct for netFreshWaterFlux:  0.00000000E+00
(PID.TID 0000.0001) OBCS_balance (it=       17 ) correct for shelfIceNetMassFlux:  3.53313519E+05
(PID.TID 0000.0001) OBCS_balance (it=       17 ) correct for inFlow:  0.00000000E+00  0.00000000E+00
(PID.TID 0000.0001) OBCS_balance correction to OBEu,OBWu:  7.05700055E-04 -7.05700055E-04
(PID.TID 0000.0001) OBCS_balance correction to OBNv,OBSv:  7.05700055E-04 -7.05700055E-04
 cg2d: Sum(rhs),rhsMax =   1.84687958743845E+01  1.56383827326802E-01
(PID.TID 0000.0001)      cg2d_init_res =   5.43318634132127E-01
(PID.TID 0000.0001)      cg2d_iters(min,last) =      -1     203
(PID.TID 0000.0001)      cg2d_last_res =   9.96374100520620E-14
(PID.TID 0000.0001) // =======================================================
(PID.TID 0000.0001) // Begin MONITOR dynamic field statistics
(PID.TID 0000.0001) // =======================================================
(PID.TID 0000.0001) %MON time_tsnumber                =                    17
(PID.TID 0000.0001) %MON time_secondsf                =   3.0600000000000E+04
(PID.TID 0000.0001) %MON dynstat_eta_max              =   3.9203714443228E-03
(PID.TID 0000.0001) %MON dynstat_eta_min              =  -1.1818543804547E-01
(PID.TID 0000.0001) %MON dynstat_eta_mean             =  -2.3487931811655E-02
(PID.TID 0000.0001) %MON dynstat_eta_sd               =   3.6385496545799E-02
(PID.TID 0000.0001) %MON dynstat_eta_del2             =   7.2501454007968E-05
(PID.TID 0000.0001) %MON dynstat_uvel_max             =   4.1204173129851E-03
(PID.TID 0000.0001) %MON dynstat_uvel_min             =  -1.4332740397147E-03
(PID.TID 0000.0001) %MON dynstat_uvel_mean            =  -8.7338862042153E-06
(PID.TID 0000.0001) %MON dynstat_uvel_sd              =   3.5384627533722E-04
(PID.TID 0000.0001) %MON dynstat_uvel_del2            =   8.8625740805884E-07
(PID.TID 0000.0001) %MON dynstat_vvel_max             =   4.0220169996417E-03
(PID.TID 0000.0001) %MON dynstat_vvel_min             =  -2.5475149948134E-03
(PID.TID 0000.0001) %MON dynstat_vvel_mean            =   7.9160665270907E-04
(PID.TID 0000.0001) %MON dynstat_vvel_sd              =   3.6450117759066E-04
(PID.TID 0000.0001) %MON dynstat_vvel_del2            =   5.7113926648665E-07
(PID.TID 0000.0001) %MON dynstat_wvel_max             =   1.0060393870239E-04
(PID.TID 0000.0001) %MON dynstat_wvel_min             =  -3.3558759856307E-05
(PID.TID 0000.0001) %MON dynstat_wvel_mean            =   1.9720063792454E-07
(PID.TID 0000.0001) %MON dynstat_wvel_sd              =   2.5856431286060E-06
(PID.TID 0000.0001) %MON dynstat_wvel_del2            =   2.3658064429625E-08
(PID.TID 0000.0001) %MON dynstat_theta_max            =  -1.8999999988402E+00
(PID.TID 0000.0001) %MON dynstat_theta_min            =  -1.9004198300416E+00
(PID.TID 0000.0001) %MON dynstat_theta_mean           =  -1.9000022383800E+00
(PID.TID 0000.0001) %MON dynstat_theta_sd             =   1.7276778914784E-05
(PID.TID 0000.0001) %MON dynstat_theta_del2           =   2.0080187432422E-08
(PID.TID 0000.0001) %MON dynstat_salt_max             =   3.4400000000428E+01
(PID.TID 0000.0001) %MON dynstat_salt_min             =   3.4399845249339E+01
(PID.TID 0000.0001) %MON dynstat_salt_mean            =   3.4399999174374E+01
(PID.TID 0000.0001) %MON dynstat_salt_sd              =   6.3713526971796E-06
(PID.TID 0000.0001) %MON dynstat_salt_del2            =   7.4056578199038E-09
(PID.TID 0000.0001) %MON trAdv_CFL_u_max              =   1.2123512246432E-03
(PID.TID 0000.0001) %MON trAdv_CFL_v_max              =   6.1584411759012E-04
(PID.TID 0000.0001) %MON trAdv_CFL_w_max              =   5.6994458831672E-03
(PID.TID 0000.0001) %MON advcfl_uvel_max              =   1.2618454388363E-03
(PID.TID 0000.0001) %MON advcfl_vvel_max              =   6.5117783136077E-04
(PID.TID 0000.0001) %MON advcfl_wvel_max              =   6.0362363221436E-03
(PID.TID 0000.0001) %MON advcfl_W_hf_max              =   6.0362181353213E-03
(PID.TID 0000.0001) %MON pe_b_mean                    =   1.3740232058066E-04
(PID.TID 0000.0001) %MON ke_max                       =   8.4859410098844E-06
(PID.TID 0000.0001) %MON ke_mean                      =   4.4025255654233E-07
(PID.TID 0000.0001) %MON ke_vol                       =   3.4144769192968E+14
(PID.TID 0000.0001) %MON vort_r_min                   =  -5.3651243506624E-07
(PID.TID 0000.0001) %MON vort_r_max                   =   3.6966398319557E-07
(PID.TID 0000.0001) %MON vort_a_mean                  =  -1.3992981969631E-04
(PID.TID 0000.0001) %MON vort_a_sd                    =   1.7368948953065E-06
(PID.TID 0000.0001) %MON vort_p_mean                  =  -1.4747092867266E-04
(PID.TID 0000.0001) %MON vort_p_sd                    =   7.8014230944904E-05
(PID.TID 0000.0001) %MON surfExpan_theta_mean         =   1.4583873030152E-06
(PID.TID 0000.0001) %MON surfExpan_salt_mean          =  -2.6404316231174E-05
(PID.TID 0000.0001) // =======================================================
(PID.TID 0000.0001) // End MONITOR dynamic field statistics
(PID.TID 0000.0001) // =======================================================
(PID.TID 0000.0001) // =======================================================
(PID.TID 0000.0001) // Begin OBCS MONITOR field statistics
(PID.TID 0000.0001) // =======================================================
(PID.TID 0000.0001) %MON obc_time_tsnumber            =                    17
(PID.TID 0000.0001) %MON obc_time_secondsf            =   3.0600000000000E+04
(PID.TID 0000.0001) %MON obc_N_vVel_max               =   7.0570005452148E-04
(PID.TID 0000.0001) %MON obc_N_vVel_min               =   7.0570005452148E-04
(PID.TID 0000.0001) %MON obc_N_vVel_mean              =   7.0570005452146E-04
(PID.TID 0000.0001) %MON obc_N_vVel_sd                =   1.6171623989716E-10
(PID.TID 0000.0001) %MON obc_N_vVel_Int               =   3.5331351883378E+05
(PID.TID 0000.0001) %MON obc_N_theta_max              =  -1.9000000000000E+00
(PID.TID 0000.0001) %MON obc_N_theta_min              =  -1.9000000000000E+00
(PID.TID 0000.0001) %MON obc_N_theta_mean             =  -1.9000000000000E+00
(PID.TID 0000.0001) %MON obc_N_theta_sd               =   1.1733186057228E-07
(PID.TID 0000.0001) // =======================================================
(PID.TID 0000.0001) // End OBCS MONITOR field statistics
(PID.TID 0000.0001) // =======================================================
(PID.TID 0000.0001) OBCS_balance (it=       18 ) correct for netFreshWaterFlux:  0.00000000E+00
(PID.TID 0000.0001) OBCS_balance (it=       18 ) correct for shelfIceNetMassFlux:  3.53301762E+05
(PID.TID 0000.0001) OBCS_balance (it=       18 ) correct for inFlow:  0.00000000E+00  0.00000000E+00
(PID.TID 0000.0001) OBCS_balance correction to OBEu,OBWu:  7.05676573E-04 -7.05676573E-04
(PID.TID 0000.0001) OBCS_balance correction to OBNv,OBSv:  7.05676573E-04 -7.05676573E-04
 cg2d: Sum(rhs),rhsMax =   1.84959060212378E+01  1.65339725202533E-01
(PID.TID 0000.0001)      cg2d_init_res =   5.14065521947849E-01
(PID.TID 0000.0001)      cg2d_iters(min,last) =      -1     201
(PID.TID 0000.0001)      cg2d_last_res =   8.86897348055642E-14
(PID.TID 0000.0001) // =======================================================
(PID.TID 0000.0001) // Begin MONITOR dynamic field statistics
(PID.TID 0000.0001) // =======================================================
(PID.TID 0000.0001) %MON time_tsnumber                =                    18
(PID.TID 0000.0001) %MON time_secondsf                =   3.2400000000000E+04
(PID.TID 0000.0001) %MON dynstat_eta_max              =   4.4004403640097E-03
(PID.TID 0000.0001) %MON dynstat_eta_min              =  -1.2458635933466E-01
(PID.TID 0000.0001) %MON dynstat_eta_mean             =  -2.4869507214074E-02
(PID.TID 0000.0001) %MON dynstat_eta_sd               =   3.8231070906757E-02
(PID.TID 0000.0001) %MON dynstat_eta_del2             =   7.6621736702183E-05
(PID.TID 0000.0001) %MON dynstat_uvel_max             =   4.3146463506550E-03
(PID.TID 0000.0001) %MON dynstat_uvel_min             =  -1.5598811800732E-03
(PID.TID 0000.0001) %MON dynstat_uvel_mean            =  -1.2875070815255E-05
(PID.TID 0000.0001) %MON dynstat_uvel_sd              =   3.7069774595194E-04
(PID.TID 0000.0001) %MON dynstat_uvel_del2            =   9.4663005994130E-07
(PID.TID 0000.0001) %MON dynstat_vvel_max             =   4.2689517685867E-03
(PID.TID 0000.0001) %MON dynstat_vvel_min             =  -2.7322024713030E-03
(PID.TID 0000.0001) %MON dynstat_vvel_mean            =   8.6001162528162E-04
(PID.TID 0000.0001) %MON dynstat_vvel_sd              =   3.9513452772857E-04
(PID.TID 0000.0001) %MON dynstat_vvel_del2            =   6.2007685622311E-07
(PID.TID 0000.0001) %MON dynstat_wvel_max             =   1.0681268376725E-04
(PID.TID 0000.0001) %MON dynstat_wvel_min             =  -3.6918113268194E-05
(PID.TID 0000.0001) %MON dynstat_wvel_mean            =   2.2072331463363E-07
(PID.TID 0000.0001) %MON dynstat_wvel_sd              =   2.7501808456985E-06
(PID.TID 0000.0001) %MON dynstat_wvel_del2            =   2.5349019386531E-08
(PID.TID 0000.0001) %MON dynstat_theta_max            =  -1.8999999985735E+00
(PID.TID 0000.0001) %MON dynstat_theta_min            =  -1.9004637129752E+00
(PID.TID 0000.0001) %MON dynstat_theta_mean           =  -1.9000023809134E+00
(PID.TID 0000.0001) %MON dynstat_theta_sd             =   1.8482265479758E-05
(PID.TID 0000.0001) %MON dynstat_theta_del2           =   2.1505528187550E-08
(PID.TID 0000.0001) %MON dynstat_salt_max             =   3.4400000000527E+01
(PID.TID 0000.0001) %MON dynstat_salt_min             =   3.4399829074279E+01
(PID.TID 0000.0001) %MON dynstat_salt_mean            =   3.4399999121804E+01
(PID.TID 0000.0001) %MON dynstat_salt_sd              =   6.8158425605313E-06
(PID.TID 0000.0001) %MON dynstat_salt_del2            =   7.9312323571667E-09
(PID.TID 0000.0001) %MON trAdv_CFL_u_max              =   1.2618454515611E-03
(PID.TID 0000.0001) %MON trAdv_CFL_v_max              =   6.5401047011836E-04
(PID.TID 0000.0001) %MON trAdv_CFL_w_max              =   6.0362181353213E-03
(PID.TID 0000.0001) %MON advcfl_uvel_max              =   1.3213265560767E-03
(PID.TID 0000.0001) %MON advcfl_vvel_max              =   6.9115738573449E-04
(PID.TID 0000.0001) %MON advcfl_wvel_max              =   6.4087610260348E-03
(PID.TID 0000.0001) %MON advcfl_W_hf_max              =   6.4087406819863E-03
(PID.TID 0000.0001) %MON pe_b_mean                    =   1.4385647771858E-04
(PID.TID 0000.0001) %MON ke_max                       =   9.3099396251752E-06
(PID.TID 0000.0001) %MON ke_mean                      =   5.1461079056926E-07
(PID.TID 0000.0001) %MON ke_vol                       =   3.4144705596535E+14
(PID.TID 0000.0001) %MON vort_r_min                   =  -5.7132100841986E-07
(PID.TID 0000.0001) %MON vort_r_max                   =   3.9945249067249E-07
(PID.TID 0000.0001) %MON vort_a_mean                  =  -1.3992981969631E-04
(PID.TID 0000.0001) %MON vort_a_sd                    =   1.7369271863922E-06
(PID.TID 0000.0001) %MON vort_p_mean                  =  -1.4747119887077E-04
(PID.TID 0000.0001) %MON vort_p_sd                    =   7.8014306398406E-05
(PID.TID 0000.0001) %MON surfExpan_theta_mean         =   1.4583406479040E-06
(PID.TID 0000.0001) %MON surfExpan_salt_mean          =  -2.6403436947149E-05
(PID.TID 0000.0001) // =======================================================
(PID.TID 0000.0001) // End MONITOR dynamic field statistics
(PID.TID 0000.0001) // =======================================================
(PID.TID 0000.0001) // =======================================================
(PID.TID 0000.0001) // Begin OBCS MONITOR field statistics
(PID.TID 0000.0001) // =======================================================
(PID.TID 0000.0001) %MON obc_time_tsnumber            =                    18
(PID.TID 0000.0001) %MON obc_time_secondsf            =   3.2400000000000E+04
(PID.TID 0000.0001) %MON obc_N_vVel_max               =   7.0567657261437E-04
(PID.TID 0000.0001) %MON obc_N_vVel_min               =   7.0567657261437E-04
(PID.TID 0000.0001) %MON obc_N_vVel_mean              =   7.0567657261434E-04
(PID.TID 0000.0001) %MON obc_N_vVel_sd                =   1.6204327003885E-10
(PID.TID 0000.0001) %MON obc_N_vVel_Int               =   3.5330176245771E+05
(PID.TID 0000.0001) %MON obc_N_theta_max              =  -1.9000000000000E+00
(PID.TID 0000.0001) %MON obc_N_theta_min              =  -1.9000000000000E+00
(PID.TID 0000.0001) %MON obc_N_theta_mean             =  -1.9000000000000E+00
(PID.TID 0000.0001) %MON obc_N_theta_sd               =   1.1733186057228E-07
(PID.TID 0000.0001) // =======================================================
(PID.TID 0000.0001) // End OBCS MONITOR field statistics
(PID.TID 0000.0001) // =======================================================
(PID.TID 0000.0001) OBCS_balance (it=       19 ) correct for netFreshWaterFlux:  0.00000000E+00
(PID.TID 0000.0001) OBCS_balance (it=       19 ) correct for shelfIceNetMassFlux:  3.53286850E+05
(PID.TID 0000.0001) OBCS_balance (it=       19 ) correct for inFlow:  0.00000000E+00  0.00000000E+00
(PID.TID 0000.0001) OBCS_balance correction to OBEu,OBWu:  7.05646786E-04 -7.05646786E-04
(PID.TID 0000.0001) OBCS_balance correction to OBNv,OBSv:  7.05646786E-04 -7.05646786E-04
 cg2d: Sum(rhs),rhsMax =   1.85189171592993E+01  1.74307593376591E-01
(PID.TID 0000.0001)      cg2d_init_res =   4.87788080164190E-01
(PID.TID 0000.0001)      cg2d_iters(min,last) =      -1     203
(PID.TID 0000.0001)      cg2d_last_res =   9.59948709440825E-14
(PID.TID 0000.0001) // =======================================================
(PID.TID 0000.0001) // Begin MONITOR dynamic field statistics
(PID.TID 0000.0001) // =======================================================
(PID.TID 0000.0001) %MON time_tsnumber                =                    19
(PID.TID 0000.0001) %MON time_secondsf                =   3.4200000000000E+04
(PID.TID 0000.0001) %MON dynstat_eta_max              =   4.8060433810369E-03
(PID.TID 0000.0001) %MON dynstat_eta_min              =  -1.3165804588404E-01
(PID.TID 0000.0001) %MON dynstat_eta_mean             =  -2.6251024300331E-02
(PID.TID 0000.0001) %MON dynstat_eta_sd               =   4.0362628508444E-02
(PID.TID 0000.0001) %MON dynstat_eta_del2             =   8.0742152935664E-05
(PID.TID 0000.0001) %MON dynstat_uvel_max             =   4.5434804477633E-03
(PID.TID 0000.0001) %MON dynstat_uvel_min             =  -1.6691892820134E-03
(PID.TID 0000.0001) %MON dynstat_uvel_mean            =  -1.3950198743580E-05
(PID.TID 0000.0001) %MON dynstat_uvel_sd              =   3.8961865352498E-04
(PID.TID 0000.0001) %MON dynstat_uvel_del2            =   1.0089153897225E-06
(PID.TID 0000.0001) %MON dynstat_vvel_max             =   4.5065955679888E-03
(PID.TID 0000.0001) %MON dynstat_vvel_min             =  -2.9445522064041E-03
(PID.TID 0000.0001) %MON dynstat_vvel_mean            =   9.2890919315519E-04
(PID.TID 0000.0001) %MON dynstat_vvel_sd              =   4.3016440847779E-04
(PID.TID 0000.0001) %MON dynstat_vvel_del2            =   6.6833558501117E-07
(PID.TID 0000.0001) %MON dynstat_wvel_max             =   1.1341442037144E-04
(PID.TID 0000.0001) %MON dynstat_wvel_min             =  -4.0146352174604E-05
(PID.TID 0000.0001) %MON dynstat_wvel_mean            =   2.4429393919708E-07
(PID.TID 0000.0001) %MON dynstat_wvel_sd              =   2.9038204760610E-06
(PID.TID 0000.0001) %MON dynstat_wvel_del2            =   2.6948416562635E-08
(PID.TID 0000.0001) %MON dynstat_theta_max            =  -1.8999999982564E+00
(PID.TID 0000.0001) %MON dynstat_theta_min            =  -1.9005096880627E+00
(PID.TID 0000.0001) %MON dynstat_theta_mean           =  -1.9000025317114E+00
(PID.TID 0000.0001) %MON dynstat_theta_sd             =   1.9760476758931E-05
(PID.TID 0000.0001) %MON dynstat_theta_del2           =   2.3041987421012E-08
(PID.TID 0000.0001) %MON dynstat_salt_max             =   3.4400000000644E+01
(PID.TID 0000.0001) %MON dynstat_salt_min             =   3.4399812128093E+01
(PID.TID 0000.0001) %MON dynstat_salt_mean            =   3.4399999066187E+01
(PID.TID 0000.0001) %MON dynstat_salt_sd              =   7.2871487390918E-06
(PID.TID 0000.0001) %MON dynstat_salt_del2            =   8.4977854748462E-09
(PID.TID 0000.0001) %MON trAdv_CFL_u_max              =   1.3213265424797E-03
(PID.TID 0000.0001) %MON trAdv_CFL_v_max              =   6.9416402184754E-04
(PID.TID 0000.0001) %MON trAdv_CFL_w_max              =   6.4087406819863E-03
(PID.TID 0000.0001) %MON advcfl_uvel_max              =   1.3914052009694E-03
(PID.TID 0000.0001) %MON advcfl_vvel_max              =   7.2963270146408E-04
(PID.TID 0000.0001) %MON advcfl_wvel_max              =   6.8048652222866E-03
(PID.TID 0000.0001) %MON advcfl_W_hf_max              =   6.8048415483792E-03
(PID.TID 0000.0001) %MON pe_b_mean                    =   1.5106084483981E-04
(PID.TID 0000.0001) %MON ke_max                       =   1.0327513630967E-05
(PID.TID 0000.0001) %MON ke_mean                      =   5.9798640833655E-07
(PID.TID 0000.0001) %MON ke_vol                       =   3.4144642002218E+14
(PID.TID 0000.0001) %MON vort_r_min                   =  -6.0742932749898E-07
(PID.TID 0000.0001) %MON vort_r_max                   =   4.3129548529423E-07
(PID.TID 0000.0001) %MON vort_a_mean                  =  -1.3992981969631E-04
(PID.TID 0000.0001) %MON vort_a_sd                    =   1.7369787802140E-06
(PID.TID 0000.0001) %MON vort_p_mean                  =  -1.4747146905407E-04
(PID.TID 0000.0001) %MON vort_p_sd                    =   7.8015003500069E-05
(PID.TID 0000.0001) %MON surfExpan_theta_mean         =   1.4582811631237E-06
(PID.TID 0000.0001) %MON surfExpan_salt_mean          =  -2.6402321696712E-05
(PID.TID 0000.0001) // =======================================================
(PID.TID 0000.0001) // End MONITOR dynamic field statistics
(PID.TID 0000.0001) // =======================================================
(PID.TID 0000.0001) // =======================================================
(PID.TID 0000.0001) // Begin OBCS MONITOR field statistics
(PID.TID 0000.0001) // =======================================================
(PID.TID 0000.0001) %MON obc_time_tsnumber            =                    19
(PID.TID 0000.0001) %MON obc_time_secondsf            =   3.4200000000000E+04
(PID.TID 0000.0001) %MON obc_N_vVel_max               =   7.0564678607540E-04
(PID.TID 0000.0001) %MON obc_N_vVel_min               =   7.0564678607540E-04
(PID.TID 0000.0001) %MON obc_N_vVel_mean              =   7.0564678607540E-04
(PID.TID 0000.0001) %MON obc_N_vVel_sd                =  -9.5291206566109E-22
(PID.TID 0000.0001) %MON obc_N_vVel_Int               =   3.5328684962496E+05
(PID.TID 0000.0001) %MON obc_N_theta_max              =  -1.9000000000000E+00
(PID.TID 0000.0001) %MON obc_N_theta_min              =  -1.9000000000000E+00
(PID.TID 0000.0001) %MON obc_N_theta_mean             =  -1.9000000000000E+00
(PID.TID 0000.0001) %MON obc_N_theta_sd               =   1.1733186057228E-07
(PID.TID 0000.0001) // =======================================================
(PID.TID 0000.0001) // End OBCS MONITOR field statistics
(PID.TID 0000.0001) // =======================================================
(PID.TID 0000.0001) OBCS_balance (it=       20 ) correct for netFreshWaterFlux:  0.00000000E+00
(PID.TID 0000.0001) OBCS_balance (it=       20 ) correct for shelfIceNetMassFlux:  3.53270177E+05
(PID.TID 0000.0001) OBCS_balance (it=       20 ) correct for inFlow:  0.00000000E+00  0.00000000E+00
(PID.TID 0000.0001) OBCS_balance correction to OBEu,OBWu:  7.05613485E-04 -7.05613485E-04
(PID.TID 0000.0001) OBCS_balance correction to OBNv,OBSv:  7.05613485E-04 -7.05613485E-04
 cg2d: Sum(rhs),rhsMax =   1.85407981684523E+01  1.83263940261951E-01
(PID.TID 0000.0001)      cg2d_init_res =   4.64084919774621E-01
(PID.TID 0000.0001)      cg2d_iters(min,last) =      -1     204
(PID.TID 0000.0001)      cg2d_last_res =   7.36689663037932E-14
(PID.TID 0000.0001) // =======================================================
(PID.TID 0000.0001) // Begin MONITOR dynamic field statistics
(PID.TID 0000.0001) // =======================================================
(PID.TID 0000.0001) %MON time_tsnumber                =                    20
(PID.TID 0000.0001) %MON time_secondsf                =   3.6000000000000E+04
(PID.TID 0000.0001) %MON dynstat_eta_max              =   5.0854147417016E-03
(PID.TID 0000.0001) %MON dynstat_eta_min              =  -1.3925780411279E-01
(PID.TID 0000.0001) %MON dynstat_eta_mean             =  -2.7632476189140E-02
(PID.TID 0000.0001) %MON dynstat_eta_sd               =   4.2735125277481E-02
(PID.TID 0000.0001) %MON dynstat_eta_del2             =   8.4862661961419E-05
(PID.TID 0000.0001) %MON dynstat_uvel_max             =   4.8037920511869E-03
(PID.TID 0000.0001) %MON dynstat_uvel_min             =  -1.7595111895481E-03
(PID.TID 0000.0001) %MON dynstat_uvel_mean            =  -1.2264000904389E-05
(PID.TID 0000.0001) %MON dynstat_uvel_sd              =   4.1031463203342E-04
(PID.TID 0000.0001) %MON dynstat_uvel_del2            =   1.0719581736278E-06
(PID.TID 0000.0001) %MON dynstat_vvel_max             =   4.7309681865713E-03
(PID.TID 0000.0001) %MON dynstat_vvel_min             =  -3.1949428131338E-03
(PID.TID 0000.0001) %MON dynstat_vvel_mean            =   9.8751979942805E-04
(PID.TID 0000.0001) %MON dynstat_vvel_sd              =   4.6523887585121E-04
(PID.TID 0000.0001) %MON dynstat_vvel_del2            =   7.1558430593254E-07
(PID.TID 0000.0001) %MON dynstat_wvel_max             =   1.2017594250871E-04
(PID.TID 0000.0001) %MON dynstat_wvel_min             =  -4.3241787700350E-05
(PID.TID 0000.0001) %MON dynstat_wvel_mean            =   2.6426511553088E-07
(PID.TID 0000.0001) %MON dynstat_wvel_sd              =   3.0379291663482E-06
(PID.TID 0000.0001) %MON dynstat_wvel_del2            =   2.8390663155087E-08
(PID.TID 0000.0001) %MON dynstat_theta_max            =  -1.8999999978810E+00
(PID.TID 0000.0001) %MON dynstat_theta_min            =  -1.9005581027930E+00
(PID.TID 0000.0001) %MON dynstat_theta_mean           =  -1.9000026912271E+00
(PID.TID 0000.0001) %MON dynstat_theta_sd             =   2.1115675354670E-05
(PID.TID 0000.0001) %MON dynstat_theta_del2           =   2.4696150703712E-08
(PID.TID 0000.0001) %MON dynstat_salt_max             =   3.4400000000782E+01
(PID.TID 0000.0001) %MON dynstat_salt_min             =   3.4399794282707E+01
(PID.TID 0000.0001) %MON dynstat_salt_mean            =   3.4399999007354E+01
(PID.TID 0000.0001) %MON dynstat_salt_sd              =   7.7868421210657E-06
(PID.TID 0000.0001) %MON dynstat_salt_del2            =   9.1077448746791E-09
(PID.TID 0000.0001) %MON trAdv_CFL_u_max              =   1.3914051490871E-03
(PID.TID 0000.0001) %MON trAdv_CFL_v_max              =   7.3280681508387E-04
(PID.TID 0000.0001) %MON trAdv_CFL_w_max              =   6.8048415483792E-03
(PID.TID 0000.0001) %MON advcfl_uvel_max              =   1.4711235849353E-03
(PID.TID 0000.0001) %MON advcfl_vvel_max              =   7.6595936920275E-04
(PID.TID 0000.0001) %MON advcfl_wvel_max              =   7.2105565505228E-03
(PID.TID 0000.0001) %MON advcfl_W_hf_max              =   7.2105287719740E-03
(PID.TID 0000.0001) %MON pe_b_mean                    =   1.5888884763261E-04
(PID.TID 0000.0001) %MON ke_max                       =   1.1542758418761E-05
(PID.TID 0000.0001) %MON ke_mean                      =   6.7815915478714E-07
(PID.TID 0000.0001) %MON ke_vol                       =   3.4144578410585E+14
(PID.TID 0000.0001) %MON vort_r_min                   =  -6.4234790349834E-07
(PID.TID 0000.0001) %MON vort_r_max                   =   4.6294674555883E-07
(PID.TID 0000.0001) %MON vort_a_mean                  =  -1.3992981969631E-04
(PID.TID 0000.0001) %MON vort_a_sd                    =   1.7370442362509E-06
(PID.TID 0000.0001) %MON vort_p_mean                  =  -1.4747173922760E-04
(PID.TID 0000.0001) %MON vort_p_sd                    =   7.8016273838150E-05
(PID.TID 0000.0001) %MON surfExpan_theta_mean         =   1.4582144200353E-06
(PID.TID 0000.0001) %MON surfExpan_salt_mean          =  -2.6401074935463E-05
(PID.TID 0000.0001) // =======================================================
(PID.TID 0000.0001) // End MONITOR dynamic field statistics
(PID.TID 0000.0001) // =======================================================
(PID.TID 0000.0001)  MDS_WRITE_FIELD: it,rec,kS,kL,kH=      20     1  30   1  30 file=U.0000000020
(PID.TID 0000.0001)  MDS_WRITE_FIELD: it,rec,kS,kL,kH=      20     1  30   1  30 file=V.0000000020
(PID.TID 0000.0001)  MDS_WRITE_FIELD: it,rec,kS,kL,kH=      20     1  30   1  30 file=T.0000000020
(PID.TID 0000.0001)  MDS_WRITE_FIELD: it,rec,kS,kL,kH=      20     1  30   1  30 file=S.0000000020
(PID.TID 0000.0001)  MDS_WRITE_FIELD: it,rec,kS,kL,kH=      20     1   1   1   1 file=Eta.0000000020
(PID.TID 0000.0001)  MDS_WRITE_FIELD: it,rec,kS,kL,kH=      20     1  30   1  30 file=W.0000000020
(PID.TID 0000.0001)  MDS_WRITE_FIELD: it,rec,kS,kL,kH=      20     1  30   1  30 file=PH.0000000020
(PID.TID 0000.0001)  MDS_WRITE_FIELD: it,rec,kS,kL,kH=      20     1   1   1   1 file=PHL.0000000020
(PID.TID 0000.0001) // =======================================================
(PID.TID 0000.0001) // Begin OBCS MONITOR field statistics
(PID.TID 0000.0001) // =======================================================
(PID.TID 0000.0001) %MON obc_time_tsnumber            =                    20
(PID.TID 0000.0001) %MON obc_time_secondsf            =   3.6000000000000E+04
(PID.TID 0000.0001) %MON obc_N_vVel_max               =   7.0561348473594E-04
(PID.TID 0000.0001) %MON obc_N_vVel_min               =   7.0561348473594E-04
(PID.TID 0000.0001) %MON obc_N_vVel_mean              =   7.0561348473593E-04
(PID.TID 0000.0001) %MON obc_N_vVel_sd                =   2.0579515874460E-11
(PID.TID 0000.0001) %MON obc_N_vVel_Int               =   3.5327017708348E+05
(PID.TID 0000.0001) %MON obc_N_theta_max              =  -1.9000000000000E+00
(PID.TID 0000.0001) %MON obc_N_theta_min              =  -1.9000000000000E+00
(PID.TID 0000.0001) %MON obc_N_theta_mean             =  -1.9000000000000E+00
(PID.TID 0000.0001) %MON obc_N_theta_sd               =   1.1733186057228E-07
(PID.TID 0000.0001) // =======================================================
(PID.TID 0000.0001) // End OBCS MONITOR field statistics
(PID.TID 0000.0001) // =======================================================
(PID.TID 0000.0001) DIAGSTATS_CLOSE_IO: close file: dynStDiag.0000000000.txt , unit=     9
(PID.TID 0000.0001)  MDS_WRITE_FIELD: it,rec,kS,kL,kH=      20    -1   1   1   1 file=pickup_shelfice.ckptA
(PID.TID 0000.0001)  MDS_WRITE_FIELD: it,rec,kS,kL,kH=      20    -1  30   1  30 file=pickup.ckptA
(PID.TID 0000.0001)  MDS_WRITE_FIELD: it,rec,kS,kL,kH=      20    -2  30   1  30 file=pickup.ckptA
(PID.TID 0000.0001)  MDS_WRITE_FIELD: it,rec,kS,kL,kH=      20    -3  30   1  30 file=pickup.ckptA
(PID.TID 0000.0001)  MDS_WRITE_FIELD: it,rec,kS,kL,kH=      20    -4  30   1  30 file=pickup.ckptA
(PID.TID 0000.0001)  MDS_WRITE_FIELD: it,rec,kS,kL,kH=      20    -5  30   1  30 file=pickup.ckptA
(PID.TID 0000.0001)  MDS_WRITE_FIELD: it,rec,kS,kL,kH=      20    -6  30   1  30 file=pickup.ckptA
(PID.TID 0000.0001)  MDS_WRITE_FIELD: it,rec,kS,kL,kH=      20    -7  30   1  30 file=pickup.ckptA
(PID.TID 0000.0001)  MDS_WRITE_FIELD: it,rec,kS,kL,kH=      20    -8  30   1  30 file=pickup.ckptA
(PID.TID 0000.0001)  MDS_WRITE_FIELD: it,rec,kS,kL,kH=      20  -241   1   1   1 file=pickup.ckptA
(PID.TID 0000.0001)  MDS_WRITE_FIELD: it,rec,kS,kL,kH=      20  -242   1   1   1 file=pickup.ckptA
(PID.TID 0000.0001)  MDS_WRITE_FIELD: it,rec,kS,kL,kH=      20  -243   1   1   1 file=pickup.ckptA
(PID.TID 0000.0001) %CHECKPOINT        20 ckptA
(PID.TID 0000.0001)   Seconds in section "ALL                    [THE_MODEL_MAIN]":
(PID.TID 0000.0001)           User time:   39.483998962212354
(PID.TID 0000.0001)         System time:   4.3999999761581421E-002
(PID.TID 0000.0001)     Wall clock time:   39.539752960205078
(PID.TID 0000.0001)          No. starts:           1
(PID.TID 0000.0001)           No. stops:           1
(PID.TID 0000.0001)   Seconds in section "INITIALISE_FIXED       [THE_MODEL_MAIN]":
(PID.TID 0000.0001)           User time:  0.22799999313428998
(PID.TID 0000.0001)         System time:   1.2000000104308128E-002
(PID.TID 0000.0001)     Wall clock time:  0.23792195320129395
(PID.TID 0000.0001)          No. starts:           1
(PID.TID 0000.0001)           No. stops:           1
(PID.TID 0000.0001)   Seconds in section "THE_MAIN_LOOP          [THE_MODEL_MAIN]":
(PID.TID 0000.0001)           User time:   39.255998969078064
(PID.TID 0000.0001)         System time:   3.1999999657273293E-002
(PID.TID 0000.0001)     Wall clock time:   39.301801919937134
(PID.TID 0000.0001)          No. starts:           1
(PID.TID 0000.0001)           No. stops:           1
(PID.TID 0000.0001)   Seconds in section "INITIALISE_VARIA    [THE_MAIN_LOOP]":
(PID.TID 0000.0001)           User time:  0.57600003480911255
(PID.TID 0000.0001)         System time:   1.2000000104308128E-002
(PID.TID 0000.0001)     Wall clock time:  0.59112095832824707
(PID.TID 0000.0001)          No. starts:           1
(PID.TID 0000.0001)           No. stops:           1
(PID.TID 0000.0001)   Seconds in section "MAIN LOOP           [THE_MAIN_LOOP]":
(PID.TID 0000.0001)           User time:   38.679998934268951
(PID.TID 0000.0001)         System time:   1.9999999552965164E-002
(PID.TID 0000.0001)     Wall clock time:   38.710654020309448
(PID.TID 0000.0001)          No. starts:           1
(PID.TID 0000.0001)           No. stops:           1
(PID.TID 0000.0001)   Seconds in section "MAIN_DO_LOOP        [THE_MAIN_LOOP]":
(PID.TID 0000.0001)           User time:   38.679998934268951
(PID.TID 0000.0001)         System time:   1.9999999552965164E-002
(PID.TID 0000.0001)     Wall clock time:   38.710487604141235
(PID.TID 0000.0001)          No. starts:          20
(PID.TID 0000.0001)           No. stops:          20
(PID.TID 0000.0001)   Seconds in section "FORWARD_STEP        [MAIN_DO_LOOP]":
(PID.TID 0000.0001)           User time:   38.679998934268951
(PID.TID 0000.0001)         System time:   1.9999999552965164E-002
(PID.TID 0000.0001)     Wall clock time:   38.710156917572021
(PID.TID 0000.0001)          No. starts:          20
(PID.TID 0000.0001)           No. stops:          20
(PID.TID 0000.0001)   Seconds in section "DO_STATEVARS_DIAGS  [FORWARD_STEP]":
(PID.TID 0000.0001)           User time:   3.7959964871406555
(PID.TID 0000.0001)         System time:   3.9999969303607941E-003
(PID.TID 0000.0001)     Wall clock time:   3.7837092876434326
(PID.TID 0000.0001)          No. starts:          40
(PID.TID 0000.0001)           No. stops:          40
(PID.TID 0000.0001)   Seconds in section "LOAD_FIELDS_DRIVER  [FORWARD_STEP]":
(PID.TID 0000.0001)           User time:   0.0000000000000000
(PID.TID 0000.0001)         System time:   0.0000000000000000
(PID.TID 0000.0001)     Wall clock time:   5.1069259643554688E-004
(PID.TID 0000.0001)          No. starts:          20
(PID.TID 0000.0001)           No. stops:          20
(PID.TID 0000.0001)   Seconds in section "EXTERNAL_FLDS_LOAD [LOAD_FLDS_DRIVER]":
(PID.TID 0000.0001)           User time:   0.0000000000000000
(PID.TID 0000.0001)         System time:   0.0000000000000000
(PID.TID 0000.0001)     Wall clock time:   1.7356872558593750E-004
(PID.TID 0000.0001)          No. starts:          20
(PID.TID 0000.0001)           No. stops:          20
(PID.TID 0000.0001)   Seconds in section "DO_ATMOSPHERIC_PHYS [FORWARD_STEP]":
(PID.TID 0000.0001)           User time:   0.0000000000000000
(PID.TID 0000.0001)         System time:   0.0000000000000000
(PID.TID 0000.0001)     Wall clock time:   1.6689300537109375E-004
(PID.TID 0000.0001)          No. starts:          20
(PID.TID 0000.0001)           No. stops:          20
(PID.TID 0000.0001)   Seconds in section "DO_OCEANIC_PHYS     [FORWARD_STEP]":
(PID.TID 0000.0001)           User time:  0.62000095844268799
(PID.TID 0000.0001)         System time:   4.0000006556510925E-003
(PID.TID 0000.0001)     Wall clock time:  0.62296748161315918
(PID.TID 0000.0001)          No. starts:          20
(PID.TID 0000.0001)           No. stops:          20
(PID.TID 0000.0001)   Seconds in section "SHELFICE_THERMODYNAMICS [DO_OCEANIC_PHYS]":
(PID.TID 0000.0001)           User time:   8.3994388580322266E-002
(PID.TID 0000.0001)         System time:   0.0000000000000000
(PID.TID 0000.0001)     Wall clock time:   8.3822965621948242E-002
(PID.TID 0000.0001)          No. starts:          20
(PID.TID 0000.0001)           No. stops:          20
(PID.TID 0000.0001)   Seconds in section "THERMODYNAMICS      [FORWARD_STEP]":
(PID.TID 0000.0001)           User time:   7.0240023136138916
(PID.TID 0000.0001)         System time:   4.0000006556510925E-003
(PID.TID 0000.0001)     Wall clock time:   7.0346870422363281
(PID.TID 0000.0001)          No. starts:          20
(PID.TID 0000.0001)           No. stops:          20
(PID.TID 0000.0001)   Seconds in section "DYNAMICS            [FORWARD_STEP]":
(PID.TID 0000.0001)           User time:   11.616000413894653
(PID.TID 0000.0001)         System time:   0.0000000000000000
(PID.TID 0000.0001)     Wall clock time:   11.616875410079956
(PID.TID 0000.0001)          No. starts:          20
(PID.TID 0000.0001)           No. stops:          20
(PID.TID 0000.0001)   Seconds in section "UPDATE_R_STAR       [FORWARD_STEP]":
(PID.TID 0000.0001)           User time:  0.63199794292449951
(PID.TID 0000.0001)         System time:   0.0000000000000000
(PID.TID 0000.0001)     Wall clock time:  0.63526105880737305
(PID.TID 0000.0001)          No. starts:          20
(PID.TID 0000.0001)           No. stops:          20
(PID.TID 0000.0001)   Seconds in section "UPDATE_CG2D         [FORWARD_STEP]":
(PID.TID 0000.0001)           User time:  0.28400301933288574
(PID.TID 0000.0001)         System time:   0.0000000000000000
(PID.TID 0000.0001)     Wall clock time:  0.27761840820312500
(PID.TID 0000.0001)          No. starts:          20
(PID.TID 0000.0001)           No. stops:          20
(PID.TID 0000.0001)   Seconds in section "SOLVE_FOR_PRESSURE  [FORWARD_STEP]":
(PID.TID 0000.0001)           User time:   7.0399982929229736
(PID.TID 0000.0001)         System time:   0.0000000000000000
(PID.TID 0000.0001)     Wall clock time:   7.0347998142242432
(PID.TID 0000.0001)          No. starts:          20
(PID.TID 0000.0001)           No. stops:          20
(PID.TID 0000.0001)   Seconds in section "MOM_CORRECTION_STEP [FORWARD_STEP]":
(PID.TID 0000.0001)           User time:  0.73599696159362793
(PID.TID 0000.0001)         System time:   0.0000000000000000
(PID.TID 0000.0001)     Wall clock time:  0.75352239608764648
(PID.TID 0000.0001)          No. starts:          20
(PID.TID 0000.0001)           No. stops:          20
(PID.TID 0000.0001)   Seconds in section "INTEGR_CONTINUITY   [FORWARD_STEP]":
(PID.TID 0000.0001)           User time:  0.91999936103820801
(PID.TID 0000.0001)         System time:   0.0000000000000000
(PID.TID 0000.0001)     Wall clock time:  0.90851783752441406
(PID.TID 0000.0001)          No. starts:          20
(PID.TID 0000.0001)           No. stops:          20
(PID.TID 0000.0001)   Seconds in section "CALC_R_STAR         [FORWARD_STEP]":
(PID.TID 0000.0001)           User time:   5.6000709533691406E-002
(PID.TID 0000.0001)         System time:   0.0000000000000000
(PID.TID 0000.0001)     Wall clock time:   6.0123443603515625E-002
(PID.TID 0000.0001)          No. starts:          20
(PID.TID 0000.0001)           No. stops:          20
(PID.TID 0000.0001)   Seconds in section "TRC_CORRECTION_STEP [FORWARD_STEP]":
(PID.TID 0000.0001)           User time:   1.4959995746612549
(PID.TID 0000.0001)         System time:   0.0000000000000000
(PID.TID 0000.0001)     Wall clock time:   1.5047199726104736
(PID.TID 0000.0001)          No. starts:          20
(PID.TID 0000.0001)           No. stops:          20
(PID.TID 0000.0001)   Seconds in section "BLOCKING_EXCHANGES  [FORWARD_STEP]":
(PID.TID 0000.0001)           User time:  0.38399696350097656
(PID.TID 0000.0001)         System time:   0.0000000000000000
(PID.TID 0000.0001)     Wall clock time:  0.37559533119201660
(PID.TID 0000.0001)          No. starts:          20
(PID.TID 0000.0001)           No. stops:          20
(PID.TID 0000.0001)   Seconds in section "MONITOR             [FORWARD_STEP]":
(PID.TID 0000.0001)           User time:   3.9360065460205078
(PID.TID 0000.0001)         System time:   0.0000000000000000
(PID.TID 0000.0001)     Wall clock time:   3.9507968425750732
(PID.TID 0000.0001)          No. starts:          20
(PID.TID 0000.0001)           No. stops:          20
(PID.TID 0000.0001)   Seconds in section "DO_THE_MODEL_IO     [FORWARD_STEP]":
(PID.TID 0000.0001)           User time:   6.3999176025390625E-002
(PID.TID 0000.0001)         System time:   0.0000000000000000
(PID.TID 0000.0001)     Wall clock time:   6.4681529998779297E-002
(PID.TID 0000.0001)          No. starts:          20
(PID.TID 0000.0001)           No. stops:          20
(PID.TID 0000.0001)   Seconds in section "DO_WRITE_PICKUP     [FORWARD_STEP]":
(PID.TID 0000.0001)           User time:   7.6000213623046875E-002
(PID.TID 0000.0001)         System time:   8.0000013113021851E-003
(PID.TID 0000.0001)     Wall clock time:   8.2093477249145508E-002
(PID.TID 0000.0001)          No. starts:          20
(PID.TID 0000.0001)           No. stops:          20
(PID.TID 0000.0001) // ======================================================
(PID.TID 0000.0001) // Tile <-> Tile communication statistics
(PID.TID 0000.0001) // ======================================================
(PID.TID 0000.0001) // o Tile number: 000001
(PID.TID 0000.0001) //         No. X exchanges =              0
(PID.TID 0000.0001) //            Max. X spins =              0
(PID.TID 0000.0001) //            Min. X spins =     1000000000
(PID.TID 0000.0001) //          Total. X spins =              0
(PID.TID 0000.0001) //            Avg. X spins =       0.00E+00
(PID.TID 0000.0001) //         No. Y exchanges =              0
(PID.TID 0000.0001) //            Max. Y spins =              0
(PID.TID 0000.0001) //            Min. Y spins =     1000000000
(PID.TID 0000.0001) //          Total. Y spins =              0
(PID.TID 0000.0001) //            Avg. Y spins =       0.00E+00
(PID.TID 0000.0001) // o Tile number: 000002
(PID.TID 0000.0001) //         No. X exchanges =              0
(PID.TID 0000.0001) //            Max. X spins =              0
(PID.TID 0000.0001) //            Min. X spins =     1000000000
(PID.TID 0000.0001) //          Total. X spins =              0
(PID.TID 0000.0001) //            Avg. X spins =       0.00E+00
(PID.TID 0000.0001) //         No. Y exchanges =              0
(PID.TID 0000.0001) //            Max. Y spins =              0
(PID.TID 0000.0001) //            Min. Y spins =     1000000000
(PID.TID 0000.0001) //          Total. Y spins =              0
(PID.TID 0000.0001) //            Avg. Y spins =       0.00E+00
(PID.TID 0000.0001) // o Tile number: 000003
(PID.TID 0000.0001) //         No. X exchanges =              0
(PID.TID 0000.0001) //            Max. X spins =              0
(PID.TID 0000.0001) //            Min. X spins =     1000000000
(PID.TID 0000.0001) //          Total. X spins =              0
(PID.TID 0000.0001) //            Avg. X spins =       0.00E+00
(PID.TID 0000.0001) //         No. Y exchanges =              0
(PID.TID 0000.0001) //            Max. Y spins =              0
(PID.TID 0000.0001) //            Min. Y spins =     1000000000
(PID.TID 0000.0001) //          Total. Y spins =              0
(PID.TID 0000.0001) //            Avg. Y spins =       0.00E+00
(PID.TID 0000.0001) // o Tile number: 000004
(PID.TID 0000.0001) //         No. X exchanges =              0
(PID.TID 0000.0001) //            Max. X spins =              0
(PID.TID 0000.0001) //            Min. X spins =     1000000000
(PID.TID 0000.0001) //          Total. X spins =              0
(PID.TID 0000.0001) //            Avg. X spins =       0.00E+00
(PID.TID 0000.0001) //         No. Y exchanges =              0
(PID.TID 0000.0001) //            Max. Y spins =              0
(PID.TID 0000.0001) //            Min. Y spins =     1000000000
(PID.TID 0000.0001) //          Total. Y spins =              0
(PID.TID 0000.0001) //            Avg. Y spins =       0.00E+00
(PID.TID 0000.0001) // o Tile number: 000005
(PID.TID 0000.0001) //         No. X exchanges =              0
(PID.TID 0000.0001) //            Max. X spins =              0
(PID.TID 0000.0001) //            Min. X spins =     1000000000
(PID.TID 0000.0001) //          Total. X spins =              0
(PID.TID 0000.0001) //            Avg. X spins =       0.00E+00
(PID.TID 0000.0001) //         No. Y exchanges =              0
(PID.TID 0000.0001) //            Max. Y spins =              0
(PID.TID 0000.0001) //            Min. Y spins =     1000000000
(PID.TID 0000.0001) //          Total. Y spins =              0
(PID.TID 0000.0001) //            Avg. Y spins =       0.00E+00
(PID.TID 0000.0001) // o Tile number: 000006
(PID.TID 0000.0001) //         No. X exchanges =              0
(PID.TID 0000.0001) //            Max. X spins =              0
(PID.TID 0000.0001) //            Min. X spins =     1000000000
(PID.TID 0000.0001) //          Total. X spins =              0
(PID.TID 0000.0001) //            Avg. X spins =       0.00E+00
(PID.TID 0000.0001) //         No. Y exchanges =              0
(PID.TID 0000.0001) //            Max. Y spins =              0
(PID.TID 0000.0001) //            Min. Y spins =     1000000000
(PID.TID 0000.0001) //          Total. Y spins =              0
(PID.TID 0000.0001) //            Avg. Y spins =       0.00E+00
(PID.TID 0000.0001) // o Tile number: 000007
(PID.TID 0000.0001) //         No. X exchanges =              0
(PID.TID 0000.0001) //            Max. X spins =              0
(PID.TID 0000.0001) //            Min. X spins =     1000000000
(PID.TID 0000.0001) //          Total. X spins =              0
(PID.TID 0000.0001) //            Avg. X spins =       0.00E+00
(PID.TID 0000.0001) //         No. Y exchanges =              0
(PID.TID 0000.0001) //            Max. Y spins =              0
(PID.TID 0000.0001) //            Min. Y spins =     1000000000
(PID.TID 0000.0001) //          Total. Y spins =              0
(PID.TID 0000.0001) //            Avg. Y spins =       0.00E+00
(PID.TID 0000.0001) // o Tile number: 000008
(PID.TID 0000.0001) //         No. X exchanges =              0
(PID.TID 0000.0001) //            Max. X spins =              0
(PID.TID 0000.0001) //            Min. X spins =     1000000000
(PID.TID 0000.0001) //          Total. X spins =              0
(PID.TID 0000.0001) //            Avg. X spins =       0.00E+00
(PID.TID 0000.0001) //         No. Y exchanges =              0
(PID.TID 0000.0001) //            Max. Y spins =              0
(PID.TID 0000.0001) //            Min. Y spins =     1000000000
(PID.TID 0000.0001) //          Total. Y spins =              0
(PID.TID 0000.0001) //            Avg. Y spins =       0.00E+00
(PID.TID 0000.0001) // o Thread number: 000001
(PID.TID 0000.0001) //            No. barriers =          30808
(PID.TID 0000.0001) //      Max. barrier spins =              1
(PID.TID 0000.0001) //      Min. barrier spins =              1
(PID.TID 0000.0001) //     Total barrier spins =          30808
(PID.TID 0000.0001) //      Avg. barrier spins =       1.00E+00
PROGRAM MAIN: Execution ended Normally
