(PID.TID 0000.0001) 
(PID.TID 0000.0001) // ======================================================
(PID.TID 0000.0001) //                      MITgcm UV
(PID.TID 0000.0001) //                      =========
(PID.TID 0000.0001) // ======================================================
(PID.TID 0000.0001) // execution environment starting up...
(PID.TID 0000.0001) 
(PID.TID 0000.0001) // MITgcmUV version:  checkpoint67x
(PID.TID 0000.0001) // Build user:        jm_c
(PID.TID 0000.0001) // Build host:        villon
(PID.TID 0000.0001) // Build date:        Wed Apr 14 18:06:14 EDT 2021
(PID.TID 0000.0001) 
(PID.TID 0000.0001) // =======================================================
(PID.TID 0000.0001) // Execution Environment parameter file "eedata"
(PID.TID 0000.0001) // =======================================================
(PID.TID 0000.0001) ># Example "eedata" file
(PID.TID 0000.0001) ># Lines beginning "#" are comments
(PID.TID 0000.0001) ># nTx - No. threads per process in X
(PID.TID 0000.0001) ># nTy - No. threads per process in Y
(PID.TID 0000.0001) > &EEPARMS
(PID.TID 0000.0001) > /
(PID.TID 0000.0001) ># Note: Some systems use & as the
(PID.TID 0000.0001) ># namelist terminator. Other systems
(PID.TID 0000.0001) ># use a / character (as shown here).
(PID.TID 0000.0001) 
(PID.TID 0000.0001) // =======================================================
(PID.TID 0000.0001) // Computational Grid Specification ( see files "SIZE.h" )
(PID.TID 0000.0001) //                                  ( and "eedata"       )
(PID.TID 0000.0001) // =======================================================
(PID.TID 0000.0001)      nPx =    1 ; /* No. processes in X */
(PID.TID 0000.0001)      nPy =    1 ; /* No. processes in Y */
(PID.TID 0000.0001)      nSx =    2 ; /* No. tiles in X per process */
(PID.TID 0000.0001)      nSy =    4 ; /* No. tiles in Y per process */
(PID.TID 0000.0001)      sNx =   25 ; /* Tile size in X */
(PID.TID 0000.0001)      sNy =   25 ; /* Tile size in Y */
(PID.TID 0000.0001)      OLx =    3 ; /* Tile overlap distance in X */
(PID.TID 0000.0001)      OLy =    3 ; /* Tile overlap distance in Y */
(PID.TID 0000.0001)      nTx =    1 ; /* No. threads in X per process */
(PID.TID 0000.0001)      nTy =    1 ; /* No. threads in Y per process */
(PID.TID 0000.0001)       Nr =   30 ; /* No. levels in the vertical   */
(PID.TID 0000.0001)       Nx =   50 ; /* Total domain size in X ( = nPx*nSx*sNx ) */
(PID.TID 0000.0001)       Ny =  100 ; /* Total domain size in Y ( = nPy*nSy*sNy ) */
(PID.TID 0000.0001)   nTiles =    8 ; /* Total no. tiles per process ( = nSx*nSy ) */
(PID.TID 0000.0001)   nProcs =    1 ; /* Total no. processes ( = nPx*nPy ) */
(PID.TID 0000.0001) nThreads =    1 ; /* Total no. threads per process ( = nTx*nTy ) */
(PID.TID 0000.0001) usingMPI =    F ; /* Flag used to control whether MPI is in use */
(PID.TID 0000.0001)                   /*  note: To execute a program with MPI calls */
(PID.TID 0000.0001)                   /*  it must be launched appropriately e.g     */
(PID.TID 0000.0001)                   /*  "mpirun -np 64 ......"                    */
(PID.TID 0000.0001) useCoupler=   F ; /* Flag used to control communications with   */
(PID.TID 0000.0001)                   /*  other model components, through a coupler */
(PID.TID 0000.0001) useNest2W_parent =    F ;/* Control 2-W Nesting comm */
(PID.TID 0000.0001) useNest2W_child  =    F ;/* Control 2-W Nesting comm */
(PID.TID 0000.0001) debugMode =    F ; /* print debug msg. (sequence of S/R calls)  */
(PID.TID 0000.0001) printMapIncludesZeros=    F ; /* print zeros in Std.Output maps */
(PID.TID 0000.0001) maxLengthPrt1D=   65 /* maxLength of 1D array printed to StdOut */
(PID.TID 0000.0001) 
(PID.TID 0000.0001) // ======================================================
(PID.TID 0000.0001) // Mapping of tiles to threads
(PID.TID 0000.0001) // ======================================================
(PID.TID 0000.0001) // -o- Thread   1, tiles (   1:   2,   1:   4)
(PID.TID 0000.0001) 
(PID.TID 0000.0001) // ======================================================
(PID.TID 0000.0001) // Tile <-> Tile connectvity table
(PID.TID 0000.0001) // ======================================================
(PID.TID 0000.0001) // Tile number: 000001 (process no. = 000000)
(PID.TID 0000.0001) //        WEST: Tile = 000002, Process = 000000, Comm = put
(PID.TID 0000.0001) //                bi = 000002, bj = 000001
(PID.TID 0000.0001) //        EAST: Tile = 000002, Process = 000000, Comm = put
(PID.TID 0000.0001) //                bi = 000002, bj = 000001
(PID.TID 0000.0001) //       SOUTH: Tile = 000007, Process = 000000, Comm = put
(PID.TID 0000.0001) //                bi = 000001, bj = 000004
(PID.TID 0000.0001) //       NORTH: Tile = 000003, Process = 000000, Comm = put
(PID.TID 0000.0001) //                bi = 000001, bj = 000002
(PID.TID 0000.0001) // Tile number: 000002 (process no. = 000000)
(PID.TID 0000.0001) //        WEST: Tile = 000001, Process = 000000, Comm = put
(PID.TID 0000.0001) //                bi = 000001, bj = 000001
(PID.TID 0000.0001) //        EAST: Tile = 000001, Process = 000000, Comm = put
(PID.TID 0000.0001) //                bi = 000001, bj = 000001
(PID.TID 0000.0001) //       SOUTH: Tile = 000008, Process = 000000, Comm = put
(PID.TID 0000.0001) //                bi = 000002, bj = 000004
(PID.TID 0000.0001) //       NORTH: Tile = 000004, Process = 000000, Comm = put
(PID.TID 0000.0001) //                bi = 000002, bj = 000002
(PID.TID 0000.0001) // Tile number: 000003 (process no. = 000000)
(PID.TID 0000.0001) //        WEST: Tile = 000004, Process = 000000, Comm = put
(PID.TID 0000.0001) //                bi = 000002, bj = 000002
(PID.TID 0000.0001) //        EAST: Tile = 000004, Process = 000000, Comm = put
(PID.TID 0000.0001) //                bi = 000002, bj = 000002
(PID.TID 0000.0001) //       SOUTH: Tile = 000001, Process = 000000, Comm = put
(PID.TID 0000.0001) //                bi = 000001, bj = 000001
(PID.TID 0000.0001) //       NORTH: Tile = 000005, Process = 000000, Comm = put
(PID.TID 0000.0001) //                bi = 000001, bj = 000003
(PID.TID 0000.0001) // Tile number: 000004 (process no. = 000000)
(PID.TID 0000.0001) //        WEST: Tile = 000003, Process = 000000, Comm = put
(PID.TID 0000.0001) //                bi = 000001, bj = 000002
(PID.TID 0000.0001) //        EAST: Tile = 000003, Process = 000000, Comm = put
(PID.TID 0000.0001) //                bi = 000001, bj = 000002
(PID.TID 0000.0001) //       SOUTH: Tile = 000002, Process = 000000, Comm = put
(PID.TID 0000.0001) //                bi = 000002, bj = 000001
(PID.TID 0000.0001) //       NORTH: Tile = 000006, Process = 000000, Comm = put
(PID.TID 0000.0001) //                bi = 000002, bj = 000003
(PID.TID 0000.0001) // Tile number: 000005 (process no. = 000000)
(PID.TID 0000.0001) //        WEST: Tile = 000006, Process = 000000, Comm = put
(PID.TID 0000.0001) //                bi = 000002, bj = 000003
(PID.TID 0000.0001) //        EAST: Tile = 000006, Process = 000000, Comm = put
(PID.TID 0000.0001) //                bi = 000002, bj = 000003
(PID.TID 0000.0001) //       SOUTH: Tile = 000003, Process = 000000, Comm = put
(PID.TID 0000.0001) //                bi = 000001, bj = 000002
(PID.TID 0000.0001) //       NORTH: Tile = 000007, Process = 000000, Comm = put
(PID.TID 0000.0001) //                bi = 000001, bj = 000004
(PID.TID 0000.0001) // Tile number: 000006 (process no. = 000000)
(PID.TID 0000.0001) //        WEST: Tile = 000005, Process = 000000, Comm = put
(PID.TID 0000.0001) //                bi = 000001, bj = 000003
(PID.TID 0000.0001) //        EAST: Tile = 000005, Process = 000000, Comm = put
(PID.TID 0000.0001) //                bi = 000001, bj = 000003
(PID.TID 0000.0001) //       SOUTH: Tile = 000004, Process = 000000, Comm = put
(PID.TID 0000.0001) //                bi = 000002, bj = 000002
(PID.TID 0000.0001) //       NORTH: Tile = 000008, Process = 000000, Comm = put
(PID.TID 0000.0001) //                bi = 000002, bj = 000004
(PID.TID 0000.0001) // Tile number: 000007 (process no. = 000000)
(PID.TID 0000.0001) //        WEST: Tile = 000008, Process = 000000, Comm = put
(PID.TID 0000.0001) //                bi = 000002, bj = 000004
(PID.TID 0000.0001) //        EAST: Tile = 000008, Process = 000000, Comm = put
(PID.TID 0000.0001) //                bi = 000002, bj = 000004
(PID.TID 0000.0001) //       SOUTH: Tile = 000005, Process = 000000, Comm = put
(PID.TID 0000.0001) //                bi = 000001, bj = 000003
(PID.TID 0000.0001) //       NORTH: Tile = 000001, Process = 000000, Comm = put
(PID.TID 0000.0001) //                bi = 000001, bj = 000001
(PID.TID 0000.0001) // Tile number: 000008 (process no. = 000000)
(PID.TID 0000.0001) //        WEST: Tile = 000007, Process = 000000, Comm = put
(PID.TID 0000.0001) //                bi = 000001, bj = 000004
(PID.TID 0000.0001) //        EAST: Tile = 000007, Process = 000000, Comm = put
(PID.TID 0000.0001) //                bi = 000001, bj = 000004
(PID.TID 0000.0001) //       SOUTH: Tile = 000006, Process = 000000, Comm = put
(PID.TID 0000.0001) //                bi = 000002, bj = 000003
(PID.TID 0000.0001) //       NORTH: Tile = 000002, Process = 000000, Comm = put
(PID.TID 0000.0001) //                bi = 000002, bj = 000001
(PID.TID 0000.0001) 
(PID.TID 0000.0001)  INI_PARMS: opening model parameter file "data"
(PID.TID 0000.0001)  OPEN_COPY_DATA_FILE: opening file data
(PID.TID 0000.0001) // =======================================================
(PID.TID 0000.0001) // Parameter file "data"
(PID.TID 0000.0001) // =======================================================
(PID.TID 0000.0001) ># ====================
(PID.TID 0000.0001) ># | Model parameters |
(PID.TID 0000.0001) ># ====================
(PID.TID 0000.0001) >#
(PID.TID 0000.0001) ># Continuous equation parameters
(PID.TID 0000.0001) > &PARM01
(PID.TID 0000.0001) > Tref = 30*-1.9,
(PID.TID 0000.0001) > Sref = 30*34.4,
(PID.TID 0000.0001) > viscAz=1.E-3,
(PID.TID 0000.0001) > viscAh=600.0,
(PID.TID 0000.0001) > no_slip_sides=.FALSE.,
(PID.TID 0000.0001) > no_slip_bottom=.FALSE.,
(PID.TID 0000.0001) > diffKhT=100.0,
(PID.TID 0000.0001) > diffKzT=5.E-5,
(PID.TID 0000.0001) > diffKhS=100.0,
(PID.TID 0000.0001) > diffKzS=5.E-5,
(PID.TID 0000.0001) > bottomDragQuadratic=2.5E-3,
(PID.TID 0000.0001) > eosType='JMD95Z',
(PID.TID 0000.0001) > HeatCapacity_cp = 3974.0,
(PID.TID 0000.0001) > rhoConst=1030.,
(PID.TID 0000.0001) > rhoConst=1030.,
(PID.TID 0000.0001) > gravity=9.81,
(PID.TID 0000.0001) > convertFW2Salt = 33.4,
(PID.TID 0000.0001) > rigidLid=.FALSE.,
(PID.TID 0000.0001) > implicitFreeSurface=.TRUE.,
(PID.TID 0000.0001) > exactConserv=.TRUE.,
(PID.TID 0000.0001) > hFacMin=0.05,
(PID.TID 0000.0001) > nonHydrostatic=.FALSE.,
(PID.TID 0000.0001) > readBinaryPrec=64,
(PID.TID 0000.0001) > useCDScheme = .TRUE.,
(PID.TID 0000.0001) > /
(PID.TID 0000.0001) >
(PID.TID 0000.0001) ># Elliptic solver parameters
(PID.TID 0000.0001) > &PARM02
(PID.TID 0000.0001) > cg2dMaxIters=1000,
(PID.TID 0000.0001) > cg2dTargetResidual=1.E-13,
(PID.TID 0000.0001) > cg3dMaxIters=400,
(PID.TID 0000.0001) > cg3dTargetResidual=1.E-13,
(PID.TID 0000.0001) > /
(PID.TID 0000.0001) >
(PID.TID 0000.0001) ># Time stepping parameters
(PID.TID 0000.0001) > &PARM03
(PID.TID 0000.0001) > nIter0=0,
(PID.TID 0000.0001) > nTimeSteps=20,
(PID.TID 0000.0001) > deltaT=1800.0,
(PID.TID 0000.0001) > abEps=0.1,
(PID.TID 0000.0001) > cAdjFreq = -1.,
(PID.TID 0000.0001) > tauCD = 400000.,
(PID.TID 0000.0001) > pChkptFreq=0.0,
(PID.TID 0000.0001) > chkptFreq=0.0,
(PID.TID 0000.0001) > dumpFreq=0.0,
(PID.TID 0000.0001) > taveFreq=0.0,
(PID.TID 0000.0001) > monitorFreq=1.,
(PID.TID 0000.0001) > monitorSelect=2,
(PID.TID 0000.0001) > /
(PID.TID 0000.0001) >
(PID.TID 0000.0001) ># Gridding parameters
(PID.TID 0000.0001) > &PARM04
(PID.TID 0000.0001) > usingSphericalPolarGrid=.TRUE.,
(PID.TID 0000.0001) > ygOrigin = -80.0,
(PID.TID 0000.0001) > delX=50*0.3,
(PID.TID 0000.0001) > delY=100*0.1,
(PID.TID 0000.0001) > delZ=30*30.0,
(PID.TID 0000.0001) > /
(PID.TID 0000.0001) >
(PID.TID 0000.0001) ># Input datasets
(PID.TID 0000.0001) > &PARM05
(PID.TID 0000.0001) > bathyFile='bathy.box',
(PID.TID 0000.0001) > /
(PID.TID 0000.0001) 
(PID.TID 0000.0001)  INI_PARMS ; starts to read PARM01
(PID.TID 0000.0001)  INI_PARMS ; read PARM01 : OK
(PID.TID 0000.0001)  INI_PARMS ; starts to read PARM02
(PID.TID 0000.0001)  INI_PARMS ; read PARM02 : OK
(PID.TID 0000.0001)  INI_PARMS ; starts to read PARM03
(PID.TID 0000.0001)  INI_PARMS ; read PARM03 : OK
(PID.TID 0000.0001)  INI_PARMS ; starts to read PARM04
(PID.TID 0000.0001)  INI_PARMS ; read PARM04 : OK
(PID.TID 0000.0001)  INI_PARMS ; starts to read PARM05
(PID.TID 0000.0001)  INI_PARMS ; read PARM05 : OK
(PID.TID 0000.0001)  INI_PARMS: finished reading file "data"
(PID.TID 0000.0001)  PACKAGES_BOOT: opening data.pkg
(PID.TID 0000.0001)  OPEN_COPY_DATA_FILE: opening file data.pkg
(PID.TID 0000.0001) // =======================================================
(PID.TID 0000.0001) // Parameter file "data.pkg"
(PID.TID 0000.0001) // =======================================================
(PID.TID 0000.0001) ># Packages
(PID.TID 0000.0001) > &PACKAGES
(PID.TID 0000.0001) > useDiagnostics = .TRUE.,
(PID.TID 0000.0001) > useShelfIce=.true.,
(PID.TID 0000.0001) > useIcefront=.true.,
(PID.TID 0000.0001) > /
(PID.TID 0000.0001) 
(PID.TID 0000.0001)  PACKAGES_BOOT: finished reading data.pkg
(PID.TID 0000.0001)  PACKAGES_BOOT: On/Off package Summary
 --------  pkgs with a standard "usePKG" On/Off switch in "data.pkg":  --------
 pkg/obcs                 compiled but not used ( useOBCS                  = F )
 pkg/shelfice             compiled   and   used ( useShelfIce              = T )
 pkg/icefront             compiled   and   used ( useICEFRONT              = T )
 pkg/diagnostics          compiled   and   used ( useDiagnostics           = T )
 pkg/mnc                  compiled but not used ( useMNC                   = F )
 -------- pkgs without standard "usePKG" On/Off switch in "data.pkg":  --------
 pkg/generic_advdiff      compiled   and   used ( useGAD                   = T )
 pkg/mom_common           compiled   and   used ( momStepping              = T )
 pkg/mom_vecinv           compiled but not used ( +vectorInvariantMomentum = F )
 pkg/mom_fluxform         compiled   and   used ( & not vectorInvariantMom = T )
 pkg/cd_code              compiled   and   used ( useCDscheme              = T )
 pkg/monitor              compiled   and   used ( monitorFreq > 0.         = T )
 pkg/debug                compiled but not used ( debugMode                = F )
 pkg/rw                   compiled   and   used
 pkg/mdsio                compiled   and   used
(PID.TID 0000.0001)  PACKAGES_BOOT: End of package Summary
(PID.TID 0000.0001) 
(PID.TID 0000.0001)  SHELFICE_READPARMS: opening data.shelfice
(PID.TID 0000.0001)  OPEN_COPY_DATA_FILE: opening file data.shelfice
(PID.TID 0000.0001) // =======================================================
(PID.TID 0000.0001) // Parameter file "data.shelfice"
(PID.TID 0000.0001) // =======================================================
(PID.TID 0000.0001) ># ===================================
(PID.TID 0000.0001) ># | Parameters for SHELFICE package |
(PID.TID 0000.0001) ># ===================================
(PID.TID 0000.0001) > &SHELFICE_PARM01
(PID.TID 0000.0001) > SHELFICEboundaryLayer = .TRUE.,
(PID.TID 0000.0001) > SHELFICEtopoFile='icetopo.exp1',
(PID.TID 0000.0001) > SHELFICEloadAnomalyFile = 'phi0surf.exp1.jmd95z',
(PID.TID 0000.0001) > SHELFICEconserve = .true.,
(PID.TID 0000.0001) > useISOMIPTD = .FALSE.,
(PID.TID 0000.0001) > no_slip_shelfice = .false.,
(PID.TID 0000.0001) > SHELFICEwriteState = .TRUE.,
(PID.TID 0000.0001) > /
(PID.TID 0000.0001) 
(PID.TID 0000.0001)  SHELFICE_READPARMS: finished reading data.shelfice
(PID.TID 0000.0001)  ICEFRONT_READPARMS: opening data.icefront
(PID.TID 0000.0001)  OPEN_COPY_DATA_FILE: opening file data.icefront
(PID.TID 0000.0001) // =======================================================
(PID.TID 0000.0001) // Parameter file "data.icefront"
(PID.TID 0000.0001) // =======================================================
(PID.TID 0000.0001) ># ===================================
(PID.TID 0000.0001) ># | Parameters for ICEFRONT package |
(PID.TID 0000.0001) ># ===================================
(PID.TID 0000.0001) > &ICEFRONT_PARM01
(PID.TID 0000.0001) > ICEFRONTdepthFile  = 'frontdepth.xuyun',
(PID.TID 0000.0001) > ICEFRONTlengthFile = 'frontcircum.xuyun',
(PID.TID 0000.0001) > applyIcefrontTendT = .TRUE.,
(PID.TID 0000.0001) > applyIcefrontTendS = .TRUE.,
(PID.TID 0000.0001) > /
(PID.TID 0000.0001) >
(PID.TID 0000.0001) ># &ICEFRONT_EXF_PARM02
(PID.TID 0000.0001) >#  SGRunOffstartdate1 = 19920101,
(PID.TID 0000.0001) >#  SGRunOffstartdate2 = 000000,
(PID.TID 0000.0001) >#  SGRunOffperiod     = -12.,
(PID.TID 0000.0001) >#  SGRunOffconst      = 0.,
(PID.TID 0000.0001) >#  SGRunOff_inscal    = 1.,
(PID.TID 0000.0001) >#  SGRunOffFile       = 'subglacial_runoff.150',
(PID.TID 0000.0001) >#&
(PID.TID 0000.0001) 
(PID.TID 0000.0001)  ICEFRONT_READPARMS: reading ICEFRONT_PARM01
(PID.TID 0000.0001)  ICEFRONT_READPARMS: finished reading data.icefront
(PID.TID 0000.0001)  DIAGNOSTICS_READPARMS: opening data.diagnostics
(PID.TID 0000.0001)  OPEN_COPY_DATA_FILE: opening file data.diagnostics
(PID.TID 0000.0001) // =======================================================
(PID.TID 0000.0001) // Parameter file "data.diagnostics"
(PID.TID 0000.0001) // =======================================================
(PID.TID 0000.0001) ># Diagnostic Package Choices
(PID.TID 0000.0001) >#--------------------
(PID.TID 0000.0001) >#  dumpAtLast (logical): always write output at the end of simulation (default=F)
(PID.TID 0000.0001) >#  diag_mnc   (logical): write to NetCDF files (default=useMNC)
(PID.TID 0000.0001) >#--for each output-stream:
(PID.TID 0000.0001) >#  fileName(n) : prefix of the output file name (max 80c long) for outp.stream n
(PID.TID 0000.0001) >#  frequency(n):< 0 : write snap-shot output every |frequency| seconds
(PID.TID 0000.0001) >#               > 0 : write time-average output every frequency seconds
(PID.TID 0000.0001) >#  timePhase(n)     : write at time = timePhase + multiple of |frequency|
(PID.TID 0000.0001) >#    averagingFreq  : frequency (in s) for periodic averaging interval
(PID.TID 0000.0001) >#    averagingPhase : phase     (in s) for periodic averaging interval
(PID.TID 0000.0001) >#    repeatCycle    : number of averaging intervals in 1 cycle
(PID.TID 0000.0001) >#  levels(:,n) : list of levels to write to file (Notes: declared as REAL)
(PID.TID 0000.0001) >#                when this entry is missing, select all common levels of this list
(PID.TID 0000.0001) >#  fields(:,n) : list of selected diagnostics fields (8.c) in outp.stream n
(PID.TID 0000.0001) >#                (see "available_diagnostics.log" file for the full list of diags)
(PID.TID 0000.0001) >#  missing_value(n) : missing value for real-type fields in output file "n"
(PID.TID 0000.0001) >#  fileFlags(n)     : specific code (8c string) for output file "n"
(PID.TID 0000.0001) >#--------------------
(PID.TID 0000.0001) > &DIAGNOSTICS_LIST
(PID.TID 0000.0001) >  fields(1:2,1)  = 'SHIfwFlx','SHIhtFlx',
(PID.TID 0000.0001) >   fileName(1) = 'shelficeDiag',
(PID.TID 0000.0001) >  frequency(1) = 18000.,
(PID.TID 0000.0001) >  fields(1:2,2)  = 'ICFfwFlx','ICFhtFlx',
(PID.TID 0000.0001) >   fileName(2) = 'icefrontDiag',
(PID.TID 0000.0001) >  frequency(2) = 18000.,
(PID.TID 0000.0001) > /
(PID.TID 0000.0001) >
(PID.TID 0000.0001) >#--------------------
(PID.TID 0000.0001) ># Parameter for Diagnostics of per level statistics:
(PID.TID 0000.0001) >#--------------------
(PID.TID 0000.0001) >#  diagSt_mnc (logical): write stat-diags to NetCDF files (default=diag_mnc)
(PID.TID 0000.0001) >#  diagSt_regMaskFile : file containing the region-mask to read-in
(PID.TID 0000.0001) >#  nSetRegMskFile   : number of region-mask sets within the region-mask file
(PID.TID 0000.0001) >#  set_regMask(i)   : region-mask set-index that identifies the region "i"
(PID.TID 0000.0001) >#  val_regMask(i)   : region "i" identifier value in the region mask
(PID.TID 0000.0001) >#--for each output-stream:
(PID.TID 0000.0001) >#  stat_fName(n) : prefix of the output file name (max 80c long) for outp.stream n
(PID.TID 0000.0001) >#  stat_freq(n):< 0 : write snap-shot output every |stat_freq| seconds
(PID.TID 0000.0001) >#               > 0 : write time-average output every stat_freq seconds
(PID.TID 0000.0001) >#  stat_phase(n)    : write at time = stat_phase + multiple of |stat_freq|
(PID.TID 0000.0001) >#  stat_region(:,n) : list of "regions" (default: 1 region only=global)
(PID.TID 0000.0001) >#  stat_fields(:,n) : list of selected diagnostics fields (8.c) in outp.stream n
(PID.TID 0000.0001) >#                (see "available_diagnostics.log" file for the full list of diags)
(PID.TID 0000.0001) >#--------------------
(PID.TID 0000.0001) > &DIAG_STATIS_PARMS
(PID.TID 0000.0001) >#stat_fields(1:5,1)  = 'ETAN    ','UVEL    ','VVEL    ','WVEL    ', 'THETA   ',
(PID.TID 0000.0001) ># stat_fName(1) = 'dynStDiag',
(PID.TID 0000.0001) >#  stat_freq(1) = -3600.,
(PID.TID 0000.0001) ># stat_phase(1) = 0.,
(PID.TID 0000.0001) > /
(PID.TID 0000.0001) 
(PID.TID 0000.0001) S/R DIAGNOSTICS_READPARMS, read namelist "diagnostics_list": start
(PID.TID 0000.0001) S/R DIAGNOSTICS_READPARMS, read namelist "diagnostics_list": OK
(PID.TID 0000.0001) S/R DIAGNOSTICS_READPARMS, read namelist "DIAG_STATIS_PARMS": start
(PID.TID 0000.0001) S/R DIAGNOSTICS_READPARMS, read namelist "DIAG_STATIS_PARMS": OK
(PID.TID 0000.0001)  DIAGNOSTICS_READPARMS: global parameter summary:
(PID.TID 0000.0001)  dumpAtLast = /* always write time-ave diags at the end */
(PID.TID 0000.0001)                   F
(PID.TID 0000.0001)     ;
(PID.TID 0000.0001)  diag_mnc =   /* write NetCDF output files */
(PID.TID 0000.0001)                   F
(PID.TID 0000.0001)     ;
(PID.TID 0000.0001)  useMissingValue = /* put MissingValue where mask = 0 */
(PID.TID 0000.0001)                   F
(PID.TID 0000.0001)     ;
(PID.TID 0000.0001)  diagCG_maxIters = /* max number of iters in diag_cg2d */
(PID.TID 0000.0001)                    1000
(PID.TID 0000.0001)     ;
(PID.TID 0000.0001)  diagCG_resTarget = /* residual target for diag_cg2d */
(PID.TID 0000.0001)                 1.000000000000000E-13
(PID.TID 0000.0001)     ;
(PID.TID 0000.0001)  diagCG_pcOffDFac = /* preconditioner off-diagonal factor */
(PID.TID 0000.0001)                 9.611687812379854E-01
(PID.TID 0000.0001)     ;
(PID.TID 0000.0001) -----------------------------------------------------
(PID.TID 0000.0001)  DIAGNOSTICS_READPARMS: active diagnostics summary:
(PID.TID 0000.0001) -----------------------------------------------------
(PID.TID 0000.0001) Creating Output Stream: shelficeDiag
(PID.TID 0000.0001) Output Frequency:      18000.000000 ; Phase:           0.000000
(PID.TID 0000.0001)  Averaging Freq.:      18000.000000 , Phase:           0.000000 , Cycle:   1
(PID.TID 0000.0001)  missing value: -9.990000000000E+02
(PID.TID 0000.0001)  Levels:    will be set later
(PID.TID 0000.0001)  Fields:    SHIfwFlx SHIhtFlx
(PID.TID 0000.0001) Creating Output Stream: icefrontDiag
(PID.TID 0000.0001) Output Frequency:      18000.000000 ; Phase:           0.000000
(PID.TID 0000.0001)  Averaging Freq.:      18000.000000 , Phase:           0.000000 , Cycle:   1
(PID.TID 0000.0001)  missing value: -9.990000000000E+02
(PID.TID 0000.0001)  Levels:    will be set later
(PID.TID 0000.0001)  Fields:    ICFfwFlx ICFhtFlx
(PID.TID 0000.0001) -----------------------------------------------------
(PID.TID 0000.0001)  DIAGNOSTICS_READPARMS: statistics diags. summary:
(PID.TID 0000.0001) -----------------------------------------------------
(PID.TID 0000.0001) 
(PID.TID 0000.0001) SET_PARMS: done
(PID.TID 0000.0001) Enter INI_VERTICAL_GRID: setInterFDr=    T ; setCenterDr=    F
(PID.TID 0000.0001) %MON XC_max                       =   1.4850000000000E+01
(PID.TID 0000.0001) %MON XC_min                       =   1.5000000000000E-01
(PID.TID 0000.0001) %MON XC_mean                      =   7.5000000000000E+00
(PID.TID 0000.0001) %MON XC_sd                        =   4.3292609068985E+00
(PID.TID 0000.0001) %MON XG_max                       =   1.4700000000000E+01
(PID.TID 0000.0001) %MON XG_min                       =   1.1102230246252E-16
(PID.TID 0000.0001) %MON XG_mean                      =   7.3500000000000E+00
(PID.TID 0000.0001) %MON XG_sd                        =   4.3292609068985E+00
(PID.TID 0000.0001) %MON DXC_max                      =   1.1380125394806E+04
(PID.TID 0000.0001) %MON DXC_min                      =   5.8203914905589E+03
(PID.TID 0000.0001) %MON DXC_mean                     =   8.6215028627207E+03
(PID.TID 0000.0001) %MON DXC_sd                       =   1.6219001271572E+03
(PID.TID 0000.0001) %MON DXF_max                      =   1.1380125394806E+04
(PID.TID 0000.0001) %MON DXF_min                      =   5.8203914905589E+03
(PID.TID 0000.0001) %MON DXF_mean                     =   8.6215028627207E+03
(PID.TID 0000.0001) %MON DXF_sd                       =   1.6219001271572E+03
(PID.TID 0000.0001) %MON DXG_max                      =   1.1352761512017E+04
(PID.TID 0000.0001) %MON DXG_min                      =   5.7917296935586E+03
(PID.TID 0000.0001) %MON DXG_mean                     =   8.5934208253080E+03
(PID.TID 0000.0001) %MON DXG_sd                       =   1.6222785520817E+03
(PID.TID 0000.0001) %MON DXV_max                      =   1.1352761512017E+04
(PID.TID 0000.0001) %MON DXV_min                      =   5.7917296935586E+03
(PID.TID 0000.0001) %MON DXV_mean                     =   8.5934208253080E+03
(PID.TID 0000.0001) %MON DXV_sd                       =   1.6222785520817E+03
(PID.TID 0000.0001) %MON YC_max                       =  -7.0050000000001E+01
(PID.TID 0000.0001) %MON YC_min                       =  -7.9950000000000E+01
(PID.TID 0000.0001) %MON YC_mean                      =  -7.5000000000000E+01
(PID.TID 0000.0001) %MON YC_sd                        =   2.8866070047720E+00
(PID.TID 0000.0001) %MON YG_max                       =  -7.0100000000001E+01
(PID.TID 0000.0001) %MON YG_min                       =  -8.0000000000000E+01
(PID.TID 0000.0001) %MON YG_mean                      =  -7.5050000000000E+01
(PID.TID 0000.0001) %MON YG_sd                        =   2.8866070047721E+00
(PID.TID 0000.0001) %MON DYC_max                      =   1.1117747335204E+04
(PID.TID 0000.0001) %MON DYC_min                      =   1.1117747335204E+04
(PID.TID 0000.0001) %MON DYC_mean                     =   1.1117747335204E+04
(PID.TID 0000.0001) %MON DYC_sd                       =   4.1836756281555E-11
(PID.TID 0000.0001) %MON DYF_max                      =   1.1117747335204E+04
(PID.TID 0000.0001) %MON DYF_min                      =   1.1117747335204E+04
(PID.TID 0000.0001) %MON DYF_mean                     =   1.1117747335204E+04
(PID.TID 0000.0001) %MON DYF_sd                       =   4.1836756281555E-11
(PID.TID 0000.0001) %MON DYG_max                      =   1.1117747335204E+04
(PID.TID 0000.0001) %MON DYG_min                      =   1.1117747335204E+04
(PID.TID 0000.0001) %MON DYG_mean                     =   1.1117747335204E+04
(PID.TID 0000.0001) %MON DYG_sd                       =   4.1836756281555E-11
(PID.TID 0000.0001) %MON DYU_max                      =   1.1117747335204E+04
(PID.TID 0000.0001) %MON DYU_min                      =   1.1117747335204E+04
(PID.TID 0000.0001) %MON DYU_mean                     =   1.1117747335204E+04
(PID.TID 0000.0001) %MON DYU_sd                       =   4.1836756281555E-11
(PID.TID 0000.0001) %MON RA_max                       =   1.2652134272379E+08
(PID.TID 0000.0001) %MON RA_min                       =   6.4709633770803E+07
(PID.TID 0000.0001) %MON RA_mean                      =   9.5851678311587E+07
(PID.TID 0000.0001) %MON RA_sd                        =   1.8031873527992E+07
(PID.TID 0000.0001) %MON RAW_max                      =   1.2652134272379E+08
(PID.TID 0000.0001) %MON RAW_min                      =   6.4709633770803E+07
(PID.TID 0000.0001) %MON RAW_mean                     =   9.5851678311587E+07
(PID.TID 0000.0001) %MON RAW_sd                       =   1.8031873527992E+07
(PID.TID 0000.0001) %MON RAS_max                      =   1.2621711802744E+08
(PID.TID 0000.0001) %MON RAS_min                      =   6.4390979194019E+07
(PID.TID 0000.0001) %MON RAS_mean                     =   9.5539469354603E+07
(PID.TID 0000.0001) %MON RAS_sd                       =   1.8036080760153E+07
(PID.TID 0000.0001) %MON RAZ_max                      =   1.2621711802744E+08
(PID.TID 0000.0001) %MON RAZ_min                      =   6.4390979194019E+07
(PID.TID 0000.0001) %MON RAZ_mean                     =   9.5539469354603E+07
(PID.TID 0000.0001) %MON RAZ_sd                       =   1.8036080760153E+07
(PID.TID 0000.0001) %MON AngleCS_max                  =   1.0000000000000E+00
(PID.TID 0000.0001) %MON AngleCS_min                  =   1.0000000000000E+00
(PID.TID 0000.0001) %MON AngleCS_mean                 =   1.0000000000000E+00
(PID.TID 0000.0001) %MON AngleCS_sd                   =   0.0000000000000E+00
(PID.TID 0000.0001) %MON AngleSN_max                  =   0.0000000000000E+00
(PID.TID 0000.0001) %MON AngleSN_min                  =   0.0000000000000E+00
(PID.TID 0000.0001) %MON AngleSN_mean                 =   0.0000000000000E+00
(PID.TID 0000.0001) %MON AngleSN_sd                   =   0.0000000000000E+00
(PID.TID 0000.0001)  MDS_READ_FIELD: opening global file: bathy.box
(PID.TID 0000.0001)  MDS_READ_FIELD: opening global file: icetopo.exp1
(PID.TID 0000.0001) // =======================================================
(PID.TID 0000.0001) // Field Model R_low (ini_masks_etc)
(PID.TID 0000.0001) // CMIN =         -9.000000000000000E+02
(PID.TID 0000.0001) // CMAX =         -9.000000000000000E+02
(PID.TID 0000.0001) // CINT =          0.000000000000000E+00
(PID.TID 0000.0001) // SYMBOLS (CMIN->CMAX): -abcdefghijklmnopqrstuvwxyz+
(PID.TID 0000.0001) //                  0.0: .
(PID.TID 0000.0001) // RANGE I (Lo:Hi:Step):(    -2:    53:     1)
(PID.TID 0000.0001) // RANGE J (Lo:Hi:Step):(   103:    -2:    -1)
(PID.TID 0000.0001) // RANGE K (Lo:Hi:Step):(   1:   1:   1)
(PID.TID 0000.0001) // =======================================================
(PID.TID 0000.0001) // =======================================================
(PID.TID 0000.0001) // END OF FIELD                                          =
(PID.TID 0000.0001) // =======================================================
(PID.TID 0000.0001) 
(PID.TID 0000.0001) // =======================================================
(PID.TID 0000.0001) // Field Model Ro_surf (ini_masks_etc)
(PID.TID 0000.0001) // CMIN =         -6.812500000000010E+02
(PID.TID 0000.0001) // CMAX =         -2.000000000000000E+02
(PID.TID 0000.0001) // CINT =          1.782407407407411E+01
(PID.TID 0000.0001) // SYMBOLS (CMIN->CMAX): -abcdefghijklmnopqrstuvwxyz+
(PID.TID 0000.0001) //                  0.0: .
(PID.TID 0000.0001) // RANGE I (Lo:Hi:Step):(    -2:    53:     1)
(PID.TID 0000.0001) // RANGE J (Lo:Hi:Step):(   103:    -2:    -1)
(PID.TID 0000.0001) // RANGE K (Lo:Hi:Step):(   1:   1:   1)
(PID.TID 0000.0001) // =======================================================
(PID.TID 0000.0001) K =   1
(PID.TID 0000.0001) //                I=7       I=17      I=27      I=31      I=41      I=51
(PID.TID 0000.0001) // |--J--|210123456|890123456|890123456|834567890|234567890|234567890|23
(PID.TID 0000.0001) //    103 aaa.aaaaaaaaaaaaaaaaaaaaaaaaaaaaaaaaaaaaaaaaaaaaaaaaaaaaaaa.aa
(PID.TID 0000.0001) //    102 ---.-------------------------------------------------------.--
(PID.TID 0000.0001) //    101 ..............................................................
(PID.TID 0000.0001) //    100 ..............................................................
(PID.TID 0000.0001) //     99 ..............................................................
(PID.TID 0000.0001) //     98 ..............................................................
(PID.TID 0000.0001) //     97 ..............................................................
(PID.TID 0000.0001) //     96 ..............................................................
(PID.TID 0000.0001) //     95 ..............................................................
(PID.TID 0000.0001) //     94 ..............................................................
(PID.TID 0000.0001) //     93 ..............................................................
(PID.TID 0000.0001) //     92 ..............................................................
(PID.TID 0000.0001) //     91 ..............................................................
(PID.TID 0000.0001) //     90 ..............................................................
(PID.TID 0000.0001) //     89 ..............................................................
(PID.TID 0000.0001) //     88 ..............................................................
(PID.TID 0000.0001) //     87 ..............................................................
(PID.TID 0000.0001) //     86 ..............................................................
(PID.TID 0000.0001) //     85 ..............................................................
(PID.TID 0000.0001) //     84 ..............................................................
(PID.TID 0000.0001) //     83 ..............................................................
(PID.TID 0000.0001) //     82 ..............................................................
(PID.TID 0000.0001) //     81 ..............................................................
(PID.TID 0000.0001) //     80 ..............................................................
(PID.TID 0000.0001) //     79 ..............................................................
(PID.TID 0000.0001) //     78 ..............................................................
(PID.TID 0000.0001) //     77 ..............................................................
(PID.TID 0000.0001) //     76 ..............................................................
(PID.TID 0000.0001) //     75 ..............................................................
(PID.TID 0000.0001) //     74 ..............................................................
(PID.TID 0000.0001) //     73 ..............................................................
(PID.TID 0000.0001) //     78 ..............................................................
(PID.TID 0000.0001) //     77 ..............................................................
(PID.TID 0000.0001) //     76 ..............................................................
(PID.TID 0000.0001) //     75 ..............................................................
(PID.TID 0000.0001) //     74 ..............................................................
(PID.TID 0000.0001) //     73 ..............................................................
(PID.TID 0000.0001) //     72 ..............................................................
(PID.TID 0000.0001) //     71 ..............................................................
(PID.TID 0000.0001) //     70 ..............................................................
(PID.TID 0000.0001) //     69 ..............................................................
(PID.TID 0000.0001) //     68 ..............................................................
(PID.TID 0000.0001) //     67 ..............................................................
(PID.TID 0000.0001) //     66 ..............................................................
(PID.TID 0000.0001) //     65 ..............................................................
(PID.TID 0000.0001) //     64 ..............................................................
(PID.TID 0000.0001) //     63 ..............................................................
(PID.TID 0000.0001) //     62 ..............................................................
(PID.TID 0000.0001) //     61 ..............................................................
(PID.TID 0000.0001) //     60 ..............................................................
(PID.TID 0000.0001) //     59 ..............................................................
(PID.TID 0000.0001) //     58 ..............................................................
(PID.TID 0000.0001) //     57 ..............................................................
(PID.TID 0000.0001) //     56 ..............................................................
(PID.TID 0000.0001) //     55 ..............................................................
(PID.TID 0000.0001) //     54 ..............................................................
(PID.TID 0000.0001) //     53 ..............................................................
(PID.TID 0000.0001) //     52 ..............................................................
(PID.TID 0000.0001) //     51 ..............................................................
(PID.TID 0000.0001) //     50 +++.+++++++++++++++++++++++++++++++++++++++++++++++++++++++.++
(PID.TID 0000.0001) //     49 +++.+++++++++++++++++++++++++++++++++++++++++++++++++++++++.++
(PID.TID 0000.0001) //     48 +++.+++++++++++++++++++++++++++++++++++++++++++++++++++++++.++
(PID.TID 0000.0001) //     53 ..............................................................
(PID.TID 0000.0001) //     52 ..............................................................
(PID.TID 0000.0001) //     51 ..............................................................
(PID.TID 0000.0001) //     50 +++.+++++++++++++++++++++++++++++++++++++++++++++++++++++++.++
(PID.TID 0000.0001) //     49 +++.+++++++++++++++++++++++++++++++++++++++++++++++++++++++.++
(PID.TID 0000.0001) //     48 +++.+++++++++++++++++++++++++++++++++++++++++++++++++++++++.++
(PID.TID 0000.0001) //     47 +++.+++++++++++++++++++++++++++++++++++++++++++++++++++++++.++
(PID.TID 0000.0001) //     46 +++.+++++++++++++++++++++++++++++++++++++++++++++++++++++++.++
(PID.TID 0000.0001) //     45 +++.+++++++++++++++++++++++++++++++++++++++++++++++++++++++.++
(PID.TID 0000.0001) //     44 +++.+++++++++++++++++++++++++++++++++++++++++++++++++++++++.++
(PID.TID 0000.0001) //     43 +++.+++++++++++++++++++++++++++++++++++++++++++++++++++++++.++
(PID.TID 0000.0001) //     42 +++.+++++++++++++++++++++++++++++++++++++++++++++++++++++++.++
(PID.TID 0000.0001) //     41 +++.+++++++++++++++++++++++++++++++++++++++++++++++++++++++.++
(PID.TID 0000.0001) //     40 +++.+++++++++++++++++++++++++++++++++++++++++++++++++++++++.++
(PID.TID 0000.0001) //     39 zzz.zzzzzzzzzzzzzzzzzzzzzzzzzzzzzzzzzzzzzzzzzzzzzzzzzzzzzzz.zz
(PID.TID 0000.0001) //     38 yyy.yyyyyyyyyyyyyyyyyyyyyyyyyyyyyyyyyyyyyyyyyyyyyyyyyyyyyyy.yy
(PID.TID 0000.0001) //     37 yyy.yyyyyyyyyyyyyyyyyyyyyyyyyyyyyyyyyyyyyyyyyyyyyyyyyyyyyyy.yy
(PID.TID 0000.0001) //     36 xxx.xxxxxxxxxxxxxxxxxxxxxxxxxxxxxxxxxxxxxxxxxxxxxxxxxxxxxxx.xx
(PID.TID 0000.0001) //     35 www.wwwwwwwwwwwwwwwwwwwwwwwwwwwwwwwwwwwwwwwwwwwwwwwwwwwwwww.ww
(PID.TID 0000.0001) //     34 vvv.vvvvvvvvvvvvvvvvvvvvvvvvvvvvvvvvvvvvvvvvvvvvvvvvvvvvvvv.vv
(PID.TID 0000.0001) //     33 vvv.vvvvvvvvvvvvvvvvvvvvvvvvvvvvvvvvvvvvvvvvvvvvvvvvvvvvvvv.vv
(PID.TID 0000.0001) //     32 uuu.uuuuuuuuuuuuuuuuuuuuuuuuuuuuuuuuuuuuuuuuuuuuuuuuuuuuuuu.uu
(PID.TID 0000.0001) //     31 ttt.ttttttttttttttttttttttttttttttttttttttttttttttttttttttt.tt
(PID.TID 0000.0001) //     30 ttt.ttttttttttttttttttttttttttttttttttttttttttttttttttttttt.tt
(PID.TID 0000.0001) //     29 sss.sssssssssssssssssssssssssssssssssssssssssssssssssssssss.ss
(PID.TID 0000.0001) //     28 rrr.rrrrrrrrrrrrrrrrrrrrrrrrrrrrrrrrrrrrrrrrrrrrrrrrrrrrrrr.rr
(PID.TID 0000.0001) //     27 rrr.rrrrrrrrrrrrrrrrrrrrrrrrrrrrrrrrrrrrrrrrrrrrrrrrrrrrrrr.rr
(PID.TID 0000.0001) //     26 qqq.qqqqqqqqqqqqqqqqqqqqqqqqqqqqqqqqqqqqqqqqqqqqqqqqqqqqqqq.qq
(PID.TID 0000.0001) //     25 ppp.ppppppppppppppppppppppppppppppppppppppppppppppppppppppp.pp
(PID.TID 0000.0001) //     24 ooo.ooooooooooooooooooooooooooooooooooooooooooooooooooooooo.oo
(PID.TID 0000.0001) //     23 ooo.ooooooooooooooooooooooooooooooooooooooooooooooooooooooo.oo
(PID.TID 0000.0001) //     28 rrr.rrrrrrrrrrrrrrrrrrrrrrrrrrrrrrrrrrrrrrrrrrrrrrrrrrrrrrr.rr
(PID.TID 0000.0001) //     27 rrr.rrrrrrrrrrrrrrrrrrrrrrrrrrrrrrrrrrrrrrrrrrrrrrrrrrrrrrr.rr
(PID.TID 0000.0001) //     26 qqq.qqqqqqqqqqqqqqqqqqqqqqqqqqqqqqqqqqqqqqqqqqqqqqqqqqqqqqq.qq
(PID.TID 0000.0001) //     25 ppp.ppppppppppppppppppppppppppppppppppppppppppppppppppppppp.pp
(PID.TID 0000.0001) //     24 ooo.ooooooooooooooooooooooooooooooooooooooooooooooooooooooo.oo
(PID.TID 0000.0001) //     23 ooo.ooooooooooooooooooooooooooooooooooooooooooooooooooooooo.oo
(PID.TID 0000.0001) //     22 nnn.nnnnnnnnnnnnnnnnnnnnnnnnnnnnnnnnnnnnnnnnnnnnnnnnnnnnnnn.nn
(PID.TID 0000.0001) //     21 mmm.mmmmmmmmmmmmmmmmmmmmmmmmmmmmmmmmmmmmmmmmmmmmmmmmmmmmmmm.mm
(PID.TID 0000.0001) //     20 mmm.mmmmmmmmmmmmmmmmmmmmmmmmmmmmmmmmmmmmmmmmmmmmmmmmmmmmmmm.mm
(PID.TID 0000.0001) //     19 lll.lllllllllllllllllllllllllllllllllllllllllllllllllllllll.ll
(PID.TID 0000.0001) //     18 kkk.kkkkkkkkkkkkkkkkkkkkkkkkkkkkkkkkkkkkkkkkkkkkkkkkkkkkkkk.kk
(PID.TID 0000.0001) //     17 kkk.kkkkkkkkkkkkkkkkkkkkkkkkkkkkkkkkkkkkkkkkkkkkkkkkkkkkkkk.kk
(PID.TID 0000.0001) //     16 jjj.jjjjjjjjjjjjjjjjjjjjjjjjjjjjjjjjjjjjjjjjjjjjjjjjjjjjjjj.jj
(PID.TID 0000.0001) //     15 iii.iiiiiiiiiiiiiiiiiiiiiiiiiiiiiiiiiiiiiiiiiiiiiiiiiiiiiii.ii
(PID.TID 0000.0001) //     14 hhh.hhhhhhhhhhhhhhhhhhhhhhhhhhhhhhhhhhhhhhhhhhhhhhhhhhhhhhh.hh
(PID.TID 0000.0001) //     13 hhh.hhhhhhhhhhhhhhhhhhhhhhhhhhhhhhhhhhhhhhhhhhhhhhhhhhhhhhh.hh
(PID.TID 0000.0001) //     12 ggg.ggggggggggggggggggggggggggggggggggggggggggggggggggggggg.gg
(PID.TID 0000.0001) //     11 fff.fffffffffffffffffffffffffffffffffffffffffffffffffffffff.ff
(PID.TID 0000.0001) //     10 fff.fffffffffffffffffffffffffffffffffffffffffffffffffffffff.ff
(PID.TID 0000.0001) //      9 eee.eeeeeeeeeeeeeeeeeeeeeeeeeeeeeeeeeeeeeeeeeeeeeeeeeeeeeee.ee
(PID.TID 0000.0001) //      8 ddd.ddddddddddddddddddddddddddddddddddddddddddddddddddddddd.dd
(PID.TID 0000.0001) //      7 ddd.ddddddddddddddddddddddddddddddddddddddddddddddddddddddd.dd
(PID.TID 0000.0001) //      6 ccc.ccccccccccccccccccccccccccccccccccccccccccccccccccccccc.cc
(PID.TID 0000.0001) //      5 bbb.bbbbbbbbbbbbbbbbbbbbbbbbbbbbbbbbbbbbbbbbbbbbbbbbbbbbbbb.bb
(PID.TID 0000.0001) //      4 aaa.aaaaaaaaaaaaaaaaaaaaaaaaaaaaaaaaaaaaaaaaaaaaaaaaaaaaaaa.aa
(PID.TID 0000.0001) //      3 aaa.aaaaaaaaaaaaaaaaaaaaaaaaaaaaaaaaaaaaaaaaaaaaaaaaaaaaaaa.aa
(PID.TID 0000.0001) //      2 ---.-------------------------------------------------------.--
(PID.TID 0000.0001) //      1 ..............................................................
(PID.TID 0000.0001) //      0 ..............................................................
(PID.TID 0000.0001) //     -1 ..............................................................
(PID.TID 0000.0001) //     -2 ..............................................................
(PID.TID 0000.0001) // =======================================================
(PID.TID 0000.0001) // END OF FIELD                                          =
(PID.TID 0000.0001) // =======================================================
(PID.TID 0000.0001) 
(PID.TID 0000.0001) // =======================================================
(PID.TID 0000.0001) // Field hFacC at iteration          0
(PID.TID 0000.0001) // CMIN =          1.000000000000000E+00
(PID.TID 0000.0001) // CMAX =          1.000000000000000E+00
(PID.TID 0000.0001) // CINT =          0.000000000000000E+00
(PID.TID 0000.0001) // SYMBOLS (CMIN->CMAX): -abcdefghijklmnopqrstuvwxyz+
(PID.TID 0000.0001) //                  0.0: .
(PID.TID 0000.0001) // RANGE I (Lo:Hi:Step):(    -2:    53:     1)
(PID.TID 0000.0001) // RANGE J (Lo:Hi:Step):(   103:    -2:    -1)
(PID.TID 0000.0001) // RANGE K (Lo:Hi:Step):(   1:   1:   1)
(PID.TID 0000.0001) // =======================================================
(PID.TID 0000.0001) // =======================================================
(PID.TID 0000.0001) // END OF FIELD                                          =
(PID.TID 0000.0001) // =======================================================
(PID.TID 0000.0001) 
(PID.TID 0000.0001) // =======================================================
(PID.TID 0000.0001) // Field hFacW at iteration          0
(PID.TID 0000.0001) // CMIN =          1.000000000000000E+00
(PID.TID 0000.0001) // CMAX =          1.000000000000000E+00
(PID.TID 0000.0001) // CINT =          0.000000000000000E+00
(PID.TID 0000.0001) // SYMBOLS (CMIN->CMAX): -abcdefghijklmnopqrstuvwxyz+
(PID.TID 0000.0001) //                  0.0: .
(PID.TID 0000.0001) // RANGE I (Lo:Hi:Step):(    -2:    53:     1)
(PID.TID 0000.0001) // RANGE J (Lo:Hi:Step):(   103:    -2:    -1)
(PID.TID 0000.0001) // RANGE K (Lo:Hi:Step):(   1:   1:   1)
(PID.TID 0000.0001) // =======================================================
(PID.TID 0000.0001) // =======================================================
(PID.TID 0000.0001) // END OF FIELD                                          =
(PID.TID 0000.0001) // =======================================================
(PID.TID 0000.0001) 
(PID.TID 0000.0001) // =======================================================
(PID.TID 0000.0001) // Field hFacS at iteration          0
(PID.TID 0000.0001) // CMIN =          1.000000000000000E+00
(PID.TID 0000.0001) // CMAX =          1.000000000000000E+00
(PID.TID 0000.0001) // CINT =          0.000000000000000E+00
(PID.TID 0000.0001) // SYMBOLS (CMIN->CMAX): -abcdefghijklmnopqrstuvwxyz+
(PID.TID 0000.0001) //                  0.0: .
(PID.TID 0000.0001) // RANGE I (Lo:Hi:Step):(    -2:    53:     1)
(PID.TID 0000.0001) // RANGE J (Lo:Hi:Step):(   103:    -2:    -1)
(PID.TID 0000.0001) // RANGE K (Lo:Hi:Step):(   1:   1:   1)
(PID.TID 0000.0001) // =======================================================
(PID.TID 0000.0001) // =======================================================
(PID.TID 0000.0001) // END OF FIELD                                          =
(PID.TID 0000.0001) // =======================================================
(PID.TID 0000.0001) 
(PID.TID 0000.0001) GAD_INIT_FIXED: GAD_OlMinSize=  1  0  1
(PID.TID 0000.0001) 
(PID.TID 0000.0001) // ===================================
(PID.TID 0000.0001) // GAD parameters :
(PID.TID 0000.0001) // ===================================
(PID.TID 0000.0001) tempAdvScheme =   /* Temp. Horiz.Advection scheme selector */
(PID.TID 0000.0001)                       2
(PID.TID 0000.0001)     ;
(PID.TID 0000.0001) tempVertAdvScheme =   /* Temp. Vert. Advection scheme selector */
(PID.TID 0000.0001)                       2
(PID.TID 0000.0001)     ;
(PID.TID 0000.0001) tempMultiDimAdvec =   /* use Muti-Dim Advec method for Temp */
(PID.TID 0000.0001)                   F
(PID.TID 0000.0001)     ;
(PID.TID 0000.0001) tempSOM_Advection = /* use 2nd Order Moment Advection for Temp */
(PID.TID 0000.0001)                   F
(PID.TID 0000.0001)     ;
(PID.TID 0000.0001) AdamsBashforthGt = /* apply Adams-Bashforth extrapolation on Gt */
(PID.TID 0000.0001)                   T
(PID.TID 0000.0001)     ;
(PID.TID 0000.0001) AdamsBashforth_T = /* apply Adams-Bashforth extrapolation on Temp */
(PID.TID 0000.0001)                   F
(PID.TID 0000.0001)     ;
(PID.TID 0000.0001) saltAdvScheme =   /* Salt. Horiz.advection scheme selector */
(PID.TID 0000.0001)                       2
(PID.TID 0000.0001)     ;
(PID.TID 0000.0001) saltVertAdvScheme =   /* Salt. Vert. Advection scheme selector */
(PID.TID 0000.0001)                       2
(PID.TID 0000.0001)     ;
(PID.TID 0000.0001) saltMultiDimAdvec =   /* use Muti-Dim Advec method for Salt */
(PID.TID 0000.0001)                   F
(PID.TID 0000.0001)     ;
(PID.TID 0000.0001) saltSOM_Advection = /* use 2nd Order Moment Advection for Salt */
(PID.TID 0000.0001)                   F
(PID.TID 0000.0001)     ;
(PID.TID 0000.0001) AdamsBashforthGs = /* apply Adams-Bashforth extrapolation on Gs */
(PID.TID 0000.0001)                   T
(PID.TID 0000.0001)     ;
(PID.TID 0000.0001) AdamsBashforth_S = /* apply Adams-Bashforth extrapolation on Salt */
(PID.TID 0000.0001)                   F
(PID.TID 0000.0001)     ;
(PID.TID 0000.0001) // ===================================
(PID.TID 0000.0001)  MDS_READ_FIELD: opening global file: phi0surf.exp1.jmd95z
(PID.TID 0000.0001)  MDS_READ_FIELD: opening global file: frontcircum.xuyun
(PID.TID 0000.0001)  MDS_READ_FIELD: opening global file: frontdepth.xuyun
(PID.TID 0000.0001) ------------------------------------------------------------
(PID.TID 0000.0001) DIAGNOSTICS_SET_LEVELS: done
(PID.TID 0000.0001)  Total Nb of available Diagnostics: ndiagt=   207
(PID.TID 0000.0001)  write list of available Diagnostics to file: available_diagnostics.log
(PID.TID 0000.0001) SETDIAG: Allocate  1 x  1 Levels for Diagnostic #   196 SHIfwFlx
(PID.TID 0000.0001) SETDIAG: Allocate  1 x  1 Levels for Diagnostic #   197 SHIhtFlx
(PID.TID 0000.0001) SETDIAG: Allocate 30 x  1 Levels for Diagnostic #   206 ICFfwFlx
(PID.TID 0000.0001) SETDIAG: Allocate 30 x  1 Levels for Diagnostic #   207 ICFhtFlx
(PID.TID 0000.0001)   space allocated for all diagnostics:      62 levels
(PID.TID 0000.0001) DIAGNOSTICS_SET_POINTERS: Set levels for Outp.Stream: shelficeDiag
(PID.TID 0000.0001)  Levels:       1.
(PID.TID 0000.0001) DIAGNOSTICS_SET_POINTERS: Set levels for Outp.Stream: icefrontDiag
(PID.TID 0000.0001)  Levels:       1.   2.   3.   4.   5.   6.   7.   8.   9.  10.  11.  12.  13.  14.  15.  16.  17.  18.  19.  20.
(PID.TID 0000.0001)  Levels:      21.  22.  23.  24.  25.  26.  27.  28.  29.  30.
(PID.TID 0000.0001) DIAGNOSTICS_SET_POINTERS: done
(PID.TID 0000.0001) ------------------------------------------------------------
(PID.TID 0000.0001) DIAGSTATS_SET_REGIONS: define   0 regions:
(PID.TID 0000.0001) ------------------------------------------------------------
(PID.TID 0000.0001)   space allocated for all stats-diags:       0 levels
(PID.TID 0000.0001) DIAGSTATS_SET_POINTERS: done
(PID.TID 0000.0001) ------------------------------------------------------------
(PID.TID 0000.0001) %MON fCori_max                    =  -1.3709057042516E-04
(PID.TID 0000.0001) %MON fCori_min                    =  -1.4360464034757E-04
(PID.TID 0000.0001) %MON fCori_mean                   =  -1.4069429304698E-04
(PID.TID 0000.0001) %MON fCori_sd                     =   1.9069739624987E-06
(PID.TID 0000.0001) %MON fCoriG_max                   =  -1.3713394327439E-04
(PID.TID 0000.0001) %MON fCoriG_min                   =  -1.4362679550910E-04
(PID.TID 0000.0001) %MON fCoriG_mean                  =  -1.4072713798624E-04
(PID.TID 0000.0001) %MON fCoriG_sd                    =   1.9008093726821E-06
(PID.TID 0000.0001) %MON fCoriCos_max                 =   4.9761447480159E-05
(PID.TID 0000.0001) %MON fCoriCos_min                 =   2.5450607565678E-05
(PID.TID 0000.0001) %MON fCoriCos_mean                =   3.7698922201606E-05
(PID.TID 0000.0001) %MON fCoriCos_sd                  =   7.0920218535055E-06
(PID.TID 0000.0001) INI_CG2D: CG2D normalisation factor =  8.6553958581495505E-04
(PID.TID 0000.0001) 
(PID.TID 0000.0001) // =======================================================
(PID.TID 0000.0001) // Model configuration
(PID.TID 0000.0001) // =======================================================
(PID.TID 0000.0001) //
(PID.TID 0000.0001) // "Physical" paramters ( PARM01 in namelist )
(PID.TID 0000.0001) //
(PID.TID 0000.0001) buoyancyRelation = /* Type of relation to get Buoyancy */
(PID.TID 0000.0001)               'OCEANIC'
(PID.TID 0000.0001)     ;
(PID.TID 0000.0001) fluidIsAir   =  /* fluid major constituent is Air */
(PID.TID 0000.0001)                   F
(PID.TID 0000.0001)     ;
(PID.TID 0000.0001) fluidIsWater =  /* fluid major constituent is Water */
(PID.TID 0000.0001)                   T
(PID.TID 0000.0001)     ;
(PID.TID 0000.0001) usingPCoords =  /* use p (or p*) vertical coordinate */
(PID.TID 0000.0001)                   F
(PID.TID 0000.0001)     ;
(PID.TID 0000.0001) usingZCoords =  /* use z (or z*) vertical coordinate */
(PID.TID 0000.0001)                   T
(PID.TID 0000.0001)     ;
(PID.TID 0000.0001) tRef =   /* Reference temperature profile ( oC or K ) */
(PID.TID 0000.0001)    30 @ -1.900000000000000E+00              /* K =  1: 30 */
(PID.TID 0000.0001)     ;
(PID.TID 0000.0001) sRef =   /* Reference salinity profile ( g/kg ) */
(PID.TID 0000.0001)    30 @  3.440000000000000E+01              /* K =  1: 30 */
(PID.TID 0000.0001)     ;
(PID.TID 0000.0001) useStrainTensionVisc= /* Use StrainTension Form of Viscous Operator */
(PID.TID 0000.0001)                   F
(PID.TID 0000.0001)     ;
(PID.TID 0000.0001) useVariableVisc = /* Use variable horizontal viscosity */
(PID.TID 0000.0001)                   F
(PID.TID 0000.0001)     ;
(PID.TID 0000.0001) useHarmonicVisc = /* Use harmonic horizontal viscosity */
(PID.TID 0000.0001)                   T
(PID.TID 0000.0001)     ;
(PID.TID 0000.0001) useBiharmonicVisc= /* Use biharmonic horiz.  viscosity */
(PID.TID 0000.0001)                   F
(PID.TID 0000.0001)     ;
(PID.TID 0000.0001) useSmag3D = /* Use isotropic 3-D Smagorinsky viscosity */
(PID.TID 0000.0001)                   F
(PID.TID 0000.0001)     ;
(PID.TID 0000.0001) viscAh  =   /* Lateral harmonic viscosity ( m^2/s ) */
(PID.TID 0000.0001)                 6.000000000000000E+02
(PID.TID 0000.0001)     ;
(PID.TID 0000.0001) viscA4  =   /* Lateral biharmonic viscosity ( m^4/s ) */
(PID.TID 0000.0001)                 0.000000000000000E+00
(PID.TID 0000.0001)     ;
(PID.TID 0000.0001) no_slip_sides =  /* Viscous BCs: No-slip sides */
(PID.TID 0000.0001)                   F
(PID.TID 0000.0001)     ;
(PID.TID 0000.0001) sideDragFactor = /* side-drag scaling factor (non-dim) */
(PID.TID 0000.0001)                 2.000000000000000E+00
(PID.TID 0000.0001)     ;
(PID.TID 0000.0001) viscArNr = /* vertical profile of vertical viscosity ( m^2/s )*/
(PID.TID 0000.0001)    30 @  1.000000000000000E-03              /* K =  1: 30 */
(PID.TID 0000.0001)     ;
(PID.TID 0000.0001) no_slip_bottom =  /* Viscous BCs: No-slip bottom */
(PID.TID 0000.0001)                   F
(PID.TID 0000.0001)     ;
(PID.TID 0000.0001) bottomVisc_pCell = /* Partial-cell in bottom Visc. BC */
(PID.TID 0000.0001)                   F
(PID.TID 0000.0001)     ;
(PID.TID 0000.0001) bottomDragLinear = /* linear bottom-drag coefficient ( m/s ) */
(PID.TID 0000.0001)                 0.000000000000000E+00
(PID.TID 0000.0001)     ;
(PID.TID 0000.0001) bottomDragQuadratic = /* quadratic bottom-drag coefficient (-) */
(PID.TID 0000.0001)                 2.500000000000000E-03
(PID.TID 0000.0001)     ;
(PID.TID 0000.0001) selectBotDragQuadr = /* select quadratic bottom drag options */
(PID.TID 0000.0001)                       0
(PID.TID 0000.0001)     ;
(PID.TID 0000.0001) diffKhT =   /* Laplacian diffusion of heat laterally ( m^2/s ) */
(PID.TID 0000.0001)                 1.000000000000000E+02
(PID.TID 0000.0001)     ;
(PID.TID 0000.0001) diffK4T =   /* Biharmonic diffusion of heat laterally ( m^4/s ) */
(PID.TID 0000.0001)                 0.000000000000000E+00
(PID.TID 0000.0001)     ;
(PID.TID 0000.0001) diffKhS =   /* Laplacian diffusion of salt laterally ( m^2/s ) */
(PID.TID 0000.0001)                 1.000000000000000E+02
(PID.TID 0000.0001)     ;
(PID.TID 0000.0001) diffK4S =   /* Biharmonic diffusion of salt laterally ( m^4/s ) */
(PID.TID 0000.0001)                 0.000000000000000E+00
(PID.TID 0000.0001)     ;
(PID.TID 0000.0001) diffKrNrT = /* vertical profile of vertical diffusion of Temp ( m^2/s )*/
(PID.TID 0000.0001)    30 @  5.000000000000000E-05              /* K =  1: 30 */
(PID.TID 0000.0001)     ;
(PID.TID 0000.0001) diffKrNrS = /* vertical profile of vertical diffusion of Salt ( m^2/s )*/
(PID.TID 0000.0001)    30 @  5.000000000000000E-05              /* K =  1: 30 */
(PID.TID 0000.0001)     ;
(PID.TID 0000.0001) diffKrBL79surf = /* Surface diffusion for Bryan and Lewis 79 ( m^2/s ) */
(PID.TID 0000.0001)                 0.000000000000000E+00
(PID.TID 0000.0001)     ;
(PID.TID 0000.0001) diffKrBL79deep = /* Deep diffusion for Bryan and Lewis 1979 ( m^2/s ) */
(PID.TID 0000.0001)                 0.000000000000000E+00
(PID.TID 0000.0001)     ;
(PID.TID 0000.0001) diffKrBL79scl = /* Depth scale for Bryan and Lewis 1979 ( m ) */
(PID.TID 0000.0001)                 2.000000000000000E+02
(PID.TID 0000.0001)     ;
(PID.TID 0000.0001) diffKrBL79Ho = /* Turning depth for Bryan and Lewis 1979 ( m ) */
(PID.TID 0000.0001)                -2.000000000000000E+03
(PID.TID 0000.0001)     ;
(PID.TID 0000.0001) ivdc_kappa = /* Implicit Vertical Diffusivity for Convection ( m^2/s) */
(PID.TID 0000.0001)                 0.000000000000000E+00
(PID.TID 0000.0001)     ;
(PID.TID 0000.0001) hMixCriteria=  /* Criteria for mixed-layer diagnostic */
(PID.TID 0000.0001)                -8.000000000000000E-01
(PID.TID 0000.0001)     ;
(PID.TID 0000.0001) dRhoSmall =  /* Parameter for mixed-layer diagnostic */
(PID.TID 0000.0001)                 1.000000000000000E-06
(PID.TID 0000.0001)     ;
(PID.TID 0000.0001) hMixSmooth=  /* Smoothing parameter for mixed-layer diagnostic */
(PID.TID 0000.0001)                 0.000000000000000E+00
(PID.TID 0000.0001)     ;
(PID.TID 0000.0001) eosType =  /* Type of Equation of State */
(PID.TID 0000.0001)               'JMD95Z'
(PID.TID 0000.0001)     ;
(PID.TID 0000.0001) eosRefP0 = /* Reference atmospheric pressure for EOS ( Pa ) */
(PID.TID 0000.0001)                 1.013250000000000E+05
(PID.TID 0000.0001)     ;
(PID.TID 0000.0001) selectP_inEOS_Zc = /* select pressure to use in EOS (0,1,2,3) */
(PID.TID 0000.0001)                       0
(PID.TID 0000.0001)     0= -g*rhoConst*z ; 1= pRef (from tRef,sRef); 2= Hyd P ; 3= Hyd+NH P
(PID.TID 0000.0001)     ;
(PID.TID 0000.0001) surf_pRef = /* Surface reference pressure ( Pa ) */
(PID.TID 0000.0001)                 1.013250000000000E+05
(PID.TID 0000.0001)     ;
(PID.TID 0000.0001) HeatCapacity_Cp =  /* Specific heat capacity ( J/kg/K ) */
(PID.TID 0000.0001)                 3.974000000000000E+03
(PID.TID 0000.0001)     ;
(PID.TID 0000.0001) celsius2K = /* 0 degree Celsius converted to Kelvin ( K ) */
(PID.TID 0000.0001)                 2.731500000000000E+02
(PID.TID 0000.0001)     ;
(PID.TID 0000.0001) rhoConst  = /* Reference density (Boussinesq)  ( kg/m^3 ) */
(PID.TID 0000.0001)                 1.030000000000000E+03
(PID.TID 0000.0001)     ;
(PID.TID 0000.0001) rhoFacC = /* normalized Reference density @ cell-Center (-) */
(PID.TID 0000.0001)    30 @  1.000000000000000E+00              /* K =  1: 30 */
(PID.TID 0000.0001)     ;
(PID.TID 0000.0001) rhoFacF = /* normalized Reference density @ W-Interface (-) */
(PID.TID 0000.0001)    31 @  1.000000000000000E+00              /* K =  1: 31 */
(PID.TID 0000.0001)     ;
(PID.TID 0000.0001) rhoConstFresh = /* Fresh-water reference density ( kg/m^3 ) */
(PID.TID 0000.0001)                 1.030000000000000E+03
(PID.TID 0000.0001)     ;
(PID.TID 0000.0001) gravity =   /* Gravitational acceleration ( m/s^2 ) */
(PID.TID 0000.0001)                 9.810000000000000E+00
(PID.TID 0000.0001)     ;
(PID.TID 0000.0001) gBaro =   /* Barotropic gravity ( m/s^2 ) */
(PID.TID 0000.0001)                 9.810000000000000E+00
(PID.TID 0000.0001)     ;
(PID.TID 0000.0001) gravFacC = /* gravity factor (vs surf.) @ cell-Center (-) */
(PID.TID 0000.0001)    30 @  1.000000000000000E+00              /* K =  1: 30 */
(PID.TID 0000.0001)     ;
(PID.TID 0000.0001) gravFacF = /* gravity factor (vs surf.) @ W-Interface (-) */
(PID.TID 0000.0001)    31 @  1.000000000000000E+00              /* K =  1: 31 */
(PID.TID 0000.0001)     ;
(PID.TID 0000.0001) rotationPeriod =   /* Rotation Period ( s ) */
(PID.TID 0000.0001)                 8.616400000000000E+04
(PID.TID 0000.0001)     ;
(PID.TID 0000.0001) omega =   /* Angular velocity ( rad/s ) */
(PID.TID 0000.0001)                 7.292123516990375E-05
(PID.TID 0000.0001)     ;
(PID.TID 0000.0001) f0 =   /* Reference coriolis parameter ( 1/s ) */
(PID.TID 0000.0001)                 1.000000000000000E-04
(PID.TID 0000.0001)     ;
(PID.TID 0000.0001) beta =   /* Beta ( 1/(m.s) ) */
(PID.TID 0000.0001)                 9.999999999999999E-12
(PID.TID 0000.0001)     ;
(PID.TID 0000.0001) fPrime =   /* Second coriolis parameter ( 1/s ) */
(PID.TID 0000.0001)                 0.000000000000000E+00
(PID.TID 0000.0001)     ;
(PID.TID 0000.0001) rigidLid =   /* Rigid lid on/off flag */
(PID.TID 0000.0001)                   F
(PID.TID 0000.0001)     ;
(PID.TID 0000.0001) implicitFreeSurface =   /* Implicit free surface on/off flag */
(PID.TID 0000.0001)                   T
(PID.TID 0000.0001)     ;
(PID.TID 0000.0001) freeSurfFac =   /* Implicit free surface factor */
(PID.TID 0000.0001)                 1.000000000000000E+00
(PID.TID 0000.0001)     ;
(PID.TID 0000.0001) implicSurfPress =  /* Surface Pressure implicit factor (0-1)*/
(PID.TID 0000.0001)                 1.000000000000000E+00
(PID.TID 0000.0001)     ;
(PID.TID 0000.0001) implicDiv2DFlow =  /* Barot. Flow Div. implicit factor (0-1)*/
(PID.TID 0000.0001)                 1.000000000000000E+00
(PID.TID 0000.0001)     ;
(PID.TID 0000.0001) uniformLin_PhiSurf = /* use uniform Bo_surf on/off flag*/
(PID.TID 0000.0001)                   T
(PID.TID 0000.0001)     ;
(PID.TID 0000.0001) uniformFreeSurfLev = /* free-surface level-index is uniform */
(PID.TID 0000.0001)                   F
(PID.TID 0000.0001)     ;
(PID.TID 0000.0001) hFacMin =   /* minimum partial cell factor (hFac) */
(PID.TID 0000.0001)                 5.000000000000000E-02
(PID.TID 0000.0001)     ;
(PID.TID 0000.0001) hFacMinDr = /* minimum partial cell thickness ( m) */
(PID.TID 0000.0001)                 0.000000000000000E+00
(PID.TID 0000.0001)     ;
(PID.TID 0000.0001) exactConserv =  /* Exact Volume Conservation on/off flag*/
(PID.TID 0000.0001)                   T
(PID.TID 0000.0001)     ;
(PID.TID 0000.0001) linFSConserveTr = /* Tracer correction for Lin Free Surface on/off flag*/
(PID.TID 0000.0001)                   F
(PID.TID 0000.0001)     ;
(PID.TID 0000.0001) nonlinFreeSurf = /* Non-linear Free Surf. options (-1,0,1,2,3)*/
(PID.TID 0000.0001)                       0
(PID.TID 0000.0001)      -1,0= Off ; 1,2,3= On, 2=+rescale gU,gV, 3=+update cg2d solv.
(PID.TID 0000.0001)     ;
(PID.TID 0000.0001) hFacInf =   /* lower threshold for hFac (nonlinFreeSurf only)*/
(PID.TID 0000.0001)                 2.000000000000000E-01
(PID.TID 0000.0001)     ;
(PID.TID 0000.0001) hFacSup =   /* upper threshold for hFac (nonlinFreeSurf only)*/
(PID.TID 0000.0001)                 2.000000000000000E+00
(PID.TID 0000.0001)     ;
(PID.TID 0000.0001) select_rStar = /* r* Vertical coord. options (=0 r coord.; >0 uses r*)*/
(PID.TID 0000.0001)                       0
(PID.TID 0000.0001)     ;
(PID.TID 0000.0001) useRealFreshWaterFlux = /* Real Fresh Water Flux on/off flag*/
(PID.TID 0000.0001)                   F
(PID.TID 0000.0001)     ;
(PID.TID 0000.0001) temp_EvPrRn = /* Temp. of Evap/Prec/R (UNSET=use local T)(oC)*/
(PID.TID 0000.0001)                 1.234567000000000E+05
(PID.TID 0000.0001)     ;
(PID.TID 0000.0001) salt_EvPrRn = /* Salin. of Evap/Prec/R (UNSET=use local S)(g/kg)*/
(PID.TID 0000.0001)                 0.000000000000000E+00
(PID.TID 0000.0001)     ;
(PID.TID 0000.0001) selectAddFluid = /* option for mass source/sink of fluid (=0: off) */
(PID.TID 0000.0001)                       0
(PID.TID 0000.0001)     ;
(PID.TID 0000.0001) temp_addMass = /* Temp. of addMass array (UNSET=use local T)(oC)*/
(PID.TID 0000.0001)                 1.234567000000000E+05
(PID.TID 0000.0001)     ;
(PID.TID 0000.0001) salt_addMass = /* Salin. of addMass array (UNSET=use local S)(g/kg)*/
(PID.TID 0000.0001)                 0.000000000000000E+00
(PID.TID 0000.0001)     ;
(PID.TID 0000.0001) convertFW2Salt = /* convert F.W. Flux to Salt Flux (-1=use local S)(g/kg)*/
(PID.TID 0000.0001)                 3.340000000000000E+01
(PID.TID 0000.0001)     ;
(PID.TID 0000.0001) use3Dsolver = /* use 3-D pressure solver on/off flag */
(PID.TID 0000.0001)                   F
(PID.TID 0000.0001)     ;
(PID.TID 0000.0001) nonHydrostatic =  /* Non-Hydrostatic on/off flag */
(PID.TID 0000.0001)                   F
(PID.TID 0000.0001)     ;
(PID.TID 0000.0001) nh_Am2 = /* Non-Hydrostatic terms scaling factor */
(PID.TID 0000.0001)                 1.000000000000000E+00
(PID.TID 0000.0001)     ;
(PID.TID 0000.0001) implicitNHPress = /* Non-Hyd Pressure implicit factor (0-1)*/
(PID.TID 0000.0001)                 1.000000000000000E+00
(PID.TID 0000.0001)     ;
(PID.TID 0000.0001) selectNHfreeSurf = /* Non-Hyd (free-)Surface option */
(PID.TID 0000.0001)                       0
(PID.TID 0000.0001)     ;
(PID.TID 0000.0001) quasiHydrostatic = /* Quasi-Hydrostatic on/off flag */
(PID.TID 0000.0001)                   F
(PID.TID 0000.0001)     ;
(PID.TID 0000.0001) calc_wVelocity = /* vertical velocity calculation on/off flag */
(PID.TID 0000.0001)                   T
(PID.TID 0000.0001)     ;
(PID.TID 0000.0001) momStepping =  /* Momentum equation on/off flag */
(PID.TID 0000.0001)                   T
(PID.TID 0000.0001)     ;
(PID.TID 0000.0001) vectorInvariantMomentum= /* Vector-Invariant Momentum on/off */
(PID.TID 0000.0001)                   F
(PID.TID 0000.0001)     ;
(PID.TID 0000.0001) momAdvection =  /* Momentum advection on/off flag */
(PID.TID 0000.0001)                   T
(PID.TID 0000.0001)     ;
(PID.TID 0000.0001) momViscosity =  /* Momentum viscosity on/off flag */
(PID.TID 0000.0001)                   T
(PID.TID 0000.0001)     ;
(PID.TID 0000.0001) momImplVertAdv= /* Momentum implicit vert. advection on/off*/
(PID.TID 0000.0001)                   F
(PID.TID 0000.0001)     ;
(PID.TID 0000.0001) implicitViscosity = /* Implicit viscosity on/off flag */
(PID.TID 0000.0001)                   F
(PID.TID 0000.0001)     ;
(PID.TID 0000.0001) selectImplicitDrag= /* Implicit bot Drag options (0,1,2)*/
(PID.TID 0000.0001)                       0
(PID.TID 0000.0001)     0= Expl. ; 1= Impl. on provis. Vel ; 2= Fully Impl (with surf.P)
(PID.TID 0000.0001)     ;
(PID.TID 0000.0001) metricTerms =  /* metric-Terms on/off flag */
(PID.TID 0000.0001)                   T
(PID.TID 0000.0001)     ;
(PID.TID 0000.0001) useNHMTerms = /* Non-Hydrostatic Metric-Terms on/off */
(PID.TID 0000.0001)                   F
(PID.TID 0000.0001)     ;
(PID.TID 0000.0001) selectCoriMap = /* Coriolis Map options (0,1,2,3)*/
(PID.TID 0000.0001)                       2
(PID.TID 0000.0001)     0= f-Plane ; 1= Beta-Plane ; 2= Spherical ; 3= read from file
(PID.TID 0000.0001)     ;
(PID.TID 0000.0001) use3dCoriolis = /* 3-D Coriolis on/off flag */
(PID.TID 0000.0001)                   F
(PID.TID 0000.0001)     ;
(PID.TID 0000.0001) useCoriolis =  /* Coriolis on/off flag */
(PID.TID 0000.0001)                   T
(PID.TID 0000.0001)     ;
(PID.TID 0000.0001) useCDscheme =  /* CD scheme on/off flag */
(PID.TID 0000.0001)                   T
(PID.TID 0000.0001)     ;
(PID.TID 0000.0001) selectCoriScheme= /* Scheme selector for Coriolis-Term */
(PID.TID 0000.0001)                       0
(PID.TID 0000.0001)    = 0 : original discretization (simple averaging, no hFac)
(PID.TID 0000.0001)    = 1 : Wet-point averaging (Jamar & Ozer 1986)
(PID.TID 0000.0001)    = 2 : energy conserving scheme (no hFac weight)
(PID.TID 0000.0001)    = 3 : energy conserving scheme using Wet-point averaging
(PID.TID 0000.0001)     ;
(PID.TID 0000.0001) momForcing =  /* Momentum forcing on/off flag */
(PID.TID 0000.0001)                   T
(PID.TID 0000.0001)     ;
(PID.TID 0000.0001) momTidalForcing = /* Momentum Tidal forcing on/off flag */
(PID.TID 0000.0001)                   T
(PID.TID 0000.0001)     ;
(PID.TID 0000.0001) momPressureForcing =  /* Momentum pressure term on/off flag */
(PID.TID 0000.0001)                   T
(PID.TID 0000.0001)     ;
(PID.TID 0000.0001) implicitIntGravWave= /* Implicit Internal Gravity Wave flag */
(PID.TID 0000.0001)                   F
(PID.TID 0000.0001)     ;
(PID.TID 0000.0001) staggerTimeStep =    /* Stagger time stepping on/off flag */
(PID.TID 0000.0001)                   F
(PID.TID 0000.0001)     ;
(PID.TID 0000.0001) doResetHFactors = /* reset thickness factors @ each time-step */
(PID.TID 0000.0001)                   F
(PID.TID 0000.0001)     ;
(PID.TID 0000.0001) multiDimAdvection =  /* enable/disable Multi-Dim Advection */
(PID.TID 0000.0001)                   T
(PID.TID 0000.0001)     ;
(PID.TID 0000.0001) useMultiDimAdvec =   /* Multi-Dim Advection is/is-not used */
(PID.TID 0000.0001)                   F
(PID.TID 0000.0001)     ;
(PID.TID 0000.0001) implicitDiffusion = /* Implicit Diffusion on/off flag */
(PID.TID 0000.0001)                   F
(PID.TID 0000.0001)     ;
(PID.TID 0000.0001) tempStepping =  /* Temperature equation on/off flag */
(PID.TID 0000.0001)                   T
(PID.TID 0000.0001)     ;
(PID.TID 0000.0001) tempAdvection = /* Temperature advection on/off flag */
(PID.TID 0000.0001)                   T
(PID.TID 0000.0001)     ;
(PID.TID 0000.0001) tempImplVertAdv = /* Temp. implicit vert. advection on/off */
(PID.TID 0000.0001)                   F
(PID.TID 0000.0001)     ;
(PID.TID 0000.0001) tempForcing  =  /* Temperature forcing on/off flag */
(PID.TID 0000.0001)                   T
(PID.TID 0000.0001)     ;
(PID.TID 0000.0001) doThetaClimRelax = /* apply SST relaxation on/off flag */
(PID.TID 0000.0001)                   F
(PID.TID 0000.0001)     ;
(PID.TID 0000.0001) tempIsActiveTr = /* Temp. is a dynamically Active Tracer */
(PID.TID 0000.0001)                   T
(PID.TID 0000.0001)     ;
(PID.TID 0000.0001) saltStepping =  /* Salinity equation on/off flag */
(PID.TID 0000.0001)                   T
(PID.TID 0000.0001)     ;
(PID.TID 0000.0001) saltAdvection = /* Salinity advection on/off flag */
(PID.TID 0000.0001)                   T
(PID.TID 0000.0001)     ;
(PID.TID 0000.0001) saltImplVertAdv = /* Sali. implicit vert. advection on/off */
(PID.TID 0000.0001)                   F
(PID.TID 0000.0001)     ;
(PID.TID 0000.0001) saltForcing  =  /* Salinity forcing on/off flag */
(PID.TID 0000.0001)                   T
(PID.TID 0000.0001)     ;
(PID.TID 0000.0001) doSaltClimRelax = /* apply SSS relaxation on/off flag */
(PID.TID 0000.0001)                   F
(PID.TID 0000.0001)     ;
(PID.TID 0000.0001) saltIsActiveTr = /* Salt  is a dynamically Active Tracer */
(PID.TID 0000.0001)                   T
(PID.TID 0000.0001)     ;
(PID.TID 0000.0001)  readBinaryPrec = /* Precision used for reading binary files */
(PID.TID 0000.0001)                      64
(PID.TID 0000.0001)     ;
(PID.TID 0000.0001) writeBinaryPrec = /* Precision used for writing binary files */
(PID.TID 0000.0001)                      32
(PID.TID 0000.0001)     ;
(PID.TID 0000.0001)  rwSuffixType =   /* select format of mds file suffix */
(PID.TID 0000.0001)                       0
(PID.TID 0000.0001)    = 0 : myIter (I10.10) ;   = 1 : 100*myTime (100th sec) ;
(PID.TID 0000.0001)    = 2 : myTime (seconds);   = 3 : myTime/360 (10th of hr);
(PID.TID 0000.0001)    = 4 : myTime/3600 (hours)
(PID.TID 0000.0001)     ;
(PID.TID 0000.0001)  globalFiles = /* write "global" (=not per tile) files */
(PID.TID 0000.0001)                   F
(PID.TID 0000.0001)     ;
(PID.TID 0000.0001)  useSingleCpuIO = /* only master MPI process does I/O */
(PID.TID 0000.0001)                   F
(PID.TID 0000.0001)     ;
(PID.TID 0000.0001)  useSingleCpuInput = /* only master process reads input */
(PID.TID 0000.0001)                   F
(PID.TID 0000.0001)     ;
(PID.TID 0000.0001) /* debLev[*]  : level of debug & auxiliary message printing */
(PID.TID 0000.0001) debLevZero =  0 ; /* level of disabled aux. msg printing */
(PID.TID 0000.0001)    debLevA =  1 ; /* level of minimum  aux. msg printing */
(PID.TID 0000.0001)    debLevB =  2 ; /* level of low aux. print (report read-file opening)*/
(PID.TID 0000.0001)    debLevC =  3 ; /* level of moderate debug prt (most pkgs debug msg) */
(PID.TID 0000.0001)    debLevD =  4 ; /* level of enhanced debug prt (add DEBUG_STATS prt) */
(PID.TID 0000.0001)    debLevE =  5 ; /* level of extensive debug printing */
(PID.TID 0000.0001) debugLevel =  /* select debug printing level */
(PID.TID 0000.0001)                       2
(PID.TID 0000.0001)     ;
(PID.TID 0000.0001)  plotLevel =  /* select PLOT_FIELD printing level */
(PID.TID 0000.0001)                       2
(PID.TID 0000.0001)     ;
(PID.TID 0000.0001) //
(PID.TID 0000.0001) // Elliptic solver(s) paramters ( PARM02 in namelist )
(PID.TID 0000.0001) //
(PID.TID 0000.0001) cg2dMaxIters =   /* Upper limit on 2d con. grad iterations  */
(PID.TID 0000.0001)                    1000
(PID.TID 0000.0001)     ;
(PID.TID 0000.0001) cg2dChkResFreq =   /* 2d con. grad convergence test frequency */
(PID.TID 0000.0001)                       1
(PID.TID 0000.0001)     ;
(PID.TID 0000.0001) cg2dUseMinResSol= /* use cg2d last-iter(=0) / min-resid.(=1) solution */
(PID.TID 0000.0001)                       0
(PID.TID 0000.0001)     ;
(PID.TID 0000.0001) cg2dTargetResidual =   /* 2d con. grad target residual  */
(PID.TID 0000.0001)                 1.000000000000000E-13
(PID.TID 0000.0001)     ;
(PID.TID 0000.0001) cg2dTargetResWunit =   /* CG2d target residual [W units] */
(PID.TID 0000.0001)                -1.000000000000000E+00
(PID.TID 0000.0001)     ;
(PID.TID 0000.0001) cg2dPreCondFreq =   /* Freq. for updating cg2d preconditioner */
(PID.TID 0000.0001)                       1
(PID.TID 0000.0001)     ;
(PID.TID 0000.0001) useSRCGSolver =  /* use single reduction CG solver(s) */
(PID.TID 0000.0001)                   F
(PID.TID 0000.0001)     ;
(PID.TID 0000.0001) printResidualFreq = /* Freq. for printing CG residual */
(PID.TID 0000.0001)                       0
(PID.TID 0000.0001)     ;
(PID.TID 0000.0001) //
(PID.TID 0000.0001) // Time stepping paramters ( PARM03 in namelist )
(PID.TID 0000.0001) //
(PID.TID 0000.0001) deltaTMom =   /* Momentum equation timestep ( s ) */
(PID.TID 0000.0001)                 1.800000000000000E+03
(PID.TID 0000.0001)     ;
(PID.TID 0000.0001) deltaTFreeSurf = /* FreeSurface equation timestep ( s ) */
(PID.TID 0000.0001)                 1.800000000000000E+03
(PID.TID 0000.0001)     ;
(PID.TID 0000.0001) dTtracerLev =  /* Tracer equation timestep ( s ) */
(PID.TID 0000.0001)    30 @  1.800000000000000E+03              /* K =  1: 30 */
(PID.TID 0000.0001)     ;
(PID.TID 0000.0001) deltaTClock  =   /* Model clock timestep ( s ) */
(PID.TID 0000.0001)                 1.800000000000000E+03
(PID.TID 0000.0001)     ;
(PID.TID 0000.0001) cAdjFreq =   /* Convective adjustment interval ( s ) */
(PID.TID 0000.0001)                 1.800000000000000E+03
(PID.TID 0000.0001)     ;
(PID.TID 0000.0001) momForcingOutAB = /* =1: take Momentum Forcing out of Adams-Bash. stepping */
(PID.TID 0000.0001)                       0
(PID.TID 0000.0001)     ;
(PID.TID 0000.0001) tracForcingOutAB = /* =1: take T,S,pTr Forcing out of Adams-Bash. stepping */
(PID.TID 0000.0001)                       0
(PID.TID 0000.0001)     ;
(PID.TID 0000.0001) momDissip_In_AB = /* put Dissipation Tendency in Adams-Bash. stepping */
(PID.TID 0000.0001)                   T
(PID.TID 0000.0001)     ;
(PID.TID 0000.0001) doAB_onGtGs = /* apply AB on Tendencies (rather than on T,S)*/
(PID.TID 0000.0001)                   T
(PID.TID 0000.0001)     ;
(PID.TID 0000.0001) abEps =   /* Adams-Bashforth-2 stabilizing weight */
(PID.TID 0000.0001)                 1.000000000000000E-01
(PID.TID 0000.0001)     ;
(PID.TID 0000.0001) applyExchUV_early = /* Apply EXCH to U,V earlier in time-step */
(PID.TID 0000.0001)                   F
(PID.TID 0000.0001)     ;
(PID.TID 0000.0001) tauCD =   /* CD coupling time-scale ( s ) */
(PID.TID 0000.0001)                 4.000000000000000E+05
(PID.TID 0000.0001)     ;
(PID.TID 0000.0001) rCD =   /* Normalised CD coupling parameter */
(PID.TID 0000.0001)                 9.955000000000001E-01
(PID.TID 0000.0001)     ;
(PID.TID 0000.0001) epsAB_CD = /* AB-2 stabilizing weight for CD-scheme*/
(PID.TID 0000.0001)                 1.000000000000000E-01
(PID.TID 0000.0001)     ;
(PID.TID 0000.0001) pickupStrictlyMatch= /* stop if pickup do not strictly match */
(PID.TID 0000.0001)                   T
(PID.TID 0000.0001)     ;
(PID.TID 0000.0001) nIter0   =   /* Run starting timestep number */
(PID.TID 0000.0001)                       0
(PID.TID 0000.0001)     ;
(PID.TID 0000.0001) nTimeSteps = /* Number of timesteps */
(PID.TID 0000.0001)                      20
(PID.TID 0000.0001)     ;
(PID.TID 0000.0001) nEndIter =   /* Run ending timestep number */
(PID.TID 0000.0001)                      20
(PID.TID 0000.0001)     ;
(PID.TID 0000.0001) baseTime =   /* Model base time ( s ) */
(PID.TID 0000.0001)                 0.000000000000000E+00
(PID.TID 0000.0001)     ;
(PID.TID 0000.0001) startTime =  /* Run start time ( s ) */
(PID.TID 0000.0001)                 0.000000000000000E+00
(PID.TID 0000.0001)     ;
(PID.TID 0000.0001) endTime  =   /* Integration ending time ( s ) */
(PID.TID 0000.0001)                 3.600000000000000E+04
(PID.TID 0000.0001)     ;
(PID.TID 0000.0001) pChkPtFreq = /* Permanent restart/pickup file interval ( s ) */
(PID.TID 0000.0001)                 0.000000000000000E+00
(PID.TID 0000.0001)     ;
(PID.TID 0000.0001) chkPtFreq  = /* Rolling restart/pickup file interval ( s ) */
(PID.TID 0000.0001)                 0.000000000000000E+00
(PID.TID 0000.0001)     ;
(PID.TID 0000.0001) pickup_write_mdsio =   /* Model IO flag. */
(PID.TID 0000.0001)                   T
(PID.TID 0000.0001)     ;
(PID.TID 0000.0001) pickup_read_mdsio =   /* Model IO flag. */
(PID.TID 0000.0001)                   T
(PID.TID 0000.0001)     ;
(PID.TID 0000.0001) pickup_write_mnc =   /* Model IO flag. */
(PID.TID 0000.0001)                   F
(PID.TID 0000.0001)     ;
(PID.TID 0000.0001) pickup_read_mnc =   /* Model IO flag. */
(PID.TID 0000.0001)                   F
(PID.TID 0000.0001)     ;
(PID.TID 0000.0001) writePickupAtEnd =   /* Model IO flag. */
(PID.TID 0000.0001)                   T
(PID.TID 0000.0001)     ;
(PID.TID 0000.0001) dumpFreq =   /* Model state write out interval ( s ). */
(PID.TID 0000.0001)                 0.000000000000000E+00
(PID.TID 0000.0001)     ;
(PID.TID 0000.0001) dumpInitAndLast= /* write out Initial & Last iter. model state */
(PID.TID 0000.0001)                   T
(PID.TID 0000.0001)     ;
(PID.TID 0000.0001) snapshot_mdsio =   /* Model IO flag. */
(PID.TID 0000.0001)                   T
(PID.TID 0000.0001)     ;
(PID.TID 0000.0001) snapshot_mnc =   /* Model IO flag. */
(PID.TID 0000.0001)                   F
(PID.TID 0000.0001)     ;
(PID.TID 0000.0001) monitorFreq =   /* Monitor output interval ( s ). */
(PID.TID 0000.0001)                 1.000000000000000E+00
(PID.TID 0000.0001)     ;
(PID.TID 0000.0001) monitorSelect = /* select group of variables to monitor */
(PID.TID 0000.0001)                       2
(PID.TID 0000.0001)     ;
(PID.TID 0000.0001) monitor_stdio =   /* Model IO flag. */
(PID.TID 0000.0001)                   T
(PID.TID 0000.0001)     ;
(PID.TID 0000.0001) monitor_mnc =   /* Model IO flag. */
(PID.TID 0000.0001)                   F
(PID.TID 0000.0001)     ;
(PID.TID 0000.0001) externForcingPeriod =   /* forcing period (s) */
(PID.TID 0000.0001)                 0.000000000000000E+00
(PID.TID 0000.0001)     ;
(PID.TID 0000.0001) externForcingCycle =   /* period of the cyle (s). */
(PID.TID 0000.0001)                 0.000000000000000E+00
(PID.TID 0000.0001)     ;
(PID.TID 0000.0001) tauThetaClimRelax =   /* relaxation time scale (s) */
(PID.TID 0000.0001)                 0.000000000000000E+00
(PID.TID 0000.0001)     ;
(PID.TID 0000.0001) tauSaltClimRelax =   /* relaxation time scale (s) */
(PID.TID 0000.0001)                 0.000000000000000E+00
(PID.TID 0000.0001)     ;
(PID.TID 0000.0001) latBandClimRelax =   /* max. Lat. where relaxation */
(PID.TID 0000.0001)                 1.800000000000000E+02
(PID.TID 0000.0001)     ;
(PID.TID 0000.0001) //
(PID.TID 0000.0001) // Gridding paramters ( PARM04 in namelist )
(PID.TID 0000.0001) //
(PID.TID 0000.0001) usingCartesianGrid = /* Cartesian coordinates flag ( True/False ) */
(PID.TID 0000.0001)                   F
(PID.TID 0000.0001)     ;
(PID.TID 0000.0001) usingCylindricalGrid = /* Cylindrical coordinates flag ( True/False ) */
(PID.TID 0000.0001)                   F
(PID.TID 0000.0001)     ;
(PID.TID 0000.0001) usingSphericalPolarGrid = /* Spherical coordinates flag ( True/False ) */
(PID.TID 0000.0001)                   T
(PID.TID 0000.0001)     ;
(PID.TID 0000.0001) usingCurvilinearGrid = /* Curvilinear coordinates flag ( True/False ) */
(PID.TID 0000.0001)                   F
(PID.TID 0000.0001)     ;
(PID.TID 0000.0001) useMin4hFacEdges = /* set hFacW,S as minimum of adjacent hFacC factor */
(PID.TID 0000.0001)                   F
(PID.TID 0000.0001)     ;
(PID.TID 0000.0001) interViscAr_pCell = /* account for partial-cell in interior vert. viscosity */
(PID.TID 0000.0001)                   F
(PID.TID 0000.0001)     ;
(PID.TID 0000.0001) interDiffKr_pCell = /* account for partial-cell in interior vert. diffusion */
(PID.TID 0000.0001)                   F
(PID.TID 0000.0001)     ;
(PID.TID 0000.0001) pCellMix_select = /* option to enhance mixing near surface & bottom */
(PID.TID 0000.0001)                       0
(PID.TID 0000.0001)     ;
(PID.TID 0000.0001) selectSigmaCoord = /* Hybrid-Sigma Vert. Coordinate option */
(PID.TID 0000.0001)                       0
(PID.TID 0000.0001)     ;
(PID.TID 0000.0001) rSigmaBnd = /* r/sigma transition ( units of r ==  m ) */
(PID.TID 0000.0001)                 1.234567000000000E+05
(PID.TID 0000.0001)     ;
(PID.TID 0000.0001) rkSign =   /* index orientation relative to vertical coordinate */
(PID.TID 0000.0001)                -1.000000000000000E+00
(PID.TID 0000.0001)     ;
(PID.TID 0000.0001) gravitySign = /* gravity orientation relative to vertical coordinate */
(PID.TID 0000.0001)                -1.000000000000000E+00
(PID.TID 0000.0001)     ;
(PID.TID 0000.0001) seaLev_Z =  /* reference height of sea-level [m] */
(PID.TID 0000.0001)                 0.000000000000000E+00
(PID.TID 0000.0001)     ;
(PID.TID 0000.0001) top_Pres =  /* reference pressure at the top [Pa] */
(PID.TID 0000.0001)                 0.000000000000000E+00
(PID.TID 0000.0001)     ;
(PID.TID 0000.0001) mass2rUnit = /* convert mass per unit area [kg/m2] to r-units [m] */
(PID.TID 0000.0001)                 9.708737864077669E-04
(PID.TID 0000.0001)     ;
(PID.TID 0000.0001) rUnit2mass = /* convert r-units [m] to mass per unit area [kg/m2] */
(PID.TID 0000.0001)                 1.030000000000000E+03
(PID.TID 0000.0001)     ;
(PID.TID 0000.0001) drC =   /* C spacing ( units of r ) */
(PID.TID 0000.0001)                 1.500000000000000E+01,      /* K =  1 */
(PID.TID 0000.0001)    29 @  3.000000000000000E+01,             /* K =  2: 30 */
(PID.TID 0000.0001)                 1.500000000000000E+01       /* K = 31 */
(PID.TID 0000.0001)     ;
(PID.TID 0000.0001) drF =   /* W spacing ( units of r ) */
(PID.TID 0000.0001)    30 @  3.000000000000000E+01              /* K =  1: 30 */
(PID.TID 0000.0001)     ;
(PID.TID 0000.0001) delX = /* U spacing ( m - cartesian, degrees - spherical ) */
(PID.TID 0000.0001)    50 @  3.000000000000000E-01              /* I =  1: 50 */
(PID.TID 0000.0001)     ;
(PID.TID 0000.0001) delY = /* V spacing ( m - cartesian, degrees - spherical ) */
(PID.TID 0000.0001)   100 @  1.000000000000000E-01              /* J =  1:100 */
(PID.TID 0000.0001)     ;
(PID.TID 0000.0001) xgOrigin = /* X-axis origin of West  edge (cartesian: m, lat-lon: deg) */
(PID.TID 0000.0001)                 0.000000000000000E+00
(PID.TID 0000.0001)     ;
(PID.TID 0000.0001) ygOrigin = /* Y-axis origin of South edge (cartesian: m, lat-lon: deg) */
(PID.TID 0000.0001)                -8.000000000000000E+01
(PID.TID 0000.0001)     ;
(PID.TID 0000.0001) rSphere =  /* Radius ( ignored - cartesian, m - spherical ) */
(PID.TID 0000.0001)                 6.370000000000000E+06
(PID.TID 0000.0001)     ;
(PID.TID 0000.0001) deepAtmosphere = /* Deep/Shallow Atmosphere flag (True/False) */
(PID.TID 0000.0001)                   F
(PID.TID 0000.0001)     ;
(PID.TID 0000.0001) xC =  /* xC(:,1,:,1) : P-point X coord ( deg. or m if cartesian) */
(PID.TID 0000.0001)                 1.500000000000001E-01,      /* I =  1 */
(PID.TID 0000.0001)                 4.500000000000001E-01,      /* I =  2 */
(PID.TID 0000.0001)                 7.500000000000002E-01,      /* I =  3 */
(PID.TID 0000.0001)                 1.050000000000000E+00,      /* I =  4 */
(PID.TID 0000.0001)                 1.350000000000000E+00,      /* I =  5 */
(PID.TID 0000.0001)                 1.650000000000000E+00,      /* I =  6 */
(PID.TID 0000.0001)                 1.950000000000000E+00,      /* I =  7 */
(PID.TID 0000.0001)                 2.250000000000000E+00,      /* I =  8 */
(PID.TID 0000.0001)                 2.550000000000000E+00,      /* I =  9 */
(PID.TID 0000.0001)                 2.850000000000000E+00,      /* I = 10 */
(PID.TID 0000.0001)                 3.149999999999999E+00,      /* I = 11 */
(PID.TID 0000.0001)                 3.449999999999999E+00,      /* I = 12 */
(PID.TID 0000.0001)                 3.749999999999999E+00,      /* I = 13 */
(PID.TID 0000.0001)                 4.049999999999999E+00,      /* I = 14 */
(PID.TID 0000.0001)                 4.350000000000000E+00,      /* I = 15 */
(PID.TID 0000.0001)                 4.649999999999999E+00,      /* I = 16 */
(PID.TID 0000.0001)                 4.949999999999999E+00,      /* I = 17 */
(PID.TID 0000.0001)                 5.249999999999998E+00,      /* I = 18 */
(PID.TID 0000.0001)                 5.549999999999999E+00,      /* I = 19 */
(PID.TID 0000.0001)                 5.849999999999998E+00,      /* I = 20 */
(PID.TID 0000.0001)                 6.149999999999999E+00,      /* I = 21 */
(PID.TID 0000.0001)                 6.449999999999998E+00,      /* I = 22 */
(PID.TID 0000.0001)                 6.749999999999998E+00,      /* I = 23 */
(PID.TID 0000.0001)                 7.049999999999997E+00,      /* I = 24 */
(PID.TID 0000.0001)                 7.349999999999997E+00,      /* I = 25 */
(PID.TID 0000.0001)                 7.649999999999997E+00,      /* I = 26 */
(PID.TID 0000.0001)                 7.949999999999998E+00,      /* I = 27 */
(PID.TID 0000.0001)                 8.249999999999998E+00,      /* I = 28 */
(PID.TID 0000.0001)                 8.549999999999999E+00,      /* I = 29 */
(PID.TID 0000.0001)                 8.850000000000000E+00,      /* I = 30 */
(PID.TID 0000.0001)                 9.150000000000000E+00,      /* I = 31 */
(PID.TID 0000.0001)                 9.450000000000001E+00,      /* I = 32 */
(PID.TID 0000.0001)                 9.750000000000002E+00,      /* I = 33 */
(PID.TID 0000.0001)                 1.005000000000000E+01,      /* I = 34 */
(PID.TID 0000.0001)                 1.035000000000000E+01,      /* I = 35 */
(PID.TID 0000.0001)                 1.065000000000000E+01,      /* I = 36 */
(PID.TID 0000.0001)                 1.095000000000001E+01,      /* I = 37 */
(PID.TID 0000.0001)                 1.125000000000001E+01,      /* I = 38 */
(PID.TID 0000.0001)                 1.155000000000000E+01,      /* I = 39 */
(PID.TID 0000.0001)                 1.185000000000001E+01,      /* I = 40 */
(PID.TID 0000.0001)                 1.215000000000001E+01,      /* I = 41 */
(PID.TID 0000.0001)                 1.245000000000001E+01,      /* I = 42 */
(PID.TID 0000.0001)                 1.275000000000001E+01,      /* I = 43 */
(PID.TID 0000.0001)                 1.305000000000001E+01,      /* I = 44 */
(PID.TID 0000.0001)                 1.335000000000001E+01,      /* I = 45 */
(PID.TID 0000.0001)                 1.365000000000001E+01,      /* I = 46 */
(PID.TID 0000.0001)                 1.395000000000001E+01,      /* I = 47 */
(PID.TID 0000.0001)                 1.425000000000001E+01,      /* I = 48 */
(PID.TID 0000.0001)                 1.455000000000001E+01,      /* I = 49 */
(PID.TID 0000.0001)                 1.485000000000001E+01       /* I = 50 */
(PID.TID 0000.0001)     ;
(PID.TID 0000.0001) yC =  /* yC(1,:,1,:) : P-point Y coord ( deg. or m if cartesian) */
(PID.TID 0000.0001)                -7.995000000000000E+01,      /* J =  1 */
(PID.TID 0000.0001)                -7.985000000000001E+01,      /* J =  2 */
(PID.TID 0000.0001)                -7.975000000000001E+01,      /* J =  3 */
(PID.TID 0000.0001)      . . .
(PID.TID 0000.0001)                -7.775000000000013E+01,      /* J = 23 */
(PID.TID 0000.0001)                -7.765000000000013E+01,      /* J = 24 */
(PID.TID 0000.0001)                -7.755000000000014E+01,      /* J = 25 */
(PID.TID 0000.0001)                -7.745000000000014E+01,      /* J = 26 */
(PID.TID 0000.0001)                -7.735000000000015E+01,      /* J = 27 */
(PID.TID 0000.0001)                -7.725000000000016E+01,      /* J = 28 */
(PID.TID 0000.0001)      . . .
(PID.TID 0000.0001)                -7.525000000000027E+01,      /* J = 48 */
(PID.TID 0000.0001)                -7.515000000000028E+01,      /* J = 49 */
(PID.TID 0000.0001)                -7.505000000000028E+01,      /* J = 50 */
(PID.TID 0000.0001)                -7.495000000000029E+01,      /* J = 51 */
(PID.TID 0000.0001)                -7.485000000000029E+01,      /* J = 52 */
(PID.TID 0000.0001)                -7.475000000000030E+01,      /* J = 53 */
(PID.TID 0000.0001)      . . .
(PID.TID 0000.0001)                -7.275000000000041E+01,      /* J = 73 */
(PID.TID 0000.0001)                -7.265000000000042E+01,      /* J = 74 */
(PID.TID 0000.0001)                -7.255000000000042E+01,      /* J = 75 */
(PID.TID 0000.0001)                -7.245000000000043E+01,      /* J = 76 */
(PID.TID 0000.0001)                -7.235000000000043E+01,      /* J = 77 */
(PID.TID 0000.0001)                -7.225000000000044E+01,      /* J = 78 */
(PID.TID 0000.0001)      . . .
(PID.TID 0000.0001)                -7.025000000000055E+01,      /* J = 98 */
(PID.TID 0000.0001)                -7.015000000000056E+01,      /* J = 99 */
(PID.TID 0000.0001)                -7.005000000000057E+01       /* J =100 */
(PID.TID 0000.0001)     ;
(PID.TID 0000.0001) rcoord = /* P-point R coordinate (  units of r ) */
(PID.TID 0000.0001)                -1.500000000000000E+01,      /* K =  1 */
(PID.TID 0000.0001)                -4.500000000000000E+01,      /* K =  2 */
(PID.TID 0000.0001)                -7.500000000000000E+01,      /* K =  3 */
(PID.TID 0000.0001)                -1.050000000000000E+02,      /* K =  4 */
(PID.TID 0000.0001)                -1.350000000000000E+02,      /* K =  5 */
(PID.TID 0000.0001)                -1.650000000000000E+02,      /* K =  6 */
(PID.TID 0000.0001)                -1.950000000000000E+02,      /* K =  7 */
(PID.TID 0000.0001)                -2.250000000000000E+02,      /* K =  8 */
(PID.TID 0000.0001)                -2.550000000000000E+02,      /* K =  9 */
(PID.TID 0000.0001)                -2.850000000000000E+02,      /* K = 10 */
(PID.TID 0000.0001)                -3.150000000000000E+02,      /* K = 11 */
(PID.TID 0000.0001)                -3.450000000000000E+02,      /* K = 12 */
(PID.TID 0000.0001)                -3.750000000000000E+02,      /* K = 13 */
(PID.TID 0000.0001)                -4.050000000000000E+02,      /* K = 14 */
(PID.TID 0000.0001)                -4.350000000000000E+02,      /* K = 15 */
(PID.TID 0000.0001)                -4.650000000000000E+02,      /* K = 16 */
(PID.TID 0000.0001)                -4.950000000000000E+02,      /* K = 17 */
(PID.TID 0000.0001)                -5.250000000000000E+02,      /* K = 18 */
(PID.TID 0000.0001)                -5.550000000000000E+02,      /* K = 19 */
(PID.TID 0000.0001)                -5.850000000000000E+02,      /* K = 20 */
(PID.TID 0000.0001)                -6.150000000000000E+02,      /* K = 21 */
(PID.TID 0000.0001)                -6.450000000000000E+02,      /* K = 22 */
(PID.TID 0000.0001)                -6.750000000000000E+02,      /* K = 23 */
(PID.TID 0000.0001)                -7.050000000000000E+02,      /* K = 24 */
(PID.TID 0000.0001)                -7.350000000000000E+02,      /* K = 25 */
(PID.TID 0000.0001)                -7.650000000000000E+02,      /* K = 26 */
(PID.TID 0000.0001)                -7.950000000000000E+02,      /* K = 27 */
(PID.TID 0000.0001)                -8.250000000000000E+02,      /* K = 28 */
(PID.TID 0000.0001)                -8.550000000000000E+02,      /* K = 29 */
(PID.TID 0000.0001)                -8.850000000000000E+02       /* K = 30 */
(PID.TID 0000.0001)     ;
(PID.TID 0000.0001) rF =   /* W-Interf. R coordinate (  units of r ) */
(PID.TID 0000.0001)                 0.000000000000000E+00,      /* K =  1 */
(PID.TID 0000.0001)                -3.000000000000000E+01,      /* K =  2 */
(PID.TID 0000.0001)                -6.000000000000000E+01,      /* K =  3 */
(PID.TID 0000.0001)                -9.000000000000000E+01,      /* K =  4 */
(PID.TID 0000.0001)                -1.200000000000000E+02,      /* K =  5 */
(PID.TID 0000.0001)                -1.500000000000000E+02,      /* K =  6 */
(PID.TID 0000.0001)                -1.800000000000000E+02,      /* K =  7 */
(PID.TID 0000.0001)                -2.100000000000000E+02,      /* K =  8 */
(PID.TID 0000.0001)                -2.400000000000000E+02,      /* K =  9 */
(PID.TID 0000.0001)                -2.700000000000000E+02,      /* K = 10 */
(PID.TID 0000.0001)                -3.000000000000000E+02,      /* K = 11 */
(PID.TID 0000.0001)                -3.300000000000000E+02,      /* K = 12 */
(PID.TID 0000.0001)                -3.600000000000000E+02,      /* K = 13 */
(PID.TID 0000.0001)                -3.900000000000000E+02,      /* K = 14 */
(PID.TID 0000.0001)                -4.200000000000000E+02,      /* K = 15 */
(PID.TID 0000.0001)                -4.500000000000000E+02,      /* K = 16 */
(PID.TID 0000.0001)                -4.800000000000000E+02,      /* K = 17 */
(PID.TID 0000.0001)                -5.100000000000000E+02,      /* K = 18 */
(PID.TID 0000.0001)                -5.400000000000000E+02,      /* K = 19 */
(PID.TID 0000.0001)                -5.700000000000000E+02,      /* K = 20 */
(PID.TID 0000.0001)                -6.000000000000000E+02,      /* K = 21 */
(PID.TID 0000.0001)                -6.300000000000000E+02,      /* K = 22 */
(PID.TID 0000.0001)                -6.600000000000000E+02,      /* K = 23 */
(PID.TID 0000.0001)                -6.900000000000000E+02,      /* K = 24 */
(PID.TID 0000.0001)                -7.200000000000000E+02,      /* K = 25 */
(PID.TID 0000.0001)                -7.500000000000000E+02,      /* K = 26 */
(PID.TID 0000.0001)                -7.800000000000000E+02,      /* K = 27 */
(PID.TID 0000.0001)                -8.100000000000000E+02,      /* K = 28 */
(PID.TID 0000.0001)                -8.400000000000000E+02,      /* K = 29 */
(PID.TID 0000.0001)                -8.700000000000000E+02,      /* K = 30 */
(PID.TID 0000.0001)                -9.000000000000000E+02       /* K = 31 */
(PID.TID 0000.0001)     ;
(PID.TID 0000.0001) deepFacC = /* deep-model grid factor @ cell-Center (-) */
(PID.TID 0000.0001)    30 @  1.000000000000000E+00              /* K =  1: 30 */
(PID.TID 0000.0001)     ;
(PID.TID 0000.0001) deepFacF = /* deep-model grid factor @ W-Interface (-) */
(PID.TID 0000.0001)    31 @  1.000000000000000E+00              /* K =  1: 31 */
(PID.TID 0000.0001)     ;
(PID.TID 0000.0001) rVel2wUnit = /* convert units: rVel -> wSpeed (=1 if z-coord)*/
(PID.TID 0000.0001)    31 @  1.000000000000000E+00              /* K =  1: 31 */
(PID.TID 0000.0001)     ;
(PID.TID 0000.0001) wUnit2rVel = /* convert units: wSpeed -> rVel (=1 if z-coord)*/
(PID.TID 0000.0001)    31 @  1.000000000000000E+00              /* K =  1: 31 */
(PID.TID 0000.0001)     ;
(PID.TID 0000.0001) dBdrRef = /* Vertical grad. of reference buoyancy [(m/s/r)^2] */
(PID.TID 0000.0001)    30 @  0.000000000000000E+00              /* K =  1: 30 */
(PID.TID 0000.0001)     ;
(PID.TID 0000.0001) rotateGrid = /* use rotated grid ( True/False ) */
(PID.TID 0000.0001)                   F
(PID.TID 0000.0001)     ;
(PID.TID 0000.0001) phiEuler = /* Euler angle, rotation about original z-coordinate [rad] */
(PID.TID 0000.0001)                 0.000000000000000E+00
(PID.TID 0000.0001)     ;
(PID.TID 0000.0001) thetaEuler = /* Euler angle, rotation about new x-coordinate [rad] */
(PID.TID 0000.0001)                 0.000000000000000E+00
(PID.TID 0000.0001)     ;
(PID.TID 0000.0001) psiEuler = /* Euler angle, rotation about new z-coordinate [rad] */
(PID.TID 0000.0001)                 0.000000000000000E+00
(PID.TID 0000.0001)     ;
(PID.TID 0000.0001) dxF =  /* dxF(:,1,:,1) ( units: m ) */
(PID.TID 0000.0001)    50 @  5.820391490558872E+03              /* I =  1: 50 */
(PID.TID 0000.0001)     ;
(PID.TID 0000.0001) dxF =  /* dxF(1,:,1,:) ( units: m ) */
(PID.TID 0000.0001)                 5.820391490558872E+03,      /* J =  1 */
(PID.TID 0000.0001)                 5.877701765291692E+03,      /* J =  2 */
(PID.TID 0000.0001)                 5.934994135525598E+03,      /* J =  3 */
(PID.TID 0000.0001)      . . .
(PID.TID 0000.0001)                 7.076813247621209E+03,      /* J = 23 */
(PID.TID 0000.0001)                 7.133689397375063E+03,      /* J = 24 */
(PID.TID 0000.0001)                 7.190543816673855E+03,      /* J = 25 */
(PID.TID 0000.0001)                 7.247376332329164E+03,      /* J = 26 */
(PID.TID 0000.0001)                 7.304186771219292E+03,      /* J = 27 */
(PID.TID 0000.0001)                 7.360974960289787E+03,      /* J = 28 */
(PID.TID 0000.0001)      . . .
(PID.TID 0000.0001)                 8.491800393599013E+03,      /* J = 48 */
(PID.TID 0000.0001)                 8.548081485571185E+03,      /* J = 49 */
(PID.TID 0000.0001)                 8.604336538604706E+03,      /* J = 50 */
(PID.TID 0000.0001)                 8.660565381336924E+03,      /* J = 51 */
(PID.TID 0000.0001)                 8.716767842485036E+03,      /* J = 52 */
(PID.TID 0000.0001)                 8.772943750846600E+03,      /* J = 53 */
(PID.TID 0000.0001)      . . .
(PID.TID 0000.0001)                 9.890622914885218E+03,      /* J = 73 */
(PID.TID 0000.0001)                 9.946201814818334E+03,      /* J = 74 */
(PID.TID 0000.0001)                 1.000175041689580E+04,      /* J = 75 */
(PID.TID 0000.0001)                 1.005726855190695E+04,      /* J = 76 */
(PID.TID 0000.0001)                 1.011275605073392E+04,      /* J = 77 */
(PID.TID 0000.0001)                 1.016821274435215E+04,      /* J = 78 */
(PID.TID 0000.0001)      . . .
(PID.TID 0000.0001)                 1.127061807330668E+04,      /* J = 98 */
(PID.TID 0000.0001)                 1.132538898360582E+04,      /* J = 99 */
(PID.TID 0000.0001)                 1.138012539480601E+04       /* J =100 */
(PID.TID 0000.0001)     ;
(PID.TID 0000.0001) dyF =  /* dyF(:,1,:,1) ( units: m ) */
(PID.TID 0000.0001)    50 @  1.111774733520388E+04              /* I =  1: 50 */
(PID.TID 0000.0001)     ;
(PID.TID 0000.0001) dyF =  /* dyF(1,:,1,:) ( units: m ) */
(PID.TID 0000.0001)   100 @  1.111774733520388E+04              /* J =  1:100 */
(PID.TID 0000.0001)     ;
(PID.TID 0000.0001) dxG =  /* dxG(:,1,:,1) ( units: m ) */
(PID.TID 0000.0001)    50 @  5.791729693558576E+03              /* I =  1: 50 */
(PID.TID 0000.0001)     ;
(PID.TID 0000.0001) dxG =  /* dxG(1,:,1,:) ( units: m ) */
(PID.TID 0000.0001)                 5.791729693558576E+03,      /* J =  1 */
(PID.TID 0000.0001)                 5.849048855077854E+03,      /* J =  2 */
(PID.TID 0000.0001)                 5.906350199379949E+03,      /* J =  3 */
(PID.TID 0000.0001)      . . .
(PID.TID 0000.0001)                 7.048367077963129E+03,      /* J = 23 */
(PID.TID 0000.0001)                 7.105254027978149E+03,      /* J = 24 */
(PID.TID 0000.0001)                 7.162119334157175E+03,      /* J = 25 */
(PID.TID 0000.0001)                 7.218962823278620E+03,      /* J = 26 */
(PID.TID 0000.0001)                 7.275784322187360E+03,      /* J = 27 */
(PID.TID 0000.0001)                 7.332583657795253E+03,      /* J = 28 */
(PID.TID 0000.0001)      . . .
(PID.TID 0000.0001)                 8.463650136583461E+03,      /* J = 48 */
(PID.TID 0000.0001)                 8.519944183739159E+03,      /* J = 49 */
(PID.TID 0000.0001)                 8.576212277667308E+03,      /* J = 50 */
(PID.TID 0000.0001)                 8.632454246965530E+03,      /* J = 51 */
(PID.TID 0000.0001)                 8.688669920311038E+03,      /* J = 52 */
(PID.TID 0000.0001)                 8.744859126461139E+03,      /* J = 53 */
(PID.TID 0000.0001)      . . .
(PID.TID 0000.0001)                 9.862822156126382E+03,      /* J = 73 */
(PID.TID 0000.0001)                 9.918416141504455E+03,      /* J = 74 */
(PID.TID 0000.0001)                 9.973979913666863E+03,      /* J = 75 */
(PID.TID 0000.0001)                 1.002951330335672E+04,      /* J = 76 */
(PID.TID 0000.0001)                 1.008501614140969E+04,      /* J = 77 */
(PID.TID 0000.0001)                 1.014048825875450E+04,      /* J = 78 */
(PID.TID 0000.0001)      . . .
(PID.TID 0000.0001)                 1.124321973312895E+04,      /* J = 98 */
(PID.TID 0000.0001)                 1.129800783041847E+04,      /* J = 99 */
(PID.TID 0000.0001)                 1.135276151201679E+04       /* J =100 */
(PID.TID 0000.0001)     ;
(PID.TID 0000.0001) dyG =  /* dyG(:,1,:,1) ( units: m ) */
(PID.TID 0000.0001)    50 @  1.111774733520388E+04              /* I =  1: 50 */
(PID.TID 0000.0001)     ;
(PID.TID 0000.0001) dyG =  /* dyG(1,:,1,:) ( units: m ) */
(PID.TID 0000.0001)   100 @  1.111774733520388E+04              /* J =  1:100 */
(PID.TID 0000.0001)     ;
(PID.TID 0000.0001) dxC =  /* dxC(:,1,:,1) ( units: m ) */
(PID.TID 0000.0001)    50 @  5.820391490558872E+03              /* I =  1: 50 */
(PID.TID 0000.0001)     ;
(PID.TID 0000.0001) dxC =  /* dxC(1,:,1,:) ( units: m ) */
(PID.TID 0000.0001)                 5.820391490558872E+03,      /* J =  1 */
(PID.TID 0000.0001)                 5.877701765291692E+03,      /* J =  2 */
(PID.TID 0000.0001)                 5.934994135525598E+03,      /* J =  3 */
(PID.TID 0000.0001)      . . .
(PID.TID 0000.0001)                 7.076813247621209E+03,      /* J = 23 */
(PID.TID 0000.0001)                 7.133689397375063E+03,      /* J = 24 */
(PID.TID 0000.0001)                 7.190543816673855E+03,      /* J = 25 */
(PID.TID 0000.0001)                 7.247376332329164E+03,      /* J = 26 */
(PID.TID 0000.0001)                 7.304186771219292E+03,      /* J = 27 */
(PID.TID 0000.0001)                 7.360974960289787E+03,      /* J = 28 */
(PID.TID 0000.0001)      . . .
(PID.TID 0000.0001)                 8.491800393599013E+03,      /* J = 48 */
(PID.TID 0000.0001)                 8.548081485571185E+03,      /* J = 49 */
(PID.TID 0000.0001)                 8.604336538604706E+03,      /* J = 50 */
(PID.TID 0000.0001)                 8.660565381336924E+03,      /* J = 51 */
(PID.TID 0000.0001)                 8.716767842485036E+03,      /* J = 52 */
(PID.TID 0000.0001)                 8.772943750846600E+03,      /* J = 53 */
(PID.TID 0000.0001)      . . .
(PID.TID 0000.0001)                 9.890622914885218E+03,      /* J = 73 */
(PID.TID 0000.0001)                 9.946201814818334E+03,      /* J = 74 */
(PID.TID 0000.0001)                 1.000175041689580E+04,      /* J = 75 */
(PID.TID 0000.0001)                 1.005726855190695E+04,      /* J = 76 */
(PID.TID 0000.0001)                 1.011275605073392E+04,      /* J = 77 */
(PID.TID 0000.0001)                 1.016821274435215E+04,      /* J = 78 */
(PID.TID 0000.0001)      . . .
(PID.TID 0000.0001)                 1.127061807330668E+04,      /* J = 98 */
(PID.TID 0000.0001)                 1.132538898360582E+04,      /* J = 99 */
(PID.TID 0000.0001)                 1.138012539480601E+04       /* J =100 */
(PID.TID 0000.0001)     ;
(PID.TID 0000.0001) dyC =  /* dyC(:,1,:,1) ( units: m ) */
(PID.TID 0000.0001)    50 @  1.111774733520388E+04              /* I =  1: 50 */
(PID.TID 0000.0001)     ;
(PID.TID 0000.0001) dyC =  /* dyC(1,:,1,:) ( units: m ) */
(PID.TID 0000.0001)   100 @  1.111774733520388E+04              /* J =  1:100 */
(PID.TID 0000.0001)     ;
(PID.TID 0000.0001) dxV =  /* dxV(:,1,:,1) ( units: m ) */
(PID.TID 0000.0001)    50 @  5.791729693558576E+03              /* I =  1: 50 */
(PID.TID 0000.0001)     ;
(PID.TID 0000.0001) dxV =  /* dxV(1,:,1,:) ( units: m ) */
(PID.TID 0000.0001)                 5.791729693558576E+03,      /* J =  1 */
(PID.TID 0000.0001)                 5.849048855077854E+03,      /* J =  2 */
(PID.TID 0000.0001)                 5.906350199379949E+03,      /* J =  3 */
(PID.TID 0000.0001)      . . .
(PID.TID 0000.0001)                 7.048367077963129E+03,      /* J = 23 */
(PID.TID 0000.0001)                 7.105254027978149E+03,      /* J = 24 */
(PID.TID 0000.0001)                 7.162119334157175E+03,      /* J = 25 */
(PID.TID 0000.0001)                 7.218962823278620E+03,      /* J = 26 */
(PID.TID 0000.0001)                 7.275784322187360E+03,      /* J = 27 */
(PID.TID 0000.0001)                 7.332583657795253E+03,      /* J = 28 */
(PID.TID 0000.0001)      . . .
(PID.TID 0000.0001)                 8.463650136583461E+03,      /* J = 48 */
(PID.TID 0000.0001)                 8.519944183739159E+03,      /* J = 49 */
(PID.TID 0000.0001)                 8.576212277667308E+03,      /* J = 50 */
(PID.TID 0000.0001)                 8.632454246965530E+03,      /* J = 51 */
(PID.TID 0000.0001)                 8.688669920311038E+03,      /* J = 52 */
(PID.TID 0000.0001)                 8.744859126461139E+03,      /* J = 53 */
(PID.TID 0000.0001)      . . .
(PID.TID 0000.0001)                 9.862822156126382E+03,      /* J = 73 */
(PID.TID 0000.0001)                 9.918416141504455E+03,      /* J = 74 */
(PID.TID 0000.0001)                 9.973979913666863E+03,      /* J = 75 */
(PID.TID 0000.0001)                 1.002951330335672E+04,      /* J = 76 */
(PID.TID 0000.0001)                 1.008501614140969E+04,      /* J = 77 */
(PID.TID 0000.0001)                 1.014048825875450E+04,      /* J = 78 */
(PID.TID 0000.0001)      . . .
(PID.TID 0000.0001)                 1.124321973312895E+04,      /* J = 98 */
(PID.TID 0000.0001)                 1.129800783041847E+04,      /* J = 99 */
(PID.TID 0000.0001)                 1.135276151201679E+04       /* J =100 */
(PID.TID 0000.0001)     ;
(PID.TID 0000.0001) dyU =  /* dyU(:,1,:,1) ( units: m ) */
(PID.TID 0000.0001)    50 @  1.111774733520388E+04              /* I =  1: 50 */
(PID.TID 0000.0001)     ;
(PID.TID 0000.0001) dyU =  /* dyU(1,:,1,:) ( units: m ) */
(PID.TID 0000.0001)   100 @  1.111774733520388E+04              /* J =  1:100 */
(PID.TID 0000.0001)     ;
(PID.TID 0000.0001) rA  =  /* rA (:,1,:,1) ( units: m^2 ) */
(PID.TID 0000.0001)    50 @  6.470963377080289E+07              /* I =  1: 50 */
(PID.TID 0000.0001)     ;
(PID.TID 0000.0001) rA  =  /* rA (1,:,1,:) ( units: m^2 ) */
(PID.TID 0000.0001)                 6.470963377080289E+07,      /* J =  1 */
(PID.TID 0000.0001)                 6.534679484410104E+07,      /* J =  2 */
(PID.TID 0000.0001)                 6.598375685977945E+07,      /* J =  3 */
(PID.TID 0000.0001)      . . .
(PID.TID 0000.0001)                 7.867821163932665E+07,      /* J = 23 */
(PID.TID 0000.0001)                 7.931054622142966E+07,      /* J = 24 */
(PID.TID 0000.0001)                 7.994263920984067E+07,      /* J = 25 */
(PID.TID 0000.0001)                 8.057448867913349E+07,      /* J = 26 */
(PID.TID 0000.0001)                 8.120609270456599E+07,      /* J = 27 */
(PID.TID 0000.0001)                 8.183744936212724E+07,      /* J = 28 */
(PID.TID 0000.0001)      . . .
(PID.TID 0000.0001)                 9.440967921416211E+07,      /* J = 48 */
(PID.TID 0000.0001)                 9.503539809503193E+07,      /* J = 49 */
(PID.TID 0000.0001)                 9.566082748163140E+07,      /* J = 50 */
(PID.TID 0000.0001)                 9.628596546870193E+07,      /* J = 51 */
(PID.TID 0000.0001)                 9.691081015209354E+07,      /* J = 52 */
(PID.TID 0000.0001)                 9.753535962826957E+07,      /* J = 53 */
(PID.TID 0000.0001)      . . .
(PID.TID 0000.0001)                 1.099614325987181E+08,      /* J = 73 */
(PID.TID 0000.0001)                 1.105793446869293E+08,      /* J = 74 */
(PID.TID 0000.0001)                 1.111969199312560E+08,      /* J = 75 */
(PID.TID 0000.0001)                 1.118141564504991E+08,      /* J = 76 */
(PID.TID 0000.0001)                 1.124310523644033E+08,      /* J = 77 */
(PID.TID 0000.0001)                 1.130476057938687E+08,      /* J = 78 */
(PID.TID 0000.0001)      . . .
(PID.TID 0000.0001)                 1.253038681465364E+08,      /* J = 98 */
(PID.TID 0000.0001)                 1.259127972112936E+08,      /* J = 99 */
(PID.TID 0000.0001)                 1.265213427237870E+08       /* J =100 */
(PID.TID 0000.0001)     ;
(PID.TID 0000.0001) rAw =  /* rAw(:,1,:,1) ( units: m^2 ) */
(PID.TID 0000.0001)    50 @  6.470963377080289E+07              /* I =  1: 50 */
(PID.TID 0000.0001)     ;
(PID.TID 0000.0001) rAw =  /* rAw(1,:,1,:) ( units: m^2 ) */
(PID.TID 0000.0001)                 6.470963377080289E+07,      /* J =  1 */
(PID.TID 0000.0001)                 6.534679484410104E+07,      /* J =  2 */
(PID.TID 0000.0001)                 6.598375685977945E+07,      /* J =  3 */
(PID.TID 0000.0001)      . . .
(PID.TID 0000.0001)                 7.867821163932665E+07,      /* J = 23 */
(PID.TID 0000.0001)                 7.931054622142966E+07,      /* J = 24 */
(PID.TID 0000.0001)                 7.994263920984067E+07,      /* J = 25 */
(PID.TID 0000.0001)                 8.057448867913349E+07,      /* J = 26 */
(PID.TID 0000.0001)                 8.120609270456599E+07,      /* J = 27 */
(PID.TID 0000.0001)                 8.183744936212724E+07,      /* J = 28 */
(PID.TID 0000.0001)      . . .
(PID.TID 0000.0001)                 9.440967921416211E+07,      /* J = 48 */
(PID.TID 0000.0001)                 9.503539809503193E+07,      /* J = 49 */
(PID.TID 0000.0001)                 9.566082748163140E+07,      /* J = 50 */
(PID.TID 0000.0001)                 9.628596546870193E+07,      /* J = 51 */
(PID.TID 0000.0001)                 9.691081015209354E+07,      /* J = 52 */
(PID.TID 0000.0001)                 9.753535962826957E+07,      /* J = 53 */
(PID.TID 0000.0001)      . . .
(PID.TID 0000.0001)                 1.099614325987181E+08,      /* J = 73 */
(PID.TID 0000.0001)                 1.105793446869293E+08,      /* J = 74 */
(PID.TID 0000.0001)                 1.111969199312560E+08,      /* J = 75 */
(PID.TID 0000.0001)                 1.118141564504991E+08,      /* J = 76 */
(PID.TID 0000.0001)                 1.124310523644033E+08,      /* J = 77 */
(PID.TID 0000.0001)                 1.130476057938687E+08,      /* J = 78 */
(PID.TID 0000.0001)      . . .
(PID.TID 0000.0001)                 1.253038681465364E+08,      /* J = 98 */
(PID.TID 0000.0001)                 1.259127972112936E+08,      /* J = 99 */
(PID.TID 0000.0001)                 1.265213427237870E+08       /* J =100 */
(PID.TID 0000.0001)     ;
(PID.TID 0000.0001) rAs =  /* rAs(:,1,:,1) ( units: m^2 ) */
(PID.TID 0000.0001)    50 @  6.439097919401864E+07              /* I =  1: 50 */
(PID.TID 0000.0001)     ;
(PID.TID 0000.0001) rAs =  /* rAs(1,:,1,:) ( units: m^2 ) */
(PID.TID 0000.0001)                 6.439097919401864E+07,      /* J =  1 */
(PID.TID 0000.0001)                 6.502823906837179E+07,      /* J =  2 */
(PID.TID 0000.0001)                 6.566530085543716E+07,      /* J =  3 */
(PID.TID 0000.0001)      . . .
(PID.TID 0000.0001)                 7.836195435256335E+07,      /* J = 23 */
(PID.TID 0000.0001)                 7.899440900921808E+07,      /* J = 24 */
(PID.TID 0000.0001)                 7.962662303520055E+07,      /* J = 25 */
(PID.TID 0000.0001)                 8.025859450470714E+07,      /* J = 26 */
(PID.TID 0000.0001)                 8.089032149259475E+07,      /* J = 27 */
(PID.TID 0000.0001)                 8.152180207452223E+07,      /* J = 28 */
(PID.TID 0000.0001)      . . .
(PID.TID 0000.0001)                 9.409671180895932E+07,      /* J = 48 */
(PID.TID 0000.0001)                 9.472257472228888E+07,      /* J = 49 */
(PID.TID 0000.0001)                 9.534814909420149E+07,      /* J = 50 */
(PID.TID 0000.0001)                 9.597343301913190E+07,      /* J = 51 */
(PID.TID 0000.0001)                 9.659842459236403E+07,      /* J = 52 */
(PID.TID 0000.0001)                 9.722312190998378E+07,      /* J = 53 */
(PID.TID 0000.0001)      . . .
(PID.TID 0000.0001)                 1.096523508263446E+08,      /* J = 73 */
(PID.TID 0000.0001)                 1.102704306306916E+08,      /* J = 74 */
(PID.TID 0000.0001)                 1.108881745321664E+08,      /* J = 75 */
(PID.TID 0000.0001)                 1.115055806490511E+08,      /* J = 76 */
(PID.TID 0000.0001)                 1.121226471005947E+08,      /* J = 77 */
(PID.TID 0000.0001)                 1.127393720071080E+08,      /* J = 78 */
(PID.TID 0000.0001)      . . .
(PID.TID 0000.0001)                 1.249992603617116E+08,      /* J = 98 */
(PID.TID 0000.0001)                 1.256083805070198E+08,      /* J = 99 */
(PID.TID 0000.0001)                 1.262171180274426E+08       /* J =100 */
(PID.TID 0000.0001)     ;
(PID.TID 0000.0001) globalArea = /* Integrated horizontal Area (m^2) */
(PID.TID 0000.0001)                 4.665024516720074E+11
(PID.TID 0000.0001)     ;
(PID.TID 0000.0001) // =======================================================
(PID.TID 0000.0001) // End of Model config. summary
(PID.TID 0000.0001) // =======================================================
(PID.TID 0000.0001) 
(PID.TID 0000.0001) == Packages configuration : Check & print summary ==
(PID.TID 0000.0001) 
(PID.TID 0000.0001) SHELFICE_CHECK: #define ALLOW_SHELFICE
(PID.TID 0000.0001) 
(PID.TID 0000.0001) SHELFICE_CHECK: start of SHELFICE config. summary
(PID.TID 0000.0001) SHELFICEisOn = /* package is turned on */
(PID.TID 0000.0001)                   T
(PID.TID 0000.0001)     ;
(PID.TID 0000.0001) useISOMIPTD = /* use simple isomip thermodynamics */
(PID.TID 0000.0001)                   F
(PID.TID 0000.0001)     ;
(PID.TID 0000.0001) SHELFICEconserve = /* use a conservative form of boundary conditions */
(PID.TID 0000.0001)                   T
(PID.TID 0000.0001)     ;
(PID.TID 0000.0001) SHELFICEboundaryLayer = /* use simple boundary layer scheme to suppress noise */
(PID.TID 0000.0001)                   T
(PID.TID 0000.0001)     ;
(PID.TID 0000.0001) SHI_withBL_realFWflux = /* use real FW Flux in boundary layer scheme */
(PID.TID 0000.0001)                   F
(PID.TID 0000.0001)     ;
(PID.TID 0000.0001) SHELFICEadvDiffHeatFlux = /* use adv.-diff. instead of just diff. heat flux into the ice shelf */
(PID.TID 0000.0001)                   F
(PID.TID 0000.0001)     ;
(PID.TID 0000.0001) SHELFICEMassStepping = /* step forward ice shelf mass/thickness */
(PID.TID 0000.0001)                   F
(PID.TID 0000.0001)     ;
(PID.TID 0000.0001) no_slip_shelfice = /* use no slip boundary conditions */
(PID.TID 0000.0001)                   F
(PID.TID 0000.0001)     ;
(PID.TID 0000.0001) SHELFICEdragLinear    = /* linear drag coefficient */
(PID.TID 0000.0001)                 0.000000000000000E+00
(PID.TID 0000.0001)     ;
(PID.TID 0000.0001) SHELFICEdragQuadratic = /* quadratic drag coefficient */
(PID.TID 0000.0001)                 2.500000000000000E-03
(PID.TID 0000.0001)     ;
(PID.TID 0000.0001) SHELFICEselectDragQuadr = /* select quadratic drag option */
(PID.TID 0000.0001)                       0
(PID.TID 0000.0001)     ;
(PID.TID 0000.0001) SHELFICElatentHeat      = /* latent heat of ice */
(PID.TID 0000.0001)                 3.340000000000000E+05
(PID.TID 0000.0001)     ;
(PID.TID 0000.0001) SHELFICEheatCapacity_Cp = /* heat capacity of ice shelf */
(PID.TID 0000.0001)                 2.000000000000000E+03
(PID.TID 0000.0001)     ;
(PID.TID 0000.0001) rhoShelfice   = /* density of ice shelf */
(PID.TID 0000.0001)                 9.170000000000000E+02
(PID.TID 0000.0001)     ;
(PID.TID 0000.0001) SHELFICEkappa = /* thermal conductivity of ice shelf */
(PID.TID 0000.0001)                 1.540000000000000E-06
(PID.TID 0000.0001)     ;
(PID.TID 0000.0001) SHELFICEthetaSurface = /* surface temperature above i.s. */
(PID.TID 0000.0001)                -2.000000000000000E+01
(PID.TID 0000.0001)     ;
(PID.TID 0000.0001) SHELFICEheatTransCoeff = /* heat transfer coefficient */
(PID.TID 0000.0001)                 1.000000000000000E-04
(PID.TID 0000.0001)     ;
(PID.TID 0000.0001) SHELFICEsaltTransCoeff = /* salt transfer coefficient */
(PID.TID 0000.0001)                 5.050000000000000E-07
(PID.TID 0000.0001)     ;
(PID.TID 0000.0001) SHELFICEuseGammaFrict = /* use velocity dependent exchange coefficients */
(PID.TID 0000.0001)                   F
(PID.TID 0000.0001)     ;
(PID.TID 0000.0001) SHELFICEremeshFrequency = /* Frequency (in s) of Remeshing */
(PID.TID 0000.0001)                 0.000000000000000E+00
(PID.TID 0000.0001)     ;
(PID.TID 0000.0001) SHELFICEloadAnomalyFile = /* file name of loaded loadAnomaly field */
(PID.TID 0000.0001)               'phi0surf.exp1.jmd95z'
(PID.TID 0000.0001)     ;
(PID.TID 0000.0001) SHELFICEmassFile = /* file name of loaded mass field */
(PID.TID 0000.0001)               ''
(PID.TID 0000.0001)     ;
(PID.TID 0000.0001) SHELFICEtopoFile = /* file name of loaded under-ice topography */
(PID.TID 0000.0001)               'icetopo.exp1'
(PID.TID 0000.0001)     ;
(PID.TID 0000.0001) SHELFICEMassDynTendFile = /* file name of loaded dynamic mass tendency field */
(PID.TID 0000.0001)               ''
(PID.TID 0000.0001)     ;
(PID.TID 0000.0001) SHELFICEwriteState  = /* do simple standard output */
(PID.TID 0000.0001)                   T
(PID.TID 0000.0001)     ;
(PID.TID 0000.0001) SHELFICE_dump_mdsio = /* use mdsio for snapshots */
(PID.TID 0000.0001)                   T
(PID.TID 0000.0001)     ;
(PID.TID 0000.0001) SHELFICE_tave_mdsio = /* use mdsio for time averages */
(PID.TID 0000.0001)                   T
(PID.TID 0000.0001)     ;
(PID.TID 0000.0001) SHELFICE_dump_mnc   = /* use netcdf for snapshots */
(PID.TID 0000.0001)                   F
(PID.TID 0000.0001)     ;
(PID.TID 0000.0001) SHELFICE_tave_mnc   = /* use netcdf for time averages */
(PID.TID 0000.0001)                   F
(PID.TID 0000.0001)     ;
(PID.TID 0000.0001) SHELFICE_dumpFreq = /* analoguous to dumpFreq */
(PID.TID 0000.0001)                 0.000000000000000E+00
(PID.TID 0000.0001)     ;
(PID.TID 0000.0001) SHELFICE_taveFreq = /* analoguous to taveFreq */
(PID.TID 0000.0001)                 0.000000000000000E+00
(PID.TID 0000.0001)     ;
(PID.TID 0000.0001) SHELFICE_CHECK: end of SHELFICE config. summary
(PID.TID 0000.0001) ICEFRONT_CHECK: #define ALLOW_ICEFRONT
(PID.TID 0000.0001) GAD_CHECK: #define ALLOW_GENERIC_ADVDIFF
(PID.TID 0000.0001) // =======================================================
(PID.TID 0000.0001) // Check Model config. (CONFIG_CHECK):
(PID.TID 0000.0001) // CONFIG_CHECK : Normal End
(PID.TID 0000.0001) // =======================================================
(PID.TID 0000.0001) 
(PID.TID 0000.0001) Start initial hydrostatic pressure computation
(PID.TID 0000.0001) Pressure is predetermined for buoyancyRelation OCEANIC
(PID.TID 0000.0001) 
(PID.TID 0000.0001)  write diagnostics summary to file ioUnit:      6
Iter.Nb:         0 ; Time(s):  0.0000000000000E+00
------------------------------------------------------------------------
2D/3D diagnostics: Number of lists:     2
------------------------------------------------------------------------
listId=    1 ; file name: shelficeDiag
 nFlds, nActive,       freq     &     phase        , nLev               
    2  |    2  |     18000.000000         0.000000 |   1
 levels:   1
 diag# | name   |   ipt  |  iMate | kLev|   count |   mate.C|           
   196 |SHIfwFlx|      1 |      0 |   1 |       0 |
   197 |SHIhtFlx|      2 |      0 |   1 |       0 |
------------------------------------------------------------------------
listId=    2 ; file name: icefrontDiag
 nFlds, nActive,       freq     &     phase        , nLev               
    2  |    2  |     18000.000000         0.000000 |  30
 levels:   1   2   3   4   5   6   7   8   9  10  11  12  13  14  15  16  17  18  19  20  21  22  23  24  25
 levels:  26  27  28  29  30
 diag# | name   |   ipt  |  iMate | kLev|   count |   mate.C|           
   206 |ICFfwFlx|      3 |      0 |  30 |       0 |
   207 |ICFhtFlx|     33 |      0 |  30 |       0 |
------------------------------------------------------------------------
Global & Regional Statistics diagnostics: Number of lists:     0
------------------------------------------------------------------------
(PID.TID 0000.0001) // =======================================================
(PID.TID 0000.0001) // Model current state
(PID.TID 0000.0001) // =======================================================
(PID.TID 0000.0001) 
(PID.TID 0000.0001) // =======================================================
(PID.TID 0000.0001) // Begin MONITOR dynamic field statistics
(PID.TID 0000.0001) // =======================================================
(PID.TID 0000.0001) %MON time_tsnumber                =                     0
(PID.TID 0000.0001) %MON time_secondsf                =   0.0000000000000E+00
(PID.TID 0000.0001) %MON dynstat_eta_max              =   0.0000000000000E+00
(PID.TID 0000.0001) %MON dynstat_eta_min              =   0.0000000000000E+00
(PID.TID 0000.0001) %MON dynstat_eta_mean             =   0.0000000000000E+00
(PID.TID 0000.0001) %MON dynstat_eta_sd               =   0.0000000000000E+00
(PID.TID 0000.0001) %MON dynstat_eta_del2             =   0.0000000000000E+00
(PID.TID 0000.0001) %MON dynstat_uvel_max             =   0.0000000000000E+00
(PID.TID 0000.0001) %MON dynstat_uvel_min             =   0.0000000000000E+00
(PID.TID 0000.0001) %MON dynstat_uvel_mean            =   0.0000000000000E+00
(PID.TID 0000.0001) %MON dynstat_uvel_sd              =   0.0000000000000E+00
(PID.TID 0000.0001) %MON dynstat_uvel_del2            =   0.0000000000000E+00
(PID.TID 0000.0001) %MON dynstat_vvel_max             =   0.0000000000000E+00
(PID.TID 0000.0001) %MON dynstat_vvel_min             =   0.0000000000000E+00
(PID.TID 0000.0001) %MON dynstat_vvel_mean            =   0.0000000000000E+00
(PID.TID 0000.0001) %MON dynstat_vvel_sd              =   0.0000000000000E+00
(PID.TID 0000.0001) %MON dynstat_vvel_del2            =   0.0000000000000E+00
(PID.TID 0000.0001) %MON dynstat_wvel_max             =  -0.0000000000000E+00
(PID.TID 0000.0001) %MON dynstat_wvel_min             =  -0.0000000000000E+00
(PID.TID 0000.0001) %MON dynstat_wvel_mean            =   0.0000000000000E+00
(PID.TID 0000.0001) %MON dynstat_wvel_sd              =   0.0000000000000E+00
(PID.TID 0000.0001) %MON dynstat_wvel_del2            =   0.0000000000000E+00
(PID.TID 0000.0001) %MON dynstat_theta_max            =  -1.9000000000000E+00
(PID.TID 0000.0001) %MON dynstat_theta_min            =  -1.9000000000000E+00
(PID.TID 0000.0001) %MON dynstat_theta_mean           =  -1.9000000000001E+00
(PID.TID 0000.0001) %MON dynstat_theta_sd             =   1.2256862191862E-13
(PID.TID 0000.0001) %MON dynstat_theta_del2           =   0.0000000000000E+00
(PID.TID 0000.0001) %MON dynstat_salt_max             =   3.4400000000000E+01
(PID.TID 0000.0001) %MON dynstat_salt_min             =   3.4400000000000E+01
(PID.TID 0000.0001) %MON dynstat_salt_mean            =   3.4400000000001E+01
(PID.TID 0000.0001) %MON dynstat_salt_sd              =   1.1084466677858E-12
(PID.TID 0000.0001) %MON dynstat_salt_del2            =   0.0000000000000E+00
(PID.TID 0000.0001) %MON trAdv_CFL_u_max              =   0.0000000000000E+00
(PID.TID 0000.0001) %MON trAdv_CFL_v_max              =   0.0000000000000E+00
(PID.TID 0000.0001) %MON trAdv_CFL_w_max              =   0.0000000000000E+00
(PID.TID 0000.0001) %MON advcfl_uvel_max              =   0.0000000000000E+00
(PID.TID 0000.0001) %MON advcfl_vvel_max              =   0.0000000000000E+00
(PID.TID 0000.0001) %MON advcfl_wvel_max              =   0.0000000000000E+00
(PID.TID 0000.0001) %MON advcfl_W_hf_max              =   0.0000000000000E+00
(PID.TID 0000.0001) %MON pe_b_mean                    =   0.0000000000000E+00
(PID.TID 0000.0001) %MON ke_max                       =   0.0000000000000E+00
(PID.TID 0000.0001) %MON ke_mean                      =   0.0000000000000E+00
(PID.TID 0000.0001) %MON ke_vol                       =   3.4703745874272E+14
(PID.TID 0000.0001) %MON vort_r_min                   =   0.0000000000000E+00
(PID.TID 0000.0001) %MON vort_r_max                   =   0.0000000000000E+00
(PID.TID 0000.0001) %MON vort_a_mean                  =  -1.3992981969631E-04
(PID.TID 0000.0001) %MON vort_a_sd                    =   1.7365065483553E-06
(PID.TID 0000.0001) %MON vort_p_mean                  =  -1.4746660593269E-04
(PID.TID 0000.0001) %MON vort_p_sd                    =   7.7973631850226E-05
(PID.TID 0000.0001) %MON surfExpan_theta_mean         =   0.0000000000000E+00
(PID.TID 0000.0001) %MON surfExpan_salt_mean          =   0.0000000000000E+00
(PID.TID 0000.0001) // =======================================================
(PID.TID 0000.0001) // End MONITOR dynamic field statistics
(PID.TID 0000.0001) // =======================================================
(PID.TID 0000.0001) SOLVE_FOR_PRESSURE: putPmEinXvector =    F
(PID.TID 0000.0001) SOLVE_FOR_PRESSURE: zeroPsNH=    F , zeroMeanPnh=    F
(PID.TID 0000.0001) SOLVE_FOR_PRESSURE: oldFreeSurfTerm =    F
 cg2d: Sum(rhs),rhsMax =   3.55271367880050E-15  4.59731572276010E-09
(PID.TID 0000.0001)      cg2d_init_res =   1.44107623890240E+01
(PID.TID 0000.0001)      cg2d_iters(min,last) =      -1     212
(PID.TID 0000.0001)      cg2d_last_res =   9.39690645491344E-14
(PID.TID 0000.0001) // =======================================================
(PID.TID 0000.0001) // Begin MONITOR dynamic field statistics
(PID.TID 0000.0001) // =======================================================
(PID.TID 0000.0001) %MON time_tsnumber                =                     1
(PID.TID 0000.0001) %MON time_secondsf                =   1.8000000000000E+03
(PID.TID 0000.0001) %MON dynstat_eta_max              =   8.4447171031995E-10
(PID.TID 0000.0001) %MON dynstat_eta_min              =  -5.7950492734806E-10
(PID.TID 0000.0001) %MON dynstat_eta_mean             =   6.0925101955063E-27
(PID.TID 0000.0001) %MON dynstat_eta_sd               =   1.7020143312196E-10
(PID.TID 0000.0001) %MON dynstat_eta_del2             =   5.0280316973900E-12
(PID.TID 0000.0001) %MON dynstat_uvel_max             =   2.1880758945987E-10
(PID.TID 0000.0001) %MON dynstat_uvel_min             =  -2.0733345172131E-10
(PID.TID 0000.0001) %MON dynstat_uvel_mean            =  -1.1795658892503E-13
(PID.TID 0000.0001) %MON dynstat_uvel_sd              =   4.0010665145228E-11
(PID.TID 0000.0001) %MON dynstat_uvel_del2            =   2.5908775340917E-13
(PID.TID 0000.0001) %MON dynstat_vvel_max             =   1.6036443262061E-10
(PID.TID 0000.0001) %MON dynstat_vvel_min             =  -1.5705571640597E-10
(PID.TID 0000.0001) %MON dynstat_vvel_mean            =   1.1301301777549E-12
(PID.TID 0000.0001) %MON dynstat_vvel_sd              =   8.1734194868000E-12
(PID.TID 0000.0001) %MON dynstat_vvel_del2            =   3.7497172104040E-14
(PID.TID 0000.0001) %MON dynstat_wvel_max             =   1.5391551372821E-12
(PID.TID 0000.0001) %MON dynstat_wvel_min             =  -1.1638111944826E-12
(PID.TID 0000.0001) %MON dynstat_wvel_mean            =   1.0980150833317E-15
(PID.TID 0000.0001) %MON dynstat_wvel_sd              =   5.5793451982059E-14
(PID.TID 0000.0001) %MON dynstat_wvel_del2            =   3.3084934980920E-16
(PID.TID 0000.0001) %MON dynstat_theta_max            =  -1.9000000000000E+00
(PID.TID 0000.0001) %MON dynstat_theta_min            =  -1.9006793643221E+00
(PID.TID 0000.0001) %MON dynstat_theta_mean           =  -1.9000057549974E+00
(PID.TID 0000.0001) %MON dynstat_theta_sd             =   4.4483626423380E-05
(PID.TID 0000.0001) %MON dynstat_theta_del2           =   5.2600433084504E-08
(PID.TID 0000.0001) %MON dynstat_salt_max             =   3.4400000000000E+01
(PID.TID 0000.0001) %MON dynstat_salt_min             =   3.4399722753896E+01
(PID.TID 0000.0001) %MON dynstat_salt_mean            =   3.4399997662561E+01
(PID.TID 0000.0001) %MON dynstat_salt_sd              =   1.8108610187135E-05
(PID.TID 0000.0001) %MON dynstat_salt_del2            =   2.1390566561142E-08
(PID.TID 0000.0001) %MON trAdv_CFL_u_max              =   0.0000000000000E+00
(PID.TID 0000.0001) %MON trAdv_CFL_v_max              =   0.0000000000000E+00
(PID.TID 0000.0001) %MON trAdv_CFL_w_max              =   0.0000000000000E+00
(PID.TID 0000.0001) %MON advcfl_uvel_max              =   6.2280289620056E-11
(PID.TID 0000.0001) %MON advcfl_vvel_max              =   2.5963531101582E-11
(PID.TID 0000.0001) %MON advcfl_wvel_max              =   9.2349308236927E-11
(PID.TID 0000.0001) %MON advcfl_W_hf_max              =   9.2349308236927E-11
(PID.TID 0000.0001) %MON pe_b_mean                    =   4.8942280081920E-14
(PID.TID 0000.0001) %MON ke_max                       =   2.4035943579627E-20
(PID.TID 0000.0001) %MON ke_mean                      =   8.1769499784436E-22
(PID.TID 0000.0001) %MON ke_vol                       =   3.4703745874272E+14
(PID.TID 0000.0001) %MON vort_r_min                   =  -2.7567877600667E-14
(PID.TID 0000.0001) %MON vort_r_max                   =   2.6634637111166E-14
(PID.TID 0000.0001) %MON vort_a_mean                  =  -1.3992981969631E-04
(PID.TID 0000.0001) %MON vort_a_sd                    =   1.7365065484877E-06
(PID.TID 0000.0001) %MON vort_p_mean                  =  -1.4746660593269E-04
(PID.TID 0000.0001) %MON vort_p_sd                    =   7.7973631850647E-05
(PID.TID 0000.0001) %MON surfExpan_theta_mean         =   8.9972117152107E-19
(PID.TID 0000.0001) %MON surfExpan_salt_mean          =   3.5412222350495E-19
(PID.TID 0000.0001) // =======================================================
(PID.TID 0000.0001) // End MONITOR dynamic field statistics
(PID.TID 0000.0001) // =======================================================
 cg2d: Sum(rhs),rhsMax =  -2.27287400055357E-15  1.15387004489047E-05
(PID.TID 0000.0001)      cg2d_init_res =   8.47197151742252E+00
(PID.TID 0000.0001)      cg2d_iters(min,last) =      -1     214
(PID.TID 0000.0001)      cg2d_last_res =   9.46948129145412E-14
(PID.TID 0000.0001) // =======================================================
(PID.TID 0000.0001) // Begin MONITOR dynamic field statistics
(PID.TID 0000.0001) // =======================================================
(PID.TID 0000.0001) %MON time_tsnumber                =                     2
(PID.TID 0000.0001) %MON time_secondsf                =   3.6000000000000E+03
(PID.TID 0000.0001) %MON dynstat_eta_max              =   1.4905166176118E-06
(PID.TID 0000.0001) %MON dynstat_eta_min              =  -1.5697661257049E-06
(PID.TID 0000.0001) %MON dynstat_eta_mean             =  -1.0397884066997E-23
(PID.TID 0000.0001) %MON dynstat_eta_sd               =   4.7171497441705E-07
(PID.TID 0000.0001) %MON dynstat_eta_del2             =   4.3778323284989E-09
(PID.TID 0000.0001) %MON dynstat_uvel_max             =   4.3660960158338E-07
(PID.TID 0000.0001) %MON dynstat_uvel_min             =  -1.4014370470290E-06
(PID.TID 0000.0001) %MON dynstat_uvel_mean            =   3.5762849048778E-09
(PID.TID 0000.0001) %MON dynstat_uvel_sd              =   1.0136559342902E-07
(PID.TID 0000.0001) %MON dynstat_uvel_del2            =   3.1606739348667E-10
(PID.TID 0000.0001) %MON dynstat_vvel_max             =   5.5554103356253E-06
(PID.TID 0000.0001) %MON dynstat_vvel_min             =  -7.1266773591500E-07
(PID.TID 0000.0001) %MON dynstat_vvel_mean            =  -5.0614342325433E-08
(PID.TID 0000.0001) %MON dynstat_vvel_sd              =   3.1463541465261E-07
(PID.TID 0000.0001) %MON dynstat_vvel_del2            =   8.6252562269732E-10
(PID.TID 0000.0001) %MON dynstat_wvel_max             =   1.2810530398269E-08
(PID.TID 0000.0001) %MON dynstat_wvel_min             =  -1.7953094616386E-08
(PID.TID 0000.0001) %MON dynstat_wvel_mean            =  -4.0533707320495E-11
(PID.TID 0000.0001) %MON dynstat_wvel_sd              =   1.0610563109936E-09
(PID.TID 0000.0001) %MON dynstat_wvel_del2            =   1.0249475484330E-11
(PID.TID 0000.0001) %MON dynstat_theta_max            =  -1.9000000000000E+00
(PID.TID 0000.0001) %MON dynstat_theta_min            =  -1.9013572233047E+00
(PID.TID 0000.0001) %MON dynstat_theta_mean           =  -1.9000114994381E+00
(PID.TID 0000.0001) %MON dynstat_theta_sd             =   8.8856976215958E-05
(PID.TID 0000.0001) %MON dynstat_theta_del2           =   1.0485185309605E-07
(PID.TID 0000.0001) %MON dynstat_salt_max             =   3.4400000000000E+01
(PID.TID 0000.0001) %MON dynstat_salt_min             =   3.4399446125100E+01
(PID.TID 0000.0001) %MON dynstat_salt_mean            =   3.4399995329449E+01
(PID.TID 0000.0001) %MON dynstat_salt_sd              =   3.6172050746124E-05
(PID.TID 0000.0001) %MON dynstat_salt_del2            =   4.2638952333768E-08
(PID.TID 0000.0001) %MON trAdv_CFL_u_max              =   6.2280297524914E-11
(PID.TID 0000.0001) %MON trAdv_CFL_v_max              =   3.0821517263616E-11
(PID.TID 0000.0001) %MON trAdv_CFL_w_max              =   9.2349308236927E-11
(PID.TID 0000.0001) %MON advcfl_uvel_max              =   4.1698925253898E-07
(PID.TID 0000.0001) %MON advcfl_vvel_max              =   8.9943927511843E-07
(PID.TID 0000.0001) %MON advcfl_wvel_max              =   1.0771856769832E-06
(PID.TID 0000.0001) %MON advcfl_W_hf_max              =   1.1890348359582E-06
(PID.TID 0000.0001) %MON pe_b_mean                    =  -1.0888073549170E-09
(PID.TID 0000.0001) %MON ke_max                       =   9.1210729134465E-12
(PID.TID 0000.0001) %MON ke_mean                      =   5.5154732911392E-14
(PID.TID 0000.0001) %MON ke_vol                       =   3.4703745874272E+14
(PID.TID 0000.0001) %MON vort_r_min                   =  -9.3930347184519E-10
(PID.TID 0000.0001) %MON vort_r_max                   =   9.2596079024559E-10
(PID.TID 0000.0001) %MON vort_a_mean                  =  -1.3992981969614E-04
(PID.TID 0000.0001) %MON vort_a_sd                    =   1.7365065512906E-06
(PID.TID 0000.0001) %MON vort_p_mean                  =  -1.4746660593251E-04
(PID.TID 0000.0001) %MON vort_p_sd                    =   7.7973619365540E-05
(PID.TID 0000.0001) %MON surfExpan_theta_mean         =  -5.8960941722889E-14
(PID.TID 0000.0001) %MON surfExpan_salt_mean          =  -2.3904753597641E-14
(PID.TID 0000.0001) // =======================================================
(PID.TID 0000.0001) // End MONITOR dynamic field statistics
(PID.TID 0000.0001) // =======================================================
 cg2d: Sum(rhs),rhsMax =  -1.78468351208494E-14  1.81350493292222E-05
(PID.TID 0000.0001)      cg2d_init_res =   3.35496501460956E+00
(PID.TID 0000.0001)      cg2d_iters(min,last) =      -1     214
(PID.TID 0000.0001)      cg2d_last_res =   9.13921387448996E-14
(PID.TID 0000.0001) // =======================================================
(PID.TID 0000.0001) // Begin MONITOR dynamic field statistics
(PID.TID 0000.0001) // =======================================================
(PID.TID 0000.0001) %MON time_tsnumber                =                     3
(PID.TID 0000.0001) %MON time_secondsf                =   5.4000000000000E+03
(PID.TID 0000.0001) %MON dynstat_eta_max              =   2.4648255591067E-06
(PID.TID 0000.0001) %MON dynstat_eta_min              =  -2.8680827352350E-06
(PID.TID 0000.0001) %MON dynstat_eta_mean             =  -8.3183072535980E-23
(PID.TID 0000.0001) %MON dynstat_eta_sd               =   1.1688374488382E-06
(PID.TID 0000.0001) %MON dynstat_eta_del2             =   7.1158720545184E-09
(PID.TID 0000.0001) %MON dynstat_uvel_max             =   8.7927895670113E-07
(PID.TID 0000.0001) %MON dynstat_uvel_min             =  -4.7892521672945E-06
(PID.TID 0000.0001) %MON dynstat_uvel_mean            =   9.0210609495154E-09
(PID.TID 0000.0001) %MON dynstat_uvel_sd              =   3.1598740384975E-07
(PID.TID 0000.0001) %MON dynstat_uvel_del2            =   8.1297141648398E-10
(PID.TID 0000.0001) %MON dynstat_vvel_max             =   1.3759933226056E-05
(PID.TID 0000.0001) %MON dynstat_vvel_min             =  -1.8625157230318E-06
(PID.TID 0000.0001) %MON dynstat_vvel_mean            =  -1.1928741871270E-07
(PID.TID 0000.0001) %MON dynstat_vvel_sd              =   7.8468593110136E-07
(PID.TID 0000.0001) %MON dynstat_vvel_del2            =   2.1191096209375E-09
(PID.TID 0000.0001) %MON dynstat_wvel_max             =   3.5252646908792E-08
(PID.TID 0000.0001) %MON dynstat_wvel_min             =  -3.9720198113294E-08
(PID.TID 0000.0001) %MON dynstat_wvel_mean            =  -8.3087866197736E-11
(PID.TID 0000.0001) %MON dynstat_wvel_sd              =   2.5555162649554E-09
(PID.TID 0000.0001) %MON dynstat_wvel_del2            =   2.4638528997746E-11
(PID.TID 0000.0001) %MON dynstat_theta_max            =  -1.9000000000000E+00
(PID.TID 0000.0001) %MON dynstat_theta_min            =  -1.9020341455027E+00
(PID.TID 0000.0001) %MON dynstat_theta_mean           =  -1.9000172373087E+00
(PID.TID 0000.0001) %MON dynstat_theta_sd             =   1.3316175643621E-04
(PID.TID 0000.0001) %MON dynstat_theta_del2           =   1.5688910287433E-07
(PID.TID 0000.0001) %MON dynstat_salt_max             =   3.4400000000000E+01
(PID.TID 0000.0001) %MON dynstat_salt_min             =   3.4399169880452E+01
(PID.TID 0000.0001) %MON dynstat_salt_mean            =   3.4399992999031E+01
(PID.TID 0000.0001) %MON dynstat_salt_sd              =   5.4207405289591E-05
(PID.TID 0000.0001) %MON dynstat_salt_del2            =   6.3799942276080E-08
(PID.TID 0000.0001) %MON trAdv_CFL_u_max              =   4.1698930546492E-07
(PID.TID 0000.0001) %MON trAdv_CFL_v_max              =   9.0373679854211E-07
(PID.TID 0000.0001) %MON trAdv_CFL_w_max              =   1.0771856769832E-06
(PID.TID 0000.0001) %MON advcfl_uvel_max              =   1.4250134786251E-06
(PID.TID 0000.0001) %MON advcfl_vvel_max              =   2.2277786191880E-06
(PID.TID 0000.0001) %MON advcfl_wvel_max              =   2.3832118867977E-06
(PID.TID 0000.0001) %MON advcfl_W_hf_max              =   2.9357898452252E-06
(PID.TID 0000.0001) %MON pe_b_mean                    =  -3.0781111398198E-09
(PID.TID 0000.0001) %MON ke_max                       =   6.1634783535794E-11
(PID.TID 0000.0001) %MON ke_mean                      =   3.5981438552365E-13
(PID.TID 0000.0001) %MON ke_vol                       =   3.4703745874272E+14
(PID.TID 0000.0001) %MON vort_r_min                   =  -2.3296849167471E-09
(PID.TID 0000.0001) %MON vort_r_max                   =   2.2952444993508E-09
(PID.TID 0000.0001) %MON vort_a_mean                  =  -1.3992981969458E-04
(PID.TID 0000.0001) %MON vort_a_sd                    =   1.7365065525253E-06
(PID.TID 0000.0001) %MON vort_p_mean                  =  -1.4746660593087E-04
(PID.TID 0000.0001) %MON vort_p_sd                    =   7.7973587963541E-05
(PID.TID 0000.0001) %MON surfExpan_theta_mean         =  -1.8228168576879E-13
(PID.TID 0000.0001) %MON surfExpan_salt_mean          =  -7.4060527053374E-14
(PID.TID 0000.0001) // =======================================================
(PID.TID 0000.0001) // End MONITOR dynamic field statistics
(PID.TID 0000.0001) // =======================================================
 cg2d: Sum(rhs),rhsMax =   2.44249065417534E-15  2.47142847242744E-05
(PID.TID 0000.0001)      cg2d_init_res =   2.43588926630215E+00
(PID.TID 0000.0001)      cg2d_iters(min,last) =      -1     212
(PID.TID 0000.0001)      cg2d_last_res =   9.89393987727738E-14
(PID.TID 0000.0001) // =======================================================
(PID.TID 0000.0001) // Begin MONITOR dynamic field statistics
(PID.TID 0000.0001) // =======================================================
(PID.TID 0000.0001) %MON time_tsnumber                =                     4
(PID.TID 0000.0001) %MON time_secondsf                =   7.2000000000000E+03
(PID.TID 0000.0001) %MON dynstat_eta_max              =   4.0524128375193E-06
(PID.TID 0000.0001) %MON dynstat_eta_min              =  -4.1701599904620E-06
(PID.TID 0000.0001) %MON dynstat_eta_mean             =   1.6636614507196E-22
(PID.TID 0000.0001) %MON dynstat_eta_sd               =   2.1112078294393E-06
(PID.TID 0000.0001) %MON dynstat_eta_del2             =   9.8225845438283E-09
(PID.TID 0000.0001) %MON dynstat_uvel_max             =   1.5145103183126E-06
(PID.TID 0000.0001) %MON dynstat_uvel_min             =  -1.0643323706900E-05
(PID.TID 0000.0001) %MON dynstat_uvel_mean            =   1.2930571136438E-08
(PID.TID 0000.0001) %MON dynstat_uvel_sd              =   6.8863843899307E-07
(PID.TID 0000.0001) %MON dynstat_uvel_del2            =   1.6354569060526E-09
(PID.TID 0000.0001) %MON dynstat_vvel_max             =   2.3997179381857E-05
(PID.TID 0000.0001) %MON dynstat_vvel_min             =  -3.3485075977106E-06
(PID.TID 0000.0001) %MON dynstat_vvel_mean            =  -1.9184208473500E-07
(PID.TID 0000.0001) %MON dynstat_vvel_sd              =   1.3738444040654E-06
(PID.TID 0000.0001) %MON dynstat_vvel_del2            =   3.6683950944889E-09
(PID.TID 0000.0001) %MON dynstat_wvel_max             =   6.7871566718944E-08
(PID.TID 0000.0001) %MON dynstat_wvel_min             =  -6.8922350242484E-08
(PID.TID 0000.0001) %MON dynstat_wvel_mean            =  -1.2646818476845E-10
(PID.TID 0000.0001) %MON dynstat_wvel_sd              =   4.4808393461506E-09
(PID.TID 0000.0001) %MON dynstat_wvel_del2            =   4.2429615611769E-11
(PID.TID 0000.0001) %MON dynstat_theta_max            =  -1.9000000000000E+00
(PID.TID 0000.0001) %MON dynstat_theta_min            =  -1.9027101319570E+00
(PID.TID 0000.0001) %MON dynstat_theta_mean           =  -1.9000229686171E+00
(PID.TID 0000.0001) %MON dynstat_theta_sd             =   1.7739806834032E-04
(PID.TID 0000.0001) %MON dynstat_theta_del2           =   2.0871271313071E-07
(PID.TID 0000.0001) %MON dynstat_salt_max             =   3.4400000000000E+01
(PID.TID 0000.0001) %MON dynstat_salt_min             =   3.4398894019521E+01
(PID.TID 0000.0001) %MON dynstat_salt_mean            =   3.4399990671304E+01
(PID.TID 0000.0001) %MON dynstat_salt_sd              =   7.2214715438852E-05
(PID.TID 0000.0001) %MON dynstat_salt_del2            =   8.4873792670281E-08
(PID.TID 0000.0001) %MON trAdv_CFL_u_max              =   1.4250136594934E-06
(PID.TID 0000.0001) %MON trAdv_CFL_v_max              =   2.2386372917710E-06
(PID.TID 0000.0001) %MON trAdv_CFL_w_max              =   2.3832118867977E-06
(PID.TID 0000.0001) %MON advcfl_uvel_max              =   3.1668576240933E-06
(PID.TID 0000.0001) %MON advcfl_vvel_max              =   3.8852225711739E-06
(PID.TID 0000.0001) %MON advcfl_wvel_max              =   4.1353410145490E-06
(PID.TID 0000.0001) %MON advcfl_W_hf_max              =   5.6940609591267E-06
(PID.TID 0000.0001) %MON pe_b_mean                    =  -5.9104074931786E-09
(PID.TID 0000.0001) %MON ke_max                       =   2.0963140880051E-10
(PID.TID 0000.0001) %MON ke_mean                      =   1.1819218095956E-12
(PID.TID 0000.0001) %MON ke_vol                       =   3.4703745874272E+14
(PID.TID 0000.0001) %MON vort_r_min                   =  -4.0629460864331E-09
(PID.TID 0000.0001) %MON vort_r_max                   =   4.0002678380531E-09
(PID.TID 0000.0001) %MON vort_a_mean                  =  -1.3992981968931E-04
(PID.TID 0000.0001) %MON vort_a_sd                    =   1.7365065510381E-06
(PID.TID 0000.0001) %MON vort_p_mean                  =  -1.4746660592531E-04
(PID.TID 0000.0001) %MON vort_p_sd                    =   7.7973532804613E-05
(PID.TID 0000.0001) %MON surfExpan_theta_mean         =  -3.7163186205279E-13
(PID.TID 0000.0001) %MON surfExpan_salt_mean          =  -1.5111795862198E-13
(PID.TID 0000.0001) // =======================================================
(PID.TID 0000.0001) // End MONITOR dynamic field statistics
(PID.TID 0000.0001) // =======================================================
 cg2d: Sum(rhs),rhsMax =   2.59792187762287E-14  3.12467030144930E-05
(PID.TID 0000.0001)      cg2d_init_res =   1.91895252149722E+00
(PID.TID 0000.0001)      cg2d_iters(min,last) =      -1     212
(PID.TID 0000.0001)      cg2d_last_res =   7.11931653565809E-14
(PID.TID 0000.0001) // =======================================================
(PID.TID 0000.0001) // Begin MONITOR dynamic field statistics
(PID.TID 0000.0001) // =======================================================
(PID.TID 0000.0001) %MON time_tsnumber                =                     5
(PID.TID 0000.0001) %MON time_secondsf                =   9.0000000000000E+03
(PID.TID 0000.0001) %MON dynstat_eta_max              =   6.2831297194609E-06
(PID.TID 0000.0001) %MON dynstat_eta_min              =  -5.3759522074791E-06
(PID.TID 0000.0001) %MON dynstat_eta_mean             =  -4.6582520620149E-22
(PID.TID 0000.0001) %MON dynstat_eta_sd               =   3.2755930848899E-06
(PID.TID 0000.0001) %MON dynstat_eta_del2             =   1.2519385371499E-08
(PID.TID 0000.0001) %MON dynstat_uvel_max             =   2.7676506909856E-06
(PID.TID 0000.0001) %MON dynstat_uvel_min             =  -1.9268874991154E-05
(PID.TID 0000.0001) %MON dynstat_uvel_mean            =   1.3357723846915E-08
(PID.TID 0000.0001) %MON dynstat_uvel_sd              =   1.2403185322613E-06
(PID.TID 0000.0001) %MON dynstat_uvel_del2            =   2.8267739082956E-09
(PID.TID 0000.0001) %MON dynstat_vvel_max             =   3.5495853841975E-05
(PID.TID 0000.0001) %MON dynstat_vvel_min             =  -5.0578525433524E-06
(PID.TID 0000.0001) %MON dynstat_vvel_mean            =  -2.5555870628534E-07
(PID.TID 0000.0001) %MON dynstat_vvel_sd              =   2.0383898640715E-06
(PID.TID 0000.0001) %MON dynstat_vvel_del2            =   5.3903402273844E-09
(PID.TID 0000.0001) %MON dynstat_wvel_max             =   1.1628365622943E-07
(PID.TID 0000.0001) %MON dynstat_wvel_min             =  -1.1631949932704E-07
(PID.TID 0000.0001) %MON dynstat_wvel_mean            =  -1.6400117278492E-10
(PID.TID 0000.0001) %MON dynstat_wvel_sd              =   6.7326468154270E-09
(PID.TID 0000.0001) %MON dynstat_wvel_del2            =   6.2244330004415E-11
(PID.TID 0000.0001) %MON dynstat_theta_max            =  -1.9000000000000E+00
(PID.TID 0000.0001) %MON dynstat_theta_min            =  -1.9033851843250E+00
(PID.TID 0000.0001) %MON dynstat_theta_mean           =  -1.9000286933744E+00
(PID.TID 0000.0001) %MON dynstat_theta_sd             =   2.2156605743192E-04
(PID.TID 0000.0001) %MON dynstat_theta_del2           =   2.6032370884469E-07
(PID.TID 0000.0001) %MON dynstat_salt_max             =   3.4400000000000E+01
(PID.TID 0000.0001) %MON dynstat_salt_min             =   3.4398618541626E+01
(PID.TID 0000.0001) %MON dynstat_salt_mean            =   3.4399988346263E+01
(PID.TID 0000.0001) %MON dynstat_salt_sd              =   9.0194040948251E-05
(PID.TID 0000.0001) %MON dynstat_salt_del2            =   1.0586092403660E-07
(PID.TID 0000.0001) %MON trAdv_CFL_u_max              =   3.1668580260435E-06
(PID.TID 0000.0001) %MON trAdv_CFL_v_max              =   3.9041599823911E-06
(PID.TID 0000.0001) %MON trAdv_CFL_w_max              =   4.1353410145490E-06
(PID.TID 0000.0001) %MON advcfl_uvel_max              =   5.7333390728198E-06
(PID.TID 0000.0001) %MON advcfl_vvel_max              =   5.7468959303692E-06
(PID.TID 0000.0001) %MON advcfl_wvel_max              =   6.9791699596224E-06
(PID.TID 0000.0001) %MON advcfl_W_hf_max              =   9.4346178029829E-06
(PID.TID 0000.0001) %MON pe_b_mean                    =  -9.4457615877353E-09
(PID.TID 0000.0001) %MON ke_max                       =   5.2122680777126E-10
(PID.TID 0000.0001) %MON ke_mean                      =   2.8362126850352E-12
(PID.TID 0000.0001) %MON ke_vol                       =   3.4703745874272E+14
(PID.TID 0000.0001) %MON vort_r_min                   =  -6.0097788226266E-09
(PID.TID 0000.0001) %MON vort_r_max                   =   5.9117343169036E-09
(PID.TID 0000.0001) %MON vort_a_mean                  =  -1.3992981967852E-04
(PID.TID 0000.0001) %MON vort_a_sd                    =   1.7365065478113E-06
(PID.TID 0000.0001) %MON vort_p_mean                  =  -1.4746660591395E-04
(PID.TID 0000.0001) %MON vort_p_sd                    =   7.7973450867241E-05
(PID.TID 0000.0001) %MON surfExpan_theta_mean         =  -6.0393178934211E-13
(PID.TID 0000.0001) %MON surfExpan_salt_mean          =  -2.4567383960667E-13
(PID.TID 0000.0001) // =======================================================
(PID.TID 0000.0001) // End MONITOR dynamic field statistics
(PID.TID 0000.0001) // =======================================================
 cg2d: Sum(rhs),rhsMax =  -1.55431223447522E-15  3.76715921509635E-05
(PID.TID 0000.0001)      cg2d_init_res =   1.58343395684358E+00
(PID.TID 0000.0001)      cg2d_iters(min,last) =      -1     211
(PID.TID 0000.0001)      cg2d_last_res =   8.70949034067830E-14
(PID.TID 0000.0001) // =======================================================
(PID.TID 0000.0001) // Begin MONITOR dynamic field statistics
(PID.TID 0000.0001) // =======================================================
(PID.TID 0000.0001) %MON time_tsnumber                =                     6
(PID.TID 0000.0001) %MON time_secondsf                =   1.0800000000000E+04
(PID.TID 0000.0001) %MON dynstat_eta_max              =   8.6522270133230E-06
(PID.TID 0000.0001) %MON dynstat_eta_min              =  -6.4334059616837E-06
(PID.TID 0000.0001) %MON dynstat_eta_mean             =  -5.3237166423027E-22
(PID.TID 0000.0001) %MON dynstat_eta_sd               =   4.6134718890179E-06
(PID.TID 0000.0001) %MON dynstat_eta_del2             =   1.5202850874177E-08
(PID.TID 0000.0001) %MON dynstat_uvel_max             =   4.4472608582159E-06
(PID.TID 0000.0001) %MON dynstat_uvel_min             =  -3.0763746943512E-05
(PID.TID 0000.0001) %MON dynstat_uvel_mean            =   1.0159928206041E-08
(PID.TID 0000.0001) %MON dynstat_uvel_sd              =   1.9784687431828E-06
(PID.TID 0000.0001) %MON dynstat_uvel_del2            =   4.3991322849728E-09
(PID.TID 0000.0001) %MON dynstat_vvel_max             =   4.7463010376005E-05
(PID.TID 0000.0001) %MON dynstat_vvel_min             =  -6.8698435212748E-06
(PID.TID 0000.0001) %MON dynstat_vvel_mean            =  -3.0155094816650E-07
(PID.TID 0000.0001) %MON dynstat_vvel_sd              =   2.7315009482696E-06
(PID.TID 0000.0001) %MON dynstat_vvel_del2            =   7.1640493468791E-09
(PID.TID 0000.0001) %MON dynstat_wvel_max             =   1.7756060247615E-07
(PID.TID 0000.0001) %MON dynstat_wvel_min             =  -1.7576923500944E-07
(PID.TID 0000.0001) %MON dynstat_wvel_mean            =  -1.9103878141067E-10
(PID.TID 0000.0001) %MON dynstat_wvel_sd              =   9.2161000049861E-09
(PID.TID 0000.0001) %MON dynstat_wvel_del2            =   8.2754615654693E-11
(PID.TID 0000.0001) %MON dynstat_theta_max            =  -1.9000000000000E+00
(PID.TID 0000.0001) %MON dynstat_theta_min            =  -1.9040593044026E+00
(PID.TID 0000.0001) %MON dynstat_theta_mean           =  -1.9000344115922E+00
(PID.TID 0000.0001) %MON dynstat_theta_sd             =   2.6566586933283E-04
(PID.TID 0000.0001) %MON dynstat_theta_del2           =   3.1172312531412E-07
(PID.TID 0000.0001) %MON dynstat_salt_max             =   3.4400000000000E+01
(PID.TID 0000.0001) %MON dynstat_salt_min             =   3.4398343446024E+01
(PID.TID 0000.0001) %MON dynstat_salt_mean            =   3.4399986023904E+01
(PID.TID 0000.0001) %MON dynstat_salt_sd              =   1.0814544161921E-04
(PID.TID 0000.0001) %MON dynstat_salt_del2            =   1.2676175897593E-07
(PID.TID 0000.0001) %MON trAdv_CFL_u_max              =   5.7333398005180E-06
(PID.TID 0000.0001) %MON trAdv_CFL_v_max              =   5.7749075383175E-06
(PID.TID 0000.0001) %MON trAdv_CFL_w_max              =   6.9791699596224E-06
(PID.TID 0000.0001) %MON advcfl_uvel_max              =   9.1535698092674E-06
(PID.TID 0000.0001) %MON advcfl_vvel_max              =   7.6844180840743E-06
(PID.TID 0000.0001) %MON advcfl_wvel_max              =   1.0653636148569E-05
(PID.TID 0000.0001) %MON advcfl_W_hf_max              =   1.3998443650663E-05
(PID.TID 0000.0001) %MON pe_b_mean                    =  -1.3487543722155E-08
(PID.TID 0000.0001) %MON ke_max                       =   1.0740675208643E-09
(PID.TID 0000.0001) %MON ke_mean                      =   5.6440053568048E-12
(PID.TID 0000.0001) %MON ke_vol                       =   3.4703745874272E+14
(PID.TID 0000.0001) %MON vort_r_min                   =  -8.0359299394712E-09
(PID.TID 0000.0001) %MON vort_r_max                   =   7.8952220627331E-09
(PID.TID 0000.0001) %MON vort_a_mean                  =  -1.3992981966249E-04
(PID.TID 0000.0001) %MON vort_a_sd                    =   1.7365065411663E-06
(PID.TID 0000.0001) %MON vort_p_mean                  =  -1.4746660589705E-04
(PID.TID 0000.0001) %MON vort_p_sd                    =   7.7973341123511E-05
(PID.TID 0000.0001) %MON surfExpan_theta_mean         =  -8.4492352723626E-13
(PID.TID 0000.0001) %MON surfExpan_salt_mean          =  -3.4376721078803E-13
(PID.TID 0000.0001) // =======================================================
(PID.TID 0000.0001) // End MONITOR dynamic field statistics
(PID.TID 0000.0001) // =======================================================
 cg2d: Sum(rhs),rhsMax =  -2.57571741713036E-14  4.39722534686241E-05
(PID.TID 0000.0001)      cg2d_init_res =   1.34939609294634E+00
(PID.TID 0000.0001)      cg2d_iters(min,last) =      -1     209
(PID.TID 0000.0001)      cg2d_last_res =   9.49535876841278E-14
(PID.TID 0000.0001) // =======================================================
(PID.TID 0000.0001) // Begin MONITOR dynamic field statistics
(PID.TID 0000.0001) // =======================================================
(PID.TID 0000.0001) %MON time_tsnumber                =                     7
(PID.TID 0000.0001) %MON time_secondsf                =   1.2600000000000E+04
(PID.TID 0000.0001) %MON dynstat_eta_max              =   1.1093945019126E-05
(PID.TID 0000.0001) %MON dynstat_eta_min              =  -7.3630229280198E-06
(PID.TID 0000.0001) %MON dynstat_eta_mean             =   0.0000000000000E+00
(PID.TID 0000.0001) %MON dynstat_eta_sd               =   6.0502680923022E-06
(PID.TID 0000.0001) %MON dynstat_eta_del2             =   1.7872265554577E-08
(PID.TID 0000.0001) %MON dynstat_uvel_max             =   6.5771290040295E-06
(PID.TID 0000.0001) %MON dynstat_uvel_min             =  -4.5020144977360E-05
(PID.TID 0000.0001) %MON dynstat_uvel_mean            =   4.5548322831544E-09
(PID.TID 0000.0001) %MON dynstat_uvel_sd              =   2.8977117049081E-06
(PID.TID 0000.0001) %MON dynstat_uvel_del2            =   6.3380318663735E-09
(PID.TID 0000.0001) %MON dynstat_vvel_max             =   5.9127882046134E-05
(PID.TID 0000.0001) %MON dynstat_vvel_min             =  -8.6672839138607E-06
(PID.TID 0000.0001) %MON dynstat_vvel_mean            =  -3.2540270456440E-07
(PID.TID 0000.0001) %MON dynstat_vvel_sd              =   3.4067532580451E-06
(PID.TID 0000.0001) %MON dynstat_vvel_del2            =   8.8753967708228E-09
(PID.TID 0000.0001) %MON dynstat_wvel_max             =   2.5049854446429E-07
(PID.TID 0000.0001) %MON dynstat_wvel_min             =  -2.4601546885978E-07
(PID.TID 0000.0001) %MON dynstat_wvel_mean            =  -2.0494504805400E-10
(PID.TID 0000.0001) %MON dynstat_wvel_sd              =   1.1842420840661E-08
(PID.TID 0000.0001) %MON dynstat_wvel_del2            =   1.0272018417686E-10
(PID.TID 0000.0001) %MON dynstat_theta_max            =  -1.9000000000000E+00
(PID.TID 0000.0001) %MON dynstat_theta_min            =  -1.9047324941614E+00
(PID.TID 0000.0001) %MON dynstat_theta_mean           =  -1.9000401232819E+00
(PID.TID 0000.0001) %MON dynstat_theta_sd             =   3.0969764980719E-04
(PID.TID 0000.0001) %MON dynstat_theta_del2           =   3.6290954408734E-07
(PID.TID 0000.0001) %MON dynstat_salt_max             =   3.4400000000000E+01
(PID.TID 0000.0001) %MON dynstat_salt_min             =   3.4398068731906E+01
(PID.TID 0000.0001) %MON dynstat_salt_mean            =   3.4399983704221E+01
(PID.TID 0000.0001) %MON dynstat_salt_sd              =   1.2606897731356E-04
(PID.TID 0000.0001) %MON dynstat_salt_del2            =   1.4757580937651E-07
(PID.TID 0000.0001) %MON trAdv_CFL_u_max              =   9.1535709710748E-06
(PID.TID 0000.0001) %MON trAdv_CFL_v_max              =   7.7218735921068E-06
(PID.TID 0000.0001) %MON trAdv_CFL_w_max              =   1.0653636148569E-05
(PID.TID 0000.0001) %MON advcfl_uvel_max              =   1.3395476195741E-05
(PID.TID 0000.0001) %MON advcfl_vvel_max              =   9.5729993202880E-06
(PID.TID 0000.0001) %MON advcfl_wvel_max              =   1.5029912667857E-05
(PID.TID 0000.0001) %MON advcfl_W_hf_max              =   1.9258415494096E-05
(PID.TID 0000.0001) %MON pe_b_mean                    =  -1.7799164311037E-08
(PID.TID 0000.0001) %MON ke_max                       =   1.9457432184523E-09
(PID.TID 0000.0001) %MON ke_mean                      =   9.8921871862940E-12
(PID.TID 0000.0001) %MON ke_vol                       =   3.4703745874272E+14
(PID.TID 0000.0001) %MON vort_r_min                   =  -1.0010901412024E-08
(PID.TID 0000.0001) %MON vort_r_max                   =   9.8205706974957E-09
(PID.TID 0000.0001) %MON vort_a_mean                  =  -1.3992981964360E-04
(PID.TID 0000.0001) %MON vort_a_sd                    =   1.7365065235891E-06
(PID.TID 0000.0001) %MON vort_p_mean                  =  -1.4746660587714E-04
(PID.TID 0000.0001) %MON vort_p_sd                    =   7.7973204490275E-05
(PID.TID 0000.0001) %MON surfExpan_theta_mean         =  -1.0572236467268E-12
(PID.TID 0000.0001) %MON surfExpan_salt_mean          =  -4.3016492063207E-13
(PID.TID 0000.0001) // =======================================================
(PID.TID 0000.0001) // End MONITOR dynamic field statistics
(PID.TID 0000.0001) // =======================================================
 cg2d: Sum(rhs),rhsMax =  -6.03961325396085E-14  5.01418301889824E-05
(PID.TID 0000.0001)      cg2d_init_res =   1.17697548784616E+00
(PID.TID 0000.0001)      cg2d_iters(min,last) =      -1     208
(PID.TID 0000.0001)      cg2d_last_res =   8.35320301743520E-14
(PID.TID 0000.0001) // =======================================================
(PID.TID 0000.0001) // Begin MONITOR dynamic field statistics
(PID.TID 0000.0001) // =======================================================
(PID.TID 0000.0001) %MON time_tsnumber                =                     8
(PID.TID 0000.0001) %MON time_secondsf                =   1.4400000000000E+04
(PID.TID 0000.0001) %MON dynstat_eta_max              =   1.3524562847723E-05
(PID.TID 0000.0001) %MON dynstat_eta_min              =  -8.1679649908203E-06
(PID.TID 0000.0001) %MON dynstat_eta_mean             =  -1.8633008248059E-21
(PID.TID 0000.0001) %MON dynstat_eta_sd               =   7.4997176037741E-06
(PID.TID 0000.0001) %MON dynstat_eta_del2             =   2.0526785169526E-08
(PID.TID 0000.0001) %MON dynstat_uvel_max             =   9.0957683705490E-06
(PID.TID 0000.0001) %MON dynstat_uvel_min             =  -6.1747729611756E-05
(PID.TID 0000.0001) %MON dynstat_uvel_mean            =  -1.7422168577844E-09
(PID.TID 0000.0001) %MON dynstat_uvel_sd              =   3.9809506714073E-06
(PID.TID 0000.0001) %MON dynstat_uvel_del2            =   8.6058872390632E-09
(PID.TID 0000.0001) %MON dynstat_vvel_max             =   6.9789212512098E-05
(PID.TID 0000.0001) %MON dynstat_vvel_min             =  -1.0345425271861E-05
(PID.TID 0000.0001) %MON dynstat_vvel_mean            =  -3.2667833719562E-07
(PID.TID 0000.0001) %MON dynstat_vvel_sd              =   4.0212526751430E-06
(PID.TID 0000.0001) %MON dynstat_vvel_del2            =   1.0424110341157E-08
(PID.TID 0000.0001) %MON dynstat_wvel_max             =   3.3325776282334E-07
(PID.TID 0000.0001) %MON dynstat_wvel_min             =  -3.2518682357028E-07
(PID.TID 0000.0001) %MON dynstat_wvel_mean            =  -2.0514888489237E-10
(PID.TID 0000.0001) %MON dynstat_wvel_sd              =   1.4532764680817E-08
(PID.TID 0000.0001) %MON dynstat_wvel_del2            =   1.2106978610690E-10
(PID.TID 0000.0001) %MON dynstat_theta_max            =  -1.9000000000000E+00
(PID.TID 0000.0001) %MON dynstat_theta_min            =  -1.9054047557669E+00
(PID.TID 0000.0001) %MON dynstat_theta_mean           =  -1.9000458284551E+00
(PID.TID 0000.0001) %MON dynstat_theta_sd             =   3.5366154432450E-04
(PID.TID 0000.0001) %MON dynstat_theta_del2           =   4.1388801061909E-07
(PID.TID 0000.0001) %MON dynstat_salt_max             =   3.4400000000000E+01
(PID.TID 0000.0001) %MON dynstat_salt_min             =   3.4397794398379E+01
(PID.TID 0000.0001) %MON dynstat_salt_mean            =   3.4399981387209E+01
(PID.TID 0000.0001) %MON dynstat_salt_sd              =   1.4396470778083E-04
(PID.TID 0000.0001) %MON dynstat_salt_del2            =   1.6830490034365E-07
(PID.TID 0000.0001) %MON trAdv_CFL_u_max              =   1.3395477895948E-05
(PID.TID 0000.0001) %MON trAdv_CFL_v_max              =   9.6196601798369E-06
(PID.TID 0000.0001) %MON trAdv_CFL_w_max              =   1.5029912667857E-05
(PID.TID 0000.0001) %MON advcfl_uvel_max              =   1.8372669447672E-05
(PID.TID 0000.0001) %MON advcfl_vvel_max              =   1.1299103922249E-05
(PID.TID 0000.0001) %MON advcfl_wvel_max              =   1.9995465769400E-05
(PID.TID 0000.0001) %MON advcfl_W_hf_max              =   2.5055516076157E-05
(PID.TID 0000.0001) %MON pe_b_mean                    =  -2.2129574232843E-08
(PID.TID 0000.0001) %MON ke_max                       =   3.2024196265291E-09
(PID.TID 0000.0001) %MON ke_mean                      =   1.5794636796028E-11
(PID.TID 0000.0001) %MON ke_vol                       =   3.4703745874272E+14
(PID.TID 0000.0001) %MON vort_r_min                   =  -1.1815964007239E-08
(PID.TID 0000.0001) %MON vort_r_max                   =   1.1570210414842E-08
(PID.TID 0000.0001) %MON vort_a_mean                  =  -1.3992981962515E-04
(PID.TID 0000.0001) %MON vort_a_sd                    =   1.7365064856670E-06
(PID.TID 0000.0001) %MON vort_p_mean                  =  -1.4746660585769E-04
(PID.TID 0000.0001) %MON vort_p_sd                    =   7.7973043623979E-05
(PID.TID 0000.0001) %MON surfExpan_theta_mean         =  -1.2082719076980E-12
(PID.TID 0000.0001) %MON surfExpan_salt_mean          =  -4.9160336832966E-13
(PID.TID 0000.0001) // =======================================================
(PID.TID 0000.0001) // End MONITOR dynamic field statistics
(PID.TID 0000.0001) // =======================================================
 cg2d: Sum(rhs),rhsMax =   4.88498130835069E-14  5.61823885184024E-05
(PID.TID 0000.0001)      cg2d_init_res =   1.04474441018899E+00
(PID.TID 0000.0001)      cg2d_iters(min,last) =      -1     208
(PID.TID 0000.0001)      cg2d_last_res =   8.15015957357158E-14
(PID.TID 0000.0001) // =======================================================
(PID.TID 0000.0001) // Begin MONITOR dynamic field statistics
(PID.TID 0000.0001) // =======================================================
(PID.TID 0000.0001) %MON time_tsnumber                =                     9
(PID.TID 0000.0001) %MON time_secondsf                =   1.6200000000000E+04
(PID.TID 0000.0001) %MON dynstat_eta_max              =   1.6191717187685E-05
(PID.TID 0000.0001) %MON dynstat_eta_min              =  -8.8185721947447E-06
(PID.TID 0000.0001) %MON dynstat_eta_mean             =   3.0611370693240E-21
(PID.TID 0000.0001) %MON dynstat_eta_sd               =   8.8808677682260E-06
(PID.TID 0000.0001) %MON dynstat_eta_del2             =   2.3165776903486E-08
(PID.TID 0000.0001) %MON dynstat_uvel_max             =   1.1941906202599E-05
(PID.TID 0000.0001) %MON dynstat_uvel_min             =  -8.0509057778042E-05
(PID.TID 0000.0001) %MON dynstat_uvel_mean            =  -7.2630239386863E-09
(PID.TID 0000.0001) %MON dynstat_uvel_sd              =   5.2011256079281E-06
(PID.TID 0000.0001) %MON dynstat_uvel_del2            =   1.1146395464815E-08
(PID.TID 0000.0001) %MON dynstat_vvel_max             =   7.8856398697497E-05
(PID.TID 0000.0001) %MON dynstat_vvel_min             =  -1.1817062063730E-05
(PID.TID 0000.0001) %MON dynstat_vvel_mean            =  -3.0803726832425E-07
(PID.TID 0000.0001) %MON dynstat_vvel_sd              =   4.5382542745453E-06
(PID.TID 0000.0001) %MON dynstat_vvel_del2            =   1.1728471802571E-08
(PID.TID 0000.0001) %MON dynstat_wvel_max             =   4.2350086828524E-07
(PID.TID 0000.0001) %MON dynstat_wvel_min             =  -4.1095765517911E-07
(PID.TID 0000.0001) %MON dynstat_wvel_mean            =  -1.9302170483244E-10
(PID.TID 0000.0001) %MON dynstat_wvel_sd              =   1.7220069972496E-08
(PID.TID 0000.0001) %MON dynstat_wvel_del2            =   1.3695644767466E-10
(PID.TID 0000.0001) %MON dynstat_theta_max            =  -1.9000000000000E+00
(PID.TID 0000.0001) %MON dynstat_theta_min            =  -1.9060760915740E+00
(PID.TID 0000.0001) %MON dynstat_theta_mean           =  -1.9000515271233E+00
(PID.TID 0000.0001) %MON dynstat_theta_sd             =   3.9755769833913E-04
(PID.TID 0000.0001) %MON dynstat_theta_del2           =   4.6466040774064E-07
(PID.TID 0000.0001) %MON dynstat_salt_max             =   3.4400000000000E+01
(PID.TID 0000.0001) %MON dynstat_salt_min             =   3.4397520444477E+01
(PID.TID 0000.0001) %MON dynstat_salt_mean            =   3.4399979072866E+01
(PID.TID 0000.0001) %MON dynstat_salt_sd              =   1.6183269275198E-04
(PID.TID 0000.0001) %MON dynstat_salt_del2            =   1.8894993849900E-07
(PID.TID 0000.0001) %MON trAdv_CFL_u_max              =   1.8372671779604E-05
(PID.TID 0000.0001) %MON trAdv_CFL_v_max              =   1.1354178187221E-05
(PID.TID 0000.0001) %MON trAdv_CFL_w_max              =   1.9995465769400E-05
(PID.TID 0000.0001) %MON advcfl_uvel_max              =   2.3954990983472E-05
(PID.TID 0000.0001) %MON advcfl_vvel_max              =   1.2767111301949E-05
(PID.TID 0000.0001) %MON advcfl_wvel_max              =   2.5410052097114E-05
(PID.TID 0000.0001) %MON advcfl_W_hf_max              =   3.1208399376500E-05
(PID.TID 0000.0001) %MON pe_b_mean                    =  -2.6246526167841E-08
(PID.TID 0000.0001) %MON ke_max                       =   4.8878351433186E-09
(PID.TID 0000.0001) %MON ke_mean                      =   2.3460127149480E-11
(PID.TID 0000.0001) %MON ke_vol                       =   3.4703745874272E+14
(PID.TID 0000.0001) %MON vort_r_min                   =  -1.3351123120763E-08
(PID.TID 0000.0001) %MON vort_r_max                   =   1.3046067580700E-08
(PID.TID 0000.0001) %MON vort_a_mean                  =  -1.3992981961005E-04
(PID.TID 0000.0001) %MON vort_a_sd                    =   1.7365064202597E-06
(PID.TID 0000.0001) %MON vort_p_mean                  =  -1.4746660584178E-04
(PID.TID 0000.0001) %MON vort_p_sd                    =   7.7972862616609E-05
(PID.TID 0000.0001) %MON surfExpan_theta_mean         =  -1.2770337581691E-12
(PID.TID 0000.0001) %MON surfExpan_salt_mean          =  -5.1951824504156E-13
(PID.TID 0000.0001) // =======================================================
(PID.TID 0000.0001) // End MONITOR dynamic field statistics
(PID.TID 0000.0001) // =======================================================
 cg2d: Sum(rhs),rhsMax =  -9.76996261670138E-15  6.21044102221053E-05
(PID.TID 0000.0001)      cg2d_init_res =   9.39987577586863E-01
(PID.TID 0000.0001)      cg2d_iters(min,last) =      -1     208
(PID.TID 0000.0001)      cg2d_last_res =   8.98519236761687E-14
(PID.TID 0000.0001) // =======================================================
(PID.TID 0000.0001) // Begin MONITOR dynamic field statistics
(PID.TID 0000.0001) // =======================================================
(PID.TID 0000.0001) %MON time_tsnumber                =                    10
(PID.TID 0000.0001) %MON time_secondsf                =   1.8000000000000E+04
(PID.TID 0000.0001) %MON dynstat_eta_max              =   1.8752123357058E-05
(PID.TID 0000.0001) %MON dynstat_eta_min              =  -9.4336774121829E-06
(PID.TID 0000.0001) %MON dynstat_eta_mean             =  -2.1294866569211E-21
(PID.TID 0000.0001) %MON dynstat_eta_sd               =   1.0130557892097E-05
(PID.TID 0000.0001) %MON dynstat_eta_del2             =   2.5788673006205E-08
(PID.TID 0000.0001) %MON dynstat_uvel_max             =   1.5035602217334E-05
(PID.TID 0000.0001) %MON dynstat_uvel_min             =  -1.0076016753058E-04
(PID.TID 0000.0001) %MON dynstat_uvel_mean            =  -1.1130885217783E-08
(PID.TID 0000.0001) %MON dynstat_uvel_sd              =   6.5234978794339E-06
(PID.TID 0000.0001) %MON dynstat_uvel_del2            =   1.3889649636202E-08
(PID.TID 0000.0001) %MON dynstat_vvel_max             =   8.5881456825138E-05
(PID.TID 0000.0001) %MON dynstat_vvel_min             =  -1.3015258953074E-05
(PID.TID 0000.0001) %MON dynstat_vvel_mean            =  -2.7429131242642E-07
(PID.TID 0000.0001) %MON dynstat_vvel_sd              =   4.9292302220690E-06
(PID.TID 0000.0001) %MON dynstat_vvel_del2            =   1.2728853791443E-08
(PID.TID 0000.0001) %MON dynstat_wvel_max             =   5.1856481019434E-07
(PID.TID 0000.0001) %MON dynstat_wvel_min             =  -5.0072517456690E-07
(PID.TID 0000.0001) %MON dynstat_wvel_mean            =  -1.7146442714768E-10
(PID.TID 0000.0001) %MON dynstat_wvel_sd              =   1.9849936490460E-08
(PID.TID 0000.0001) %MON dynstat_wvel_del2            =   1.4979857750649E-10
(PID.TID 0000.0001) %MON dynstat_theta_max            =  -1.9000000000000E+00
(PID.TID 0000.0001) %MON dynstat_theta_min            =  -1.9067465041034E+00
(PID.TID 0000.0001) %MON dynstat_theta_mean           =  -1.9000572192980E+00
(PID.TID 0000.0001) %MON dynstat_theta_sd             =   4.4138625712803E-04
(PID.TID 0000.0001) %MON dynstat_theta_del2           =   5.1522731902902E-07
(PID.TID 0000.0001) %MON dynstat_salt_max             =   3.4400000000000E+01
(PID.TID 0000.0001) %MON dynstat_salt_min             =   3.4397246869164E+01
(PID.TID 0000.0001) %MON dynstat_salt_mean            =   3.4399976761184E+01
(PID.TID 0000.0001) %MON dynstat_salt_sd              =   1.7967299188453E-04
(PID.TID 0000.0001) %MON dynstat_salt_del2            =   2.0951114911688E-07
(PID.TID 0000.0001) %MON trAdv_CFL_u_max              =   2.3954994023935E-05
(PID.TID 0000.0001) %MON trAdv_CFL_v_max              =   1.2829340950920E-05
(PID.TID 0000.0001) %MON trAdv_CFL_w_max              =   2.5410052097114E-05
(PID.TID 0000.0001) %MON advcfl_uvel_max              =   2.9980588163666E-05
(PID.TID 0000.0001) %MON advcfl_vvel_max              =   1.3904491406794E-05
(PID.TID 0000.0001) %MON advcfl_wvel_max              =   3.1113888611661E-05
(PID.TID 0000.0001) %MON advcfl_W_hf_max              =   3.7525191667614E-05
(PID.TID 0000.0001) %MON pe_b_mean                    =  -2.9967446250544E-08
(PID.TID 0000.0001) %MON ke_max                       =   7.0149236622741E-09
(PID.TID 0000.0001) %MON ke_mean                      =   3.2871038219561E-11
(PID.TID 0000.0001) %MON ke_vol                       =   3.4703745874272E+14
(PID.TID 0000.0001) %MON vort_r_min                   =  -1.4540530924592E-08
(PID.TID 0000.0001) %MON vort_r_max                   =   1.4174728349991E-08
(PID.TID 0000.0001) %MON vort_a_mean                  =  -1.3992981960017E-04
(PID.TID 0000.0001) %MON vort_a_sd                    =   1.7365063244081E-06
(PID.TID 0000.0001) %MON vort_p_mean                  =  -1.4746660583137E-04
(PID.TID 0000.0001) %MON vort_p_sd                    =   7.7972666635029E-05
(PID.TID 0000.0001) %MON surfExpan_theta_mean         =  -1.2579418520816E-12
(PID.TID 0000.0001) %MON surfExpan_salt_mean          =  -5.1164752080663E-13
(PID.TID 0000.0001) // =======================================================
(PID.TID 0000.0001) // End MONITOR dynamic field statistics
(PID.TID 0000.0001) // =======================================================
 Computing Diagnostic #    196  SHIfwFlx     Counter:      10   Parms: SM      L1      
 Computing Diagnostic #    197  SHIhtFlx     Counter:      10   Parms: SM      L1      
 Computing Diagnostic #    206  ICFfwFlx     Counter:      10   Parms: SM      MR      
 Computing Diagnostic #    207  ICFhtFlx     Counter:      10   Parms: SM      MR      
 cg2d: Sum(rhs),rhsMax =  -6.21724893790088E-14  6.79245431743226E-05
(PID.TID 0000.0001)      cg2d_init_res =   8.54720415224043E-01
(PID.TID 0000.0001)      cg2d_iters(min,last) =      -1     208
(PID.TID 0000.0001)      cg2d_last_res =   8.81412131451297E-14
(PID.TID 0000.0001) // =======================================================
(PID.TID 0000.0001) // Begin MONITOR dynamic field statistics
(PID.TID 0000.0001) // =======================================================
(PID.TID 0000.0001) %MON time_tsnumber                =                    11
(PID.TID 0000.0001) %MON time_secondsf                =   1.9800000000000E+04
(PID.TID 0000.0001) %MON dynstat_eta_max              =   2.1043705140747E-05
(PID.TID 0000.0001) %MON dynstat_eta_min              =  -1.0190944045520E-05
(PID.TID 0000.0001) %MON dynstat_eta_mean             =   1.8633008248059E-21
(PID.TID 0000.0001) %MON dynstat_eta_sd               =   1.1210400713813E-05
(PID.TID 0000.0001) %MON dynstat_eta_del2             =   2.8395002305889E-08
(PID.TID 0000.0001) %MON dynstat_uvel_max             =   1.8284233849040E-05
(PID.TID 0000.0001) %MON dynstat_uvel_min             =  -1.2189277575534E-04
(PID.TID 0000.0001) %MON dynstat_uvel_mean            =  -1.3036014646466E-08
(PID.TID 0000.0001) %MON dynstat_uvel_sd              =   7.9083030184213E-06
(PID.TID 0000.0001) %MON dynstat_uvel_del2            =   1.6757727607613E-08
(PID.TID 0000.0001) %MON dynstat_vvel_max             =   9.0579496382740E-05
(PID.TID 0000.0001) %MON dynstat_vvel_min             =  -1.3895064918894E-05
(PID.TID 0000.0001) %MON dynstat_vvel_mean            =  -2.3146946046735E-07
(PID.TID 0000.0001) %MON dynstat_vvel_sd              =   5.1753159103295E-06
(PID.TID 0000.0001) %MON dynstat_vvel_del2            =   1.3389853783202E-08
(PID.TID 0000.0001) %MON dynstat_wvel_max             =   6.1565528837619E-07
(PID.TID 0000.0001) %MON dynstat_wvel_min             =  -5.9179520335900E-07
(PID.TID 0000.0001) %MON dynstat_wvel_mean            =  -1.4429163167000E-10
(PID.TID 0000.0001) %MON dynstat_wvel_sd              =   2.2380310950292E-08
(PID.TID 0000.0001) %MON dynstat_wvel_del2            =   1.5930108312106E-10
(PID.TID 0000.0001) %MON dynstat_theta_max            =  -1.9000000000000E+00
(PID.TID 0000.0001) %MON dynstat_theta_min            =  -1.9074159959981E+00
(PID.TID 0000.0001) %MON dynstat_theta_mean           =  -1.9000629049910E+00
(PID.TID 0000.0001) %MON dynstat_theta_sd             =   4.8514736548147E-04
(PID.TID 0000.0001) %MON dynstat_theta_del2           =   5.6558962154008E-07
(PID.TID 0000.0001) %MON dynstat_salt_max             =   3.4400000000000E+01
(PID.TID 0000.0001) %MON dynstat_salt_min             =   3.4396973671355E+01
(PID.TID 0000.0001) %MON dynstat_salt_mean            =   3.4399974452160E+01
(PID.TID 0000.0001) %MON dynstat_salt_sd              =   1.9748566463754E-04
(PID.TID 0000.0001) %MON dynstat_salt_del2            =   2.2998888628554E-07
(PID.TID 0000.0001) %MON trAdv_CFL_u_max              =   2.9980591968921E-05
(PID.TID 0000.0001) %MON trAdv_CFL_v_max              =   1.3972264891250E-05
(PID.TID 0000.0001) %MON trAdv_CFL_w_max              =   3.1113888611661E-05
(PID.TID 0000.0001) %MON advcfl_uvel_max              =   3.6268469967932E-05
(PID.TID 0000.0001) %MON advcfl_vvel_max              =   1.4665119522249E-05
(PID.TID 0000.0001) %MON advcfl_wvel_max              =   3.6939317302572E-05
(PID.TID 0000.0001) %MON advcfl_W_hf_max              =   4.3816840682462E-05
(PID.TID 0000.0001) %MON pe_b_mean                    =  -3.3179677315073E-08
(PID.TID 0000.0001) %MON ke_max                       =   9.5611210841174E-09
(PID.TID 0000.0001) %MON ke_mean                      =   4.3876123246593E-11
(PID.TID 0000.0001) %MON ke_vol                       =   3.4703745874272E+14
(PID.TID 0000.0001) %MON vort_r_min                   =  -1.5335952800252E-08
(PID.TID 0000.0001) %MON vort_r_max                   =   1.4910640353077E-08
(PID.TID 0000.0001) %MON vort_a_mean                  =  -1.3992981959625E-04
(PID.TID 0000.0001) %MON vort_a_sd                    =   1.7365061995908E-06
(PID.TID 0000.0001) %MON vort_p_mean                  =  -1.4746660582724E-04
(PID.TID 0000.0001) %MON vort_p_sd                    =   7.7972461530174E-05
(PID.TID 0000.0001) %MON surfExpan_theta_mean         =  -1.1614114201308E-12
(PID.TID 0000.0001) %MON surfExpan_salt_mean          =  -4.7223923274434E-13
(PID.TID 0000.0001) // =======================================================
(PID.TID 0000.0001) // End MONITOR dynamic field statistics
(PID.TID 0000.0001) // =======================================================
 cg2d: Sum(rhs),rhsMax =   1.06581410364015E-14  7.36625616104768E-05
(PID.TID 0000.0001)      cg2d_init_res =   7.83742757446201E-01
(PID.TID 0000.0001)      cg2d_iters(min,last) =      -1     208
(PID.TID 0000.0001)      cg2d_last_res =   7.76509201193263E-14
(PID.TID 0000.0001) // =======================================================
(PID.TID 0000.0001) // Begin MONITOR dynamic field statistics
(PID.TID 0000.0001) // =======================================================
(PID.TID 0000.0001) %MON time_tsnumber                =                    12
(PID.TID 0000.0001) %MON time_secondsf                =   2.1600000000000E+04
(PID.TID 0000.0001) %MON dynstat_eta_max              =   2.2963902388943E-05
(PID.TID 0000.0001) %MON dynstat_eta_min              =  -1.0841568360907E-05
(PID.TID 0000.0001) %MON dynstat_eta_mean             =  -1.5971149926908E-21
(PID.TID 0000.0001) %MON dynstat_eta_sd               =   1.2108669031608E-05
(PID.TID 0000.0001) %MON dynstat_eta_del2             =   3.0984513530192E-08
(PID.TID 0000.0001) %MON dynstat_uvel_max             =   2.1589240957003E-05
(PID.TID 0000.0001) %MON dynstat_uvel_min             =  -1.4327764623223E-04
(PID.TID 0000.0001) %MON dynstat_uvel_mean            =  -1.3038897103357E-08
(PID.TID 0000.0001) %MON dynstat_uvel_sd              =   9.3135953845445E-06
(PID.TID 0000.0001) %MON dynstat_uvel_del2            =   1.9670377357655E-08
(PID.TID 0000.0001) %MON dynstat_vvel_max             =   9.2836852475264E-05
(PID.TID 0000.0001) %MON dynstat_vvel_min             =  -1.4434472358150E-05
(PID.TID 0000.0001) %MON dynstat_vvel_mean            =  -1.8590208238662E-07
(PID.TID 0000.0001) %MON dynstat_vvel_sd              =   5.2680786155403E-06
(PID.TID 0000.0001) %MON dynstat_vvel_del2            =   1.3700617581648E-08
(PID.TID 0000.0001) %MON dynstat_wvel_max             =   7.1204176352456E-07
(PID.TID 0000.0001) %MON dynstat_wvel_min             =  -6.8156399120373E-07
(PID.TID 0000.0001) %MON dynstat_wvel_mean            =  -1.1555927101985E-10
(PID.TID 0000.0001) %MON dynstat_wvel_sd              =   2.4780181666105E-08
(PID.TID 0000.0001) %MON dynstat_wvel_del2            =   1.6545452465152E-10
(PID.TID 0000.0001) %MON dynstat_theta_max            =  -1.9000000000000E+00
(PID.TID 0000.0001) %MON dynstat_theta_min            =  -1.9080845699683E+00
(PID.TID 0000.0001) %MON dynstat_theta_mean           =  -1.9000685842136E+00
(PID.TID 0000.0001) %MON dynstat_theta_sd             =   5.2884116747949E-04
(PID.TID 0000.0001) %MON dynstat_theta_del2           =   6.1574826988175E-07
(PID.TID 0000.0001) %MON dynstat_salt_max             =   3.4400000000000E+01
(PID.TID 0000.0001) %MON dynstat_salt_min             =   3.4396700849936E+01
(PID.TID 0000.0001) %MON dynstat_salt_mean            =   3.4399972145789E+01
(PID.TID 0000.0001) %MON dynstat_salt_sd              =   2.1527077017878E-04
(PID.TID 0000.0001) %MON dynstat_salt_del2            =   2.5038353781368E-07
(PID.TID 0000.0001) %MON trAdv_CFL_u_max              =   3.6268474571271E-05
(PID.TID 0000.0001) %MON trAdv_CFL_v_max              =   1.4736600471887E-05
(PID.TID 0000.0001) %MON trAdv_CFL_w_max              =   3.6939317302572E-05
(PID.TID 0000.0001) %MON advcfl_uvel_max              =   4.2631410903958E-05
(PID.TID 0000.0001) %MON advcfl_vvel_max              =   1.5030592926531E-05
(PID.TID 0000.0001) %MON advcfl_wvel_max              =   4.2722505811473E-05
(PID.TID 0000.0001) %MON advcfl_W_hf_max              =   4.9910042980697E-05
(PID.TID 0000.0001) %MON pe_b_mean                    =  -3.5847087782027E-08
(PID.TID 0000.0001) %MON ke_max                       =   1.2468541865177E-08
(PID.TID 0000.0001) %MON ke_mean                      =   5.6198739906465E-11
(PID.TID 0000.0001) %MON ke_vol                       =   3.4703745874272E+14
(PID.TID 0000.0001) %MON vort_r_min                   =  -1.5718144221829E-08
(PID.TID 0000.0001) %MON vort_r_max                   =   1.5237256993722E-08
(PID.TID 0000.0001) %MON vort_a_mean                  =  -1.3992981959815E-04
(PID.TID 0000.0001) %MON vort_a_sd                    =   1.7365060507074E-06
(PID.TID 0000.0001) %MON vort_p_mean                  =  -1.4746660582925E-04
(PID.TID 0000.0001) %MON vort_p_sd                    =   7.7972253433898E-05
(PID.TID 0000.0001) %MON surfExpan_theta_mean         =  -1.0111908082292E-12
(PID.TID 0000.0001) %MON surfExpan_salt_mean          =  -4.1097121131308E-13
(PID.TID 0000.0001) // =======================================================
(PID.TID 0000.0001) // End MONITOR dynamic field statistics
(PID.TID 0000.0001) // =======================================================
 cg2d: Sum(rhs),rhsMax =  -1.01696429055664E-13  7.93384448616869E-05
(PID.TID 0000.0001)      cg2d_init_res =   7.23540675799691E-01
(PID.TID 0000.0001)      cg2d_iters(min,last) =      -1     204
(PID.TID 0000.0001)      cg2d_last_res =   9.86080418638093E-14
(PID.TID 0000.0001) // =======================================================
(PID.TID 0000.0001) // Begin MONITOR dynamic field statistics
(PID.TID 0000.0001) // =======================================================
(PID.TID 0000.0001) %MON time_tsnumber                =                    13
(PID.TID 0000.0001) %MON time_secondsf                =   2.3400000000000E+04
(PID.TID 0000.0001) %MON dynstat_eta_max              =   2.4550931512611E-05
(PID.TID 0000.0001) %MON dynstat_eta_min              =  -1.1342432502549E-05
(PID.TID 0000.0001) %MON dynstat_eta_mean             =   7.9855749634540E-22
(PID.TID 0000.0001) %MON dynstat_eta_sd               =   1.2837874210273E-05
(PID.TID 0000.0001) %MON dynstat_eta_del2             =   3.3557174574220E-08
(PID.TID 0000.0001) %MON dynstat_uvel_max             =   2.4853001063099E-05
(PID.TID 0000.0001) %MON dynstat_uvel_min             =  -1.6430321279022E-04
(PID.TID 0000.0001) %MON dynstat_uvel_mean            =  -1.1383880027031E-08
(PID.TID 0000.0001) %MON dynstat_uvel_sd              =   1.0698097680949E-05
(PID.TID 0000.0001) %MON dynstat_uvel_del2            =   2.2550428296477E-08
(PID.TID 0000.0001) %MON dynstat_vvel_max             =   9.2707309646748E-05
(PID.TID 0000.0001) %MON dynstat_vvel_min             =  -1.4634544601343E-05
(PID.TID 0000.0001) %MON dynstat_vvel_mean            =  -1.4338522474126E-07
(PID.TID 0000.0001) %MON dynstat_vvel_sd              =   5.2095910972487E-06
(PID.TID 0000.0001) %MON dynstat_vvel_del2            =   1.3673573196957E-08
(PID.TID 0000.0001) %MON dynstat_wvel_max             =   8.0523335805329E-07
(PID.TID 0000.0001) %MON dynstat_wvel_min             =  -7.6768235534526E-07
(PID.TID 0000.0001) %MON dynstat_wvel_mean            =  -8.8964944879027E-11
(PID.TID 0000.0001) %MON dynstat_wvel_sd              =   2.7027847171408E-08
(PID.TID 0000.0001) %MON dynstat_wvel_del2            =   1.6851514800225E-10
(PID.TID 0000.0001) %MON dynstat_theta_max            =  -1.9000000000000E+00
(PID.TID 0000.0001) %MON dynstat_theta_min            =  -1.9087522287305E+00
(PID.TID 0000.0001) %MON dynstat_theta_mean           =  -1.9000742569771E+00
(PID.TID 0000.0001) %MON dynstat_theta_sd             =   5.7246780634549E-04
(PID.TID 0000.0001) %MON dynstat_theta_del2           =   6.6570423381618E-07
(PID.TID 0000.0001) %MON dynstat_salt_max             =   3.4400000000000E+01
(PID.TID 0000.0001) %MON dynstat_salt_min             =   3.4396428403792E+01
(PID.TID 0000.0001) %MON dynstat_salt_mean            =   3.4399969842066E+01
(PID.TID 0000.0001) %MON dynstat_salt_sd              =   2.3302836732497E-04
(PID.TID 0000.0001) %MON dynstat_salt_del2            =   2.7069549845651E-07
(PID.TID 0000.0001) %MON trAdv_CFL_u_max              =   4.2631416314907E-05
(PID.TID 0000.0001) %MON trAdv_CFL_v_max              =   1.5103855272220E-05
(PID.TID 0000.0001) %MON trAdv_CFL_w_max              =   4.2722505811473E-05
(PID.TID 0000.0001) %MON advcfl_uvel_max              =   4.8887443097349E-05
(PID.TID 0000.0001) %MON advcfl_vvel_max              =   1.5009619514895E-05
(PID.TID 0000.0001) %MON advcfl_wvel_max              =   4.8314001483198E-05
(PID.TID 0000.0001) %MON advcfl_W_hf_max              =   5.5658024376220E-05
(PID.TID 0000.0001) %MON pe_b_mean                    =  -3.8004267875352E-08
(PID.TID 0000.0001) %MON ke_max                       =   1.5648726293176E-08
(PID.TID 0000.0001) %MON ke_mean                      =   6.9459806913546E-11
(PID.TID 0000.0001) %MON ke_vol                       =   3.4703745874272E+14
(PID.TID 0000.0001) %MON vort_r_min                   =  -1.5696211413820E-08
(PID.TID 0000.0001) %MON vort_r_max                   =   1.5166174583976E-08
(PID.TID 0000.0001) %MON vort_a_mean                  =  -1.3992981960512E-04
(PID.TID 0000.0001) %MON vort_a_sd                    =   1.7365058849117E-06
(PID.TID 0000.0001) %MON vort_p_mean                  =  -1.4746660583659E-04
(PID.TID 0000.0001) %MON vort_p_sd                    =   7.7972048360959E-05
(PID.TID 0000.0001) %MON surfExpan_theta_mean         =  -8.3946752020073E-13
(PID.TID 0000.0001) %MON surfExpan_salt_mean          =  -3.4095723653634E-13
(PID.TID 0000.0001) // =======================================================
(PID.TID 0000.0001) // End MONITOR dynamic field statistics
(PID.TID 0000.0001) // =======================================================
 cg2d: Sum(rhs),rhsMax =   3.10862446895044E-14  8.49703176737973E-05
(PID.TID 0000.0001)      cg2d_init_res =   6.71676699933101E-01
(PID.TID 0000.0001)      cg2d_iters(min,last) =      -1     206
(PID.TID 0000.0001)      cg2d_last_res =   9.54454888482104E-14
(PID.TID 0000.0001) // =======================================================
(PID.TID 0000.0001) // Begin MONITOR dynamic field statistics
(PID.TID 0000.0001) // =======================================================
(PID.TID 0000.0001) %MON time_tsnumber                =                    14
(PID.TID 0000.0001) %MON time_secondsf                =   2.5200000000000E+04
(PID.TID 0000.0001) %MON dynstat_eta_max              =   2.5849126787424E-05
(PID.TID 0000.0001) %MON dynstat_eta_min              =  -1.1694889892780E-05
(PID.TID 0000.0001) %MON dynstat_eta_mean             =   3.7266016496119E-21
(PID.TID 0000.0001) %MON dynstat_eta_sd               =   1.3429255482996E-05
(PID.TID 0000.0001) %MON dynstat_eta_del2             =   3.6113137199970E-08
(PID.TID 0000.0001) %MON dynstat_uvel_max             =   2.7985260532104E-05
(PID.TID 0000.0001) %MON dynstat_uvel_min             =  -1.8441624153037E-04
(PID.TID 0000.0001) %MON dynstat_uvel_mean            =  -8.4001428958174E-09
(PID.TID 0000.0001) %MON dynstat_uvel_sd              =   1.2023869937402E-05
(PID.TID 0000.0001) %MON dynstat_uvel_del2            =   2.5328599966466E-08
(PID.TID 0000.0001) %MON dynstat_vvel_max             =   9.0397661240652E-05
(PID.TID 0000.0001) %MON dynstat_vvel_min             =  -1.4517185175725E-05
(PID.TID 0000.0001) %MON dynstat_vvel_mean            =  -1.0852166544264E-07
(PID.TID 0000.0001) %MON dynstat_vvel_sd              =   5.0118320863207E-06
(PID.TID 0000.0001) %MON dynstat_vvel_del2            =   1.3341804198063E-08
(PID.TID 0000.0001) %MON dynstat_wvel_max             =   8.9312348064028E-07
(PID.TID 0000.0001) %MON dynstat_wvel_min             =  -8.4819124610949E-07
(PID.TID 0000.0001) %MON dynstat_wvel_mean            =  -6.7406236033425E-11
(PID.TID 0000.0001) %MON dynstat_wvel_sd              =   2.9109128467624E-08
(PID.TID 0000.0001) %MON dynstat_wvel_del2            =   1.6896670658541E-10
(PID.TID 0000.0001) %MON dynstat_theta_max            =  -1.9000000000000E+00
(PID.TID 0000.0001) %MON dynstat_theta_min            =  -1.9094189749472E+00
(PID.TID 0000.0001) %MON dynstat_theta_mean           =  -1.9000799232930E+00
(PID.TID 0000.0001) %MON dynstat_theta_sd             =   6.1602742437978E-04
(PID.TID 0000.0001) %MON dynstat_theta_del2           =   7.1545848111899E-07
(PID.TID 0000.0001) %MON dynstat_salt_max             =   3.4400000000000E+01
(PID.TID 0000.0001) %MON dynstat_salt_min             =   3.4396156331831E+01
(PID.TID 0000.0001) %MON dynstat_salt_mean            =   3.4399967540987E+01
(PID.TID 0000.0001) %MON dynstat_salt_sd              =   2.5075851451464E-04
(PID.TID 0000.0001) %MON dynstat_salt_del2            =   2.9092516256643E-07
(PID.TID 0000.0001) %MON trAdv_CFL_u_max              =   4.8887449302337E-05
(PID.TID 0000.0001) %MON trAdv_CFL_v_max              =   1.5082779631660E-05
(PID.TID 0000.0001) %MON trAdv_CFL_w_max              =   4.8314001483198E-05
(PID.TID 0000.0001) %MON advcfl_uvel_max              =   5.4871955094110E-05
(PID.TID 0000.0001) %MON advcfl_vvel_max              =   1.4635679812397E-05
(PID.TID 0000.0001) %MON advcfl_wvel_max              =   5.3587408838417E-05
(PID.TID 0000.0001) %MON advcfl_W_hf_max              =   6.0948340462996E-05
(PID.TID 0000.0001) %MON pe_b_mean                    =  -3.9741745749153E-08
(PID.TID 0000.0001) %MON ke_max                       =   1.8991515799764E-08
(PID.TID 0000.0001) %MON ke_mean                      =   8.3212636906463E-11
(PID.TID 0000.0001) %MON ke_vol                       =   3.4703745874272E+14
(PID.TID 0000.0001) %MON vort_r_min                   =  -1.5305166416270E-08
(PID.TID 0000.0001) %MON vort_r_max                   =   1.4734456380075E-08
(PID.TID 0000.0001) %MON vort_a_mean                  =  -1.3992981961592E-04
(PID.TID 0000.0001) %MON vort_a_sd                    =   1.7365057112906E-06
(PID.TID 0000.0001) %MON vort_p_mean                  =  -1.4746660584797E-04
(PID.TID 0000.0001) %MON vort_p_sd                    =   7.7971851836583E-05
(PID.TID 0000.0001) %MON surfExpan_theta_mean         =  -6.8096963268383E-13
(PID.TID 0000.0001) %MON surfExpan_salt_mean          =  -2.7634426456582E-13
(PID.TID 0000.0001) // =======================================================
(PID.TID 0000.0001) // End MONITOR dynamic field statistics
(PID.TID 0000.0001) // =======================================================
 cg2d: Sum(rhs),rhsMax =  -1.42108547152020E-14  9.05732271018944E-05
(PID.TID 0000.0001)      cg2d_init_res =   6.26421637468932E-01
(PID.TID 0000.0001)      cg2d_iters(min,last) =      -1     206
(PID.TID 0000.0001)      cg2d_last_res =   9.55625886335812E-14
(PID.TID 0000.0001) // =======================================================
(PID.TID 0000.0001) // Begin MONITOR dynamic field statistics
(PID.TID 0000.0001) // =======================================================
(PID.TID 0000.0001) %MON time_tsnumber                =                    15
(PID.TID 0000.0001) %MON time_secondsf                =   2.7000000000000E+04
(PID.TID 0000.0001) %MON dynstat_eta_max              =   2.6861451861939E-05
(PID.TID 0000.0001) %MON dynstat_eta_min              =  -1.1943995118866E-05
(PID.TID 0000.0001) %MON dynstat_eta_mean             =   7.9855749634540E-22
(PID.TID 0000.0001) %MON dynstat_eta_sd               =   1.3925666613307E-05
(PID.TID 0000.0001) %MON dynstat_eta_del2             =   3.8652688556407E-08
(PID.TID 0000.0001) %MON dynstat_uvel_max             =   3.0908687730318E-05
(PID.TID 0000.0001) %MON dynstat_uvel_min             =  -2.0315403888482E-04
(PID.TID 0000.0001) %MON dynstat_uvel_mean            =  -4.4731393925189E-09
(PID.TID 0000.0001) %MON dynstat_uvel_sd              =   1.3258630679052E-05
(PID.TID 0000.0001) %MON dynstat_uvel_del2            =   2.7947438626889E-08
(PID.TID 0000.0001) %MON dynstat_vvel_max             =   8.6244326734389E-05
(PID.TID 0000.0001) %MON dynstat_vvel_min             =  -1.4152350920827E-05
(PID.TID 0000.0001) %MON dynstat_vvel_mean            =  -8.4319100023670E-08
(PID.TID 0000.0001) %MON dynstat_vvel_sd              =   4.6954800010621E-06
(PID.TID 0000.0001) %MON dynstat_vvel_del2            =   1.2755323715142E-08
(PID.TID 0000.0001) %MON dynstat_wvel_max             =   9.7409740048236E-07
(PID.TID 0000.0001) %MON dynstat_wvel_min             =  -9.2162188527752E-07
(PID.TID 0000.0001) %MON dynstat_wvel_mean            =  -5.2735189056300E-11
(PID.TID 0000.0001) %MON dynstat_wvel_sd              =   3.1015846376760E-08
(PID.TID 0000.0001) %MON dynstat_wvel_del2            =   1.6746463551546E-10
(PID.TID 0000.0001) %MON dynstat_theta_max            =  -1.9000000000000E+00
(PID.TID 0000.0001) %MON dynstat_theta_min            =  -1.9100848111706E+00
(PID.TID 0000.0001) %MON dynstat_theta_mean           =  -1.9000855831723E+00
(PID.TID 0000.0001) %MON dynstat_theta_sd             =   6.5952016297767E-04
(PID.TID 0000.0001) %MON dynstat_theta_del2           =   7.6501197252991E-07
(PID.TID 0000.0001) %MON dynstat_salt_max             =   3.4400000000000E+01
(PID.TID 0000.0001) %MON dynstat_salt_min             =   3.4395884633003E+01
(PID.TID 0000.0001) %MON dynstat_salt_mean            =   3.4399965242547E+01
(PID.TID 0000.0001) %MON dynstat_salt_sd              =   2.6846126981562E-04
(PID.TID 0000.0001) %MON dynstat_salt_del2            =   3.1107292189017E-07
(PID.TID 0000.0001) %MON trAdv_CFL_u_max              =   5.4871962058677E-05
(PID.TID 0000.0001) %MON trAdv_CFL_v_max              =   1.4707017266551E-05
(PID.TID 0000.0001) %MON trAdv_CFL_w_max              =   5.3587408838417E-05
(PID.TID 0000.0001) %MON advcfl_uvel_max              =   6.0447275176894E-05
(PID.TID 0000.0001) %MON advcfl_vvel_max              =   1.3963241243155E-05
(PID.TID 0000.0001) %MON advcfl_wvel_max              =   5.8445844028942E-05
(PID.TID 0000.0001) %MON advcfl_W_hf_max              =   6.5707565269476E-05
(PID.TID 0000.0001) %MON pe_b_mean                    =  -4.1186305251579E-08
(PID.TID 0000.0001) %MON ke_max                       =   2.2376743718511E-08
(PID.TID 0000.0001) %MON ke_mean                      =   9.6985259101886E-11
(PID.TID 0000.0001) %MON ke_vol                       =   3.4703745874272E+14
(PID.TID 0000.0001) %MON vort_r_min                   =  -1.4601968181622E-08
(PID.TID 0000.0001) %MON vort_r_max                   =   1.4000452995423E-08
(PID.TID 0000.0001) %MON vort_a_mean                  =  -1.3992981962901E-04
(PID.TID 0000.0001) %MON vort_a_sd                    =   1.7365055392890E-06
(PID.TID 0000.0001) %MON vort_p_mean                  =  -1.4746660586177E-04
(PID.TID 0000.0001) %MON vort_p_sd                    =   7.7971668571394E-05
(PID.TID 0000.0001) %MON surfExpan_theta_mean         =  -5.6729693415397E-13
(PID.TID 0000.0001) %MON surfExpan_salt_mean          =  -2.3000341069374E-13
(PID.TID 0000.0001) // =======================================================
(PID.TID 0000.0001) // End MONITOR dynamic field statistics
(PID.TID 0000.0001) // =======================================================
 cg2d: Sum(rhs),rhsMax =   5.77315972805081E-15  9.61585923786685E-05
(PID.TID 0000.0001)      cg2d_init_res =   5.86521738845109E-01
(PID.TID 0000.0001)      cg2d_iters(min,last) =      -1     205
(PID.TID 0000.0001)      cg2d_last_res =   9.35995978796497E-14
(PID.TID 0000.0001) // =======================================================
(PID.TID 0000.0001) // Begin MONITOR dynamic field statistics
(PID.TID 0000.0001) // =======================================================
(PID.TID 0000.0001) %MON time_tsnumber                =                    16
(PID.TID 0000.0001) %MON time_secondsf                =   2.8800000000000E+04
(PID.TID 0000.0001) %MON dynstat_eta_max              =   2.7663581415727E-05
(PID.TID 0000.0001) %MON dynstat_eta_min              =  -1.2248417814172E-05
(PID.TID 0000.0001) %MON dynstat_eta_mean             =   2.3956724890362E-21
(PID.TID 0000.0001) %MON dynstat_eta_sd               =   1.4374311147158E-05
(PID.TID 0000.0001) %MON dynstat_eta_del2             =   4.1176201646628E-08
(PID.TID 0000.0001) %MON dynstat_uvel_max             =   3.3563248415801E-05
(PID.TID 0000.0001) %MON dynstat_uvel_min             =  -2.2017061310358E-04
(PID.TID 0000.0001) %MON dynstat_uvel_mean            =  -3.4964255349403E-11
(PID.TID 0000.0001) %MON dynstat_uvel_sd              =   1.4377594206121E-05
(PID.TID 0000.0001) %MON dynstat_uvel_del2            =   3.0364185447024E-08
(PID.TID 0000.0001) %MON dynstat_vvel_max             =   8.0683093589669E-05
(PID.TID 0000.0001) %MON dynstat_vvel_min             =  -1.3612112193865E-05
(PID.TID 0000.0001) %MON dynstat_vvel_mean            =  -7.2072983712405E-08
(PID.TID 0000.0001) %MON dynstat_vvel_sd              =   4.2882052124490E-06
(PID.TID 0000.0001) %MON dynstat_vvel_del2            =   1.1976555370732E-08
(PID.TID 0000.0001) %MON dynstat_wvel_max             =   1.0471003741977E-06
(PID.TID 0000.0001) %MON dynstat_wvel_min             =  -9.8705715036530E-07
(PID.TID 0000.0001) %MON dynstat_wvel_mean            =  -4.5705429104478E-11
(PID.TID 0000.0001) %MON dynstat_wvel_sd              =   3.2744810860450E-08
(PID.TID 0000.0001) %MON dynstat_wvel_del2            =   1.6476354146200E-10
(PID.TID 0000.0001) %MON dynstat_theta_max            =  -1.9000000000000E+00
(PID.TID 0000.0001) %MON dynstat_theta_min            =  -1.9107497397973E+00
(PID.TID 0000.0001) %MON dynstat_theta_mean           =  -1.9000912366260E+00
(PID.TID 0000.0001) %MON dynstat_theta_sd             =   7.0294616272002E-04
(PID.TID 0000.0001) %MON dynstat_theta_del2           =   8.1436566186395E-07
(PID.TID 0000.0001) %MON dynstat_salt_max             =   3.4400000000000E+01
(PID.TID 0000.0001) %MON dynstat_salt_min             =   3.4395613306325E+01
(PID.TID 0000.0001) %MON dynstat_salt_mean            =   3.4399962946741E+01
(PID.TID 0000.0001) %MON dynstat_salt_sd              =   2.8613669096187E-04
(PID.TID 0000.0001) %MON dynstat_salt_del2            =   3.3113916553774E-07
(PID.TID 0000.0001) %MON trAdv_CFL_u_max              =   6.0447282849103E-05
(PID.TID 0000.0001) %MON trAdv_CFL_v_max              =   1.4031301086962E-05
(PID.TID 0000.0001) %MON trAdv_CFL_w_max              =   5.8445844028942E-05
(PID.TID 0000.0001) %MON advcfl_uvel_max              =   6.5510455559700E-05
(PID.TID 0000.0001) %MON advcfl_vvel_max              =   1.3062859236020E-05
(PID.TID 0000.0001) %MON advcfl_wvel_max              =   6.2826022451861E-05
(PID.TID 0000.0001) %MON advcfl_W_hf_max              =   6.9903028938093E-05
(PID.TID 0000.0001) %MON pe_b_mean                    =  -4.2480217795828E-08
(PID.TID 0000.0001) %MON ke_max                       =   2.5687321591397E-08
(PID.TID 0000.0001) %MON ke_mean                      =   1.1032518447312E-10
(PID.TID 0000.0001) %MON ke_vol                       =   3.4703745874272E+14
(PID.TID 0000.0001) %MON vort_r_min                   =  -1.3660399588016E-08
(PID.TID 0000.0001) %MON vort_r_max                   =   1.3038505047169E-08
(PID.TID 0000.0001) %MON vort_a_mean                  =  -1.3992981964263E-04
(PID.TID 0000.0001) %MON vort_a_sd                    =   1.7365053788446E-06
(PID.TID 0000.0001) %MON vort_p_mean                  =  -1.4746660587612E-04
(PID.TID 0000.0001) %MON vort_p_sd                    =   7.7971502203135E-05
(PID.TID 0000.0001) %MON surfExpan_theta_mean         =  -5.2245506061955E-13
(PID.TID 0000.0001) %MON surfExpan_salt_mean          =  -2.1171111985734E-13
(PID.TID 0000.0001) // =======================================================
(PID.TID 0000.0001) // End MONITOR dynamic field statistics
(PID.TID 0000.0001) // =======================================================
 cg2d: Sum(rhs),rhsMax =  -6.35047570085590E-14  1.02149781454692E-04
(PID.TID 0000.0001)      cg2d_init_res =   5.48804597459821E-01
(PID.TID 0000.0001)      cg2d_iters(min,last) =      -1     204
(PID.TID 0000.0001)      cg2d_last_res =   9.61180280717554E-14
(PID.TID 0000.0001) // =======================================================
(PID.TID 0000.0001) // Begin MONITOR dynamic field statistics
(PID.TID 0000.0001) // =======================================================
(PID.TID 0000.0001) %MON time_tsnumber                =                    17
(PID.TID 0000.0001) %MON time_secondsf                =   3.0600000000000E+04
(PID.TID 0000.0001) %MON dynstat_eta_max              =   2.8341251917376E-05
(PID.TID 0000.0001) %MON dynstat_eta_min              =  -1.2929836030357E-05
(PID.TID 0000.0001) %MON dynstat_eta_mean             =  -1.5971149926908E-21
(PID.TID 0000.0001) %MON dynstat_eta_sd               =   1.4820469346657E-05
(PID.TID 0000.0001) %MON dynstat_eta_del2             =   4.3684089762340E-08
(PID.TID 0000.0001) %MON dynstat_uvel_max             =   3.5909208072656E-05
(PID.TID 0000.0001) %MON dynstat_uvel_min             =  -2.3525011270127E-04
(PID.TID 0000.0001) %MON dynstat_uvel_mean            =   4.4621994072071E-09
(PID.TID 0000.0001) %MON dynstat_uvel_sd              =   1.5364726985078E-05
(PID.TID 0000.0001) %MON dynstat_uvel_del2            =   3.2552462070640E-08
(PID.TID 0000.0001) %MON dynstat_vvel_max             =   7.4214321309513E-05
(PID.TID 0000.0001) %MON dynstat_vvel_min             =  -1.2921720160237E-05
(PID.TID 0000.0001) %MON dynstat_vvel_mean            =  -7.1503796815684E-08
(PID.TID 0000.0001) %MON dynstat_vvel_sd              =   3.8225922015503E-06
(PID.TID 0000.0001) %MON dynstat_vvel_del2            =   1.1075342491431E-08
(PID.TID 0000.0001) %MON dynstat_wvel_max             =   1.1116656809240E-06
(PID.TID 0000.0001) %MON dynstat_wvel_min             =  -1.0565206891362E-06
(PID.TID 0000.0001) %MON dynstat_wvel_mean            =  -4.6077836349566E-11
(PID.TID 0000.0001) %MON dynstat_wvel_sd              =   3.4297449519308E-08
(PID.TID 0000.0001) %MON dynstat_wvel_del2            =   1.6163114398928E-10
(PID.TID 0000.0001) %MON dynstat_theta_max            =  -1.9000000000000E+00
(PID.TID 0000.0001) %MON dynstat_theta_min            =  -1.9114137630340E+00
(PID.TID 0000.0001) %MON dynstat_theta_mean           =  -1.9000968836651E+00
(PID.TID 0000.0001) %MON dynstat_theta_sd             =   7.4630556351431E-04
(PID.TID 0000.0001) %MON dynstat_theta_del2           =   8.6352049840970E-07
(PID.TID 0000.0001) %MON dynstat_salt_max             =   3.4400000000000E+01
(PID.TID 0000.0001) %MON dynstat_salt_min             =   3.4395342350890E+01
(PID.TID 0000.0001) %MON dynstat_salt_mean            =   3.4399960653566E+01
(PID.TID 0000.0001) %MON dynstat_salt_sd              =   3.0378483541122E-04
(PID.TID 0000.0001) %MON dynstat_salt_del2            =   3.5112428091380E-07
(PID.TID 0000.0001) %MON trAdv_CFL_u_max              =   6.5510463874547E-05
(PID.TID 0000.0001) %MON trAdv_CFL_v_max              =   1.3126530424090E-05
(PID.TID 0000.0001) %MON trAdv_CFL_w_max              =   6.2826022451861E-05
(PID.TID 0000.0001) %MON advcfl_uvel_max              =   6.9997270917716E-05
(PID.TID 0000.0001) %MON advcfl_vvel_max              =   1.2015543646520E-05
(PID.TID 0000.0001) %MON advcfl_wvel_max              =   6.6699940855443E-05
(PID.TID 0000.0001) %MON advcfl_W_hf_max              =   7.3541829978567E-05
(PID.TID 0000.0001) %MON pe_b_mean                    =  -4.3762433231786E-08
(PID.TID 0000.0001) %MON ke_max                       =   2.8821553087021E-08
(PID.TID 0000.0001) %MON ke_mean                      =   1.2284177841194E-10
(PID.TID 0000.0001) %MON ke_vol                       =   3.4703745874272E+14
(PID.TID 0000.0001) %MON vort_r_min                   =  -1.2565176161901E-08
(PID.TID 0000.0001) %MON vort_r_max                   =   1.1948272873792E-08
(PID.TID 0000.0001) %MON vort_a_mean                  =  -1.3992981965502E-04
(PID.TID 0000.0001) %MON vort_a_sd                    =   1.7365052387964E-06
(PID.TID 0000.0001) %MON vort_p_mean                  =  -1.4746660588918E-04
(PID.TID 0000.0001) %MON vort_p_sd                    =   7.7971355118990E-05
(PID.TID 0000.0001) %MON surfExpan_theta_mean         =  -5.6015856024063E-13
(PID.TID 0000.0001) %MON surfExpan_salt_mean          =  -2.2705098742510E-13
(PID.TID 0000.0001) // =======================================================
(PID.TID 0000.0001) // End MONITOR dynamic field statistics
(PID.TID 0000.0001) // =======================================================
 cg2d: Sum(rhs),rhsMax =  -6.66133814775094E-15  1.08278176571338E-04
(PID.TID 0000.0001)      cg2d_init_res =   5.14619219524562E-01
(PID.TID 0000.0001)      cg2d_iters(min,last) =      -1     204
(PID.TID 0000.0001)      cg2d_last_res =   8.61958233387075E-14
(PID.TID 0000.0001) // =======================================================
(PID.TID 0000.0001) // Begin MONITOR dynamic field statistics
(PID.TID 0000.0001) // =======================================================
(PID.TID 0000.0001) %MON time_tsnumber                =                    18
(PID.TID 0000.0001) %MON time_secondsf                =   3.2400000000000E+04
(PID.TID 0000.0001) %MON dynstat_eta_max              =   2.8980452489093E-05
(PID.TID 0000.0001) %MON dynstat_eta_min              =  -1.3530563493779E-05
(PID.TID 0000.0001) %MON dynstat_eta_mean             =  -2.9280441532665E-21
(PID.TID 0000.0001) %MON dynstat_eta_sd               =   1.5302890919359E-05
(PID.TID 0000.0001) %MON dynstat_eta_del2             =   4.6176772757935E-08
(PID.TID 0000.0001) %MON dynstat_uvel_max             =   3.7928653075707E-05
(PID.TID 0000.0001) %MON dynstat_uvel_min             =  -2.4831506991977E-04
(PID.TID 0000.0001) %MON dynstat_uvel_mean            =   8.5935052254812E-09
(PID.TID 0000.0001) %MON dynstat_uvel_sd              =   1.6213369105302E-05
(PID.TID 0000.0001) %MON dynstat_uvel_del2            =   3.4502744726947E-08
(PID.TID 0000.0001) %MON dynstat_vvel_max             =   6.7366110851848E-05
(PID.TID 0000.0001) %MON dynstat_vvel_min             =  -1.2145616886195E-05
(PID.TID 0000.0001) %MON dynstat_vvel_mean            =  -8.1078661207992E-08
(PID.TID 0000.0001) %MON dynstat_vvel_sd              =   3.3338277750950E-06
(PID.TID 0000.0001) %MON dynstat_vvel_del2            =   1.0123796341657E-08
(PID.TID 0000.0001) %MON dynstat_wvel_max             =   1.1708898208167E-06
(PID.TID 0000.0001) %MON dynstat_wvel_min             =  -1.1221725747653E-06
(PID.TID 0000.0001) %MON dynstat_wvel_mean            =  -5.2834185367599E-11
(PID.TID 0000.0001) %MON dynstat_wvel_sd              =   3.5680059104999E-08
(PID.TID 0000.0001) %MON dynstat_wvel_del2            =   1.5875721307782E-10
(PID.TID 0000.0001) %MON dynstat_theta_max            =  -1.9000000000000E+00
(PID.TID 0000.0001) %MON dynstat_theta_min            =  -1.9120768828796E+00
(PID.TID 0000.0001) %MON dynstat_theta_mean           =  -1.9001025243006E+00
(PID.TID 0000.0001) %MON dynstat_theta_sd             =   7.8959850475702E-04
(PID.TID 0000.0001) %MON dynstat_theta_del2           =   9.1247743012591E-07
(PID.TID 0000.0001) %MON dynstat_salt_max             =   3.4400000000000E+01
(PID.TID 0000.0001) %MON dynstat_salt_min             =   3.4395071765874E+01
(PID.TID 0000.0001) %MON dynstat_salt_mean            =   3.4399958363015E+01
(PID.TID 0000.0001) %MON dynstat_salt_sd              =   3.2140576041156E-04
(PID.TID 0000.0001) %MON dynstat_salt_del2            =   3.7102865498943E-07
(PID.TID 0000.0001) %MON trAdv_CFL_u_max              =   6.9997279802048E-05
(PID.TID 0000.0001) %MON trAdv_CFL_v_max              =   1.2074109992943E-05
(PID.TID 0000.0001) %MON trAdv_CFL_w_max              =   6.6699940855443E-05
(PID.TID 0000.0001) %MON advcfl_uvel_max              =   7.3884671180573E-05
(PID.TID 0000.0001) %MON advcfl_vvel_max              =   1.0906795763326E-05
(PID.TID 0000.0001) %MON advcfl_wvel_max              =   7.0253389248999E-05
(PID.TID 0000.0001) %MON advcfl_W_hf_max              =   7.6667386115158E-05
(PID.TID 0000.0001) %MON pe_b_mean                    =  -4.5153779767533E-08
(PID.TID 0000.0001) %MON ke_max                       =   3.1703394312933E-08
(PID.TID 0000.0001) %MON ke_mean                      =   1.3424225091488E-10
(PID.TID 0000.0001) %MON ke_vol                       =   3.4703745874272E+14
(PID.TID 0000.0001) %MON vort_r_min                   =  -1.1405710316550E-08
(PID.TID 0000.0001) %MON vort_r_max                   =   1.2013003060016E-08
(PID.TID 0000.0001) %MON vort_a_mean                  =  -1.3992981966456E-04
(PID.TID 0000.0001) %MON vort_a_sd                    =   1.7365051265259E-06
(PID.TID 0000.0001) %MON vort_p_mean                  =  -1.4746660589924E-04
(PID.TID 0000.0001) %MON vort_p_sd                    =   7.7971228365815E-05
(PID.TID 0000.0001) %MON surfExpan_theta_mean         =  -6.8304387773784E-13
(PID.TID 0000.0001) %MON surfExpan_salt_mean          =  -2.7709355738416E-13
(PID.TID 0000.0001) // =======================================================
(PID.TID 0000.0001) // End MONITOR dynamic field statistics
(PID.TID 0000.0001) // =======================================================
 cg2d: Sum(rhs),rhsMax =   2.88657986402541E-14  1.14313112646166E-04
(PID.TID 0000.0001)      cg2d_init_res =   4.84509030940898E-01
(PID.TID 0000.0001)      cg2d_iters(min,last) =      -1     203
(PID.TID 0000.0001)      cg2d_last_res =   9.04672565087746E-14
(PID.TID 0000.0001) // =======================================================
(PID.TID 0000.0001) // Begin MONITOR dynamic field statistics
(PID.TID 0000.0001) // =======================================================
(PID.TID 0000.0001) %MON time_tsnumber                =                    19
(PID.TID 0000.0001) %MON time_secondsf                =   3.4200000000000E+04
(PID.TID 0000.0001) %MON dynstat_eta_max              =   2.9659509492057E-05
(PID.TID 0000.0001) %MON dynstat_eta_min              =  -1.4066158476020E-05
(PID.TID 0000.0001) %MON dynstat_eta_mean             =  -5.3237166423027E-22
(PID.TID 0000.0001) %MON dynstat_eta_sd               =   1.5851042580076E-05
(PID.TID 0000.0001) %MON dynstat_eta_del2             =   4.8654653915678E-08
(PID.TID 0000.0001) %MON dynstat_uvel_max             =   3.9625524109349E-05
(PID.TID 0000.0001) %MON dynstat_uvel_min             =  -2.5942357524113E-04
(PID.TID 0000.0001) %MON dynstat_uvel_mean            =   1.2012837226172E-08
(PID.TID 0000.0001) %MON dynstat_uvel_sd              =   1.6926210668014E-05
(PID.TID 0000.0001) %MON dynstat_uvel_del2            =   3.6221680956213E-08
(PID.TID 0000.0001) %MON dynstat_vvel_max             =   6.0837681888196E-05
(PID.TID 0000.0001) %MON dynstat_vvel_min             =  -1.1348088683697E-05
(PID.TID 0000.0001) %MON dynstat_vvel_mean            =  -9.8431958168916E-08
(PID.TID 0000.0001) %MON dynstat_vvel_sd              =   2.8572616184036E-06
(PID.TID 0000.0001) %MON dynstat_vvel_del2            =   9.1912713370478E-09
(PID.TID 0000.0001) %MON dynstat_wvel_max             =   1.2252856581898E-06
(PID.TID 0000.0001) %MON dynstat_wvel_min             =  -1.1800895890531E-06
(PID.TID 0000.0001) %MON dynstat_wvel_mean            =  -6.4444848454467E-11
(PID.TID 0000.0001) %MON dynstat_wvel_sd              =   3.6904524129496E-08
(PID.TID 0000.0001) %MON dynstat_wvel_del2            =   1.5667405154528E-10
(PID.TID 0000.0001) %MON dynstat_theta_max            =  -1.9000000000000E+00
(PID.TID 0000.0001) %MON dynstat_theta_min            =  -1.9127391011227E+00
(PID.TID 0000.0001) %MON dynstat_theta_mean           =  -1.9001081585434E+00
(PID.TID 0000.0001) %MON dynstat_theta_sd             =   8.3282512549085E-04
(PID.TID 0000.0001) %MON dynstat_theta_del2           =   9.6123740676948E-07
(PID.TID 0000.0001) %MON dynstat_salt_max             =   3.4400000000000E+01
(PID.TID 0000.0001) %MON dynstat_salt_min             =   3.4394801550542E+01
(PID.TID 0000.0001) %MON dynstat_salt_mean            =   3.4399956075086E+01
(PID.TID 0000.0001) %MON dynstat_salt_sd              =   3.3899952306514E-04
(PID.TID 0000.0001) %MON dynstat_salt_del2            =   3.9085267555391E-07
(PID.TID 0000.0001) %MON trAdv_CFL_u_max              =   7.3884680558309E-05
(PID.TID 0000.0001) %MON trAdv_CFL_v_max              =   1.0959957833876E-05
(PID.TID 0000.0001) %MON trAdv_CFL_w_max              =   7.0253389248999E-05
(PID.TID 0000.0001) %MON advcfl_uvel_max              =   7.7189940825469E-05
(PID.TID 0000.0001) %MON advcfl_vvel_max              =   9.8498215598047E-06
(PID.TID 0000.0001) %MON advcfl_wvel_max              =   7.3517139491389E-05
(PID.TID 0000.0001) %MON advcfl_W_hf_max              =   7.9353875262069E-05
(PID.TID 0000.0001) %MON pe_b_mean                    =  -4.6747200833279E-08
(PID.TID 0000.0001) %MON ke_max                       =   3.4289779463727E-08
(PID.TID 0000.0001) %MON ke_mean                      =   1.4435842937530E-10
(PID.TID 0000.0001) %MON ke_vol                       =   3.4703745874272E+14
(PID.TID 0000.0001) %MON vort_r_min                   =  -1.0269956324310E-08
(PID.TID 0000.0001) %MON vort_r_max                   =   1.2554496902251E-08
(PID.TID 0000.0001) %MON vort_a_mean                  =  -1.3992981966999E-04
(PID.TID 0000.0001) %MON vort_a_sd                    =   1.7365050469358E-06
(PID.TID 0000.0001) %MON vort_p_mean                  =  -1.4746660590496E-04
(PID.TID 0000.0001) %MON vort_p_sd                    =   7.7971121649065E-05
(PID.TID 0000.0001) %MON surfExpan_theta_mean         =  -8.8358618951916E-13
(PID.TID 0000.0001) %MON surfExpan_salt_mean          =  -3.5877007727729E-13
(PID.TID 0000.0001) // =======================================================
(PID.TID 0000.0001) // End MONITOR dynamic field statistics
(PID.TID 0000.0001) // =======================================================
 cg2d: Sum(rhs),rhsMax =   9.76996261670138E-15  1.20256497811861E-04
(PID.TID 0000.0001)      cg2d_init_res =   4.57792421869000E-01
(PID.TID 0000.0001)      cg2d_iters(min,last) =      -1     202
(PID.TID 0000.0001)      cg2d_last_res =   8.95396906937621E-14
(PID.TID 0000.0001) // =======================================================
(PID.TID 0000.0001) // Begin MONITOR dynamic field statistics
(PID.TID 0000.0001) // =======================================================
(PID.TID 0000.0001) %MON time_tsnumber                =                    20
(PID.TID 0000.0001) %MON time_secondsf                =   3.6000000000000E+04
(PID.TID 0000.0001) %MON dynstat_eta_max              =   3.0443394817762E-05
(PID.TID 0000.0001) %MON dynstat_eta_min              =  -1.4555454586715E-05
(PID.TID 0000.0001) %MON dynstat_eta_mean             =  -1.8633008248059E-21
(PID.TID 0000.0001) %MON dynstat_eta_sd               =   1.6484029760811E-05
(PID.TID 0000.0001) %MON dynstat_eta_del2             =   5.1118107588703E-08
(PID.TID 0000.0001) %MON dynstat_uvel_max             =   4.1024147824527E-05
(PID.TID 0000.0001) %MON dynstat_uvel_min             =  -2.6875900494030E-04
(PID.TID 0000.0001) %MON dynstat_uvel_mean            =   1.4489120815585E-08
(PID.TID 0000.0001) %MON dynstat_uvel_sd              =   1.7514655363322E-05
(PID.TID 0000.0001) %MON dynstat_uvel_del2            =   3.7730377849687E-08
(PID.TID 0000.0001) %MON dynstat_vvel_max             =   5.5205936438412E-05
(PID.TID 0000.0001) %MON dynstat_vvel_min             =  -1.0589437027915E-05
(PID.TID 0000.0001) %MON dynstat_vvel_mean            =  -1.2080427320142E-07
(PID.TID 0000.0001) %MON dynstat_vvel_sd              =   2.4258656193445E-06
(PID.TID 0000.0001) %MON dynstat_vvel_del2            =   8.3397480640008E-09
(PID.TID 0000.0001) %MON dynstat_wvel_max             =   1.2728167470853E-06
(PID.TID 0000.0001) %MON dynstat_wvel_min             =  -1.2308494602915E-06
(PID.TID 0000.0001) %MON dynstat_wvel_mean            =  -7.9142730352053E-11
(PID.TID 0000.0001) %MON dynstat_wvel_sd              =   3.7989232159330E-08
(PID.TID 0000.0001) %MON dynstat_wvel_del2            =   1.5571035761062E-10
(PID.TID 0000.0001) %MON dynstat_theta_max            =  -1.9000000000000E+00
(PID.TID 0000.0001) %MON dynstat_theta_min            =  -1.9134004193571E+00
(PID.TID 0000.0001) %MON dynstat_theta_mean           =  -1.9001137864043E+00
(PID.TID 0000.0001) %MON dynstat_theta_sd             =   8.7598556453541E-04
(PID.TID 0000.0001) %MON dynstat_theta_del2           =   1.0098013824194E-06
(PID.TID 0000.0001) %MON dynstat_salt_max             =   3.4400000000000E+01
(PID.TID 0000.0001) %MON dynstat_salt_min             =   3.4394531704237E+01
(PID.TID 0000.0001) %MON dynstat_salt_mean            =   3.4399953789773E+01
(PID.TID 0000.0001) %MON dynstat_salt_sd              =   3.5656618038181E-04
(PID.TID 0000.0001) %MON dynstat_salt_del2            =   4.1059673222573E-07
(PID.TID 0000.0001) %MON trAdv_CFL_u_max              =   7.7189950622723E-05
(PID.TID 0000.0001) %MON trAdv_CFL_v_max              =   9.8964236552829E-06
(PID.TID 0000.0001) %MON trAdv_CFL_w_max              =   7.3517139491389E-05
(PID.TID 0000.0001) %MON advcfl_uvel_max              =   7.9967642371637E-05
(PID.TID 0000.0001) %MON advcfl_vvel_max              =   8.9380233776756E-06
(PID.TID 0000.0001) %MON advcfl_wvel_max              =   7.6369004825116E-05
(PID.TID 0000.0001) %MON advcfl_W_hf_max              =   8.1699038793742E-05
(PID.TID 0000.0001) %MON pe_b_mean                    =  -4.8603152738076E-08
(PID.TID 0000.0001) %MON ke_max                       =   3.6573650926932E-08
(PID.TID 0000.0001) %MON ke_mean                      =   1.5316266867032E-10
(PID.TID 0000.0001) %MON ke_vol                       =   3.4703745874272E+14
(PID.TID 0000.0001) %MON vort_r_min                   =  -9.2387332398181E-09
(PID.TID 0000.0001) %MON vort_r_max                   =   1.3139423323073E-08
(PID.TID 0000.0001) %MON vort_a_mean                  =  -1.3992981967049E-04
(PID.TID 0000.0001) %MON vort_a_sd                    =   1.7365050024830E-06
(PID.TID 0000.0001) %MON vort_p_mean                  =  -1.4746660590548E-04
(PID.TID 0000.0001) %MON vort_p_sd                    =   7.7971033415832E-05
(PID.TID 0000.0001) %MON surfExpan_theta_mean         =  -1.1462862760447E-12
(PID.TID 0000.0001) %MON surfExpan_salt_mean          =  -4.6576348040170E-13
(PID.TID 0000.0001) // =======================================================
(PID.TID 0000.0001) // End MONITOR dynamic field statistics
(PID.TID 0000.0001) // =======================================================
 Computing Diagnostic #    196  SHIfwFlx     Counter:      10   Parms: SM      L1      
 Computing Diagnostic #    197  SHIhtFlx     Counter:      10   Parms: SM      L1      
 Computing Diagnostic #    206  ICFfwFlx     Counter:      10   Parms: SM      MR      
 Computing Diagnostic #    207  ICFhtFlx     Counter:      10   Parms: SM      MR      
(PID.TID 0000.0001) %CHECKPOINT        20 ckptA
(PID.TID 0000.0001)   Seconds in section "ALL                    [THE_MODEL_MAIN]":
(PID.TID 0000.0001)           User time:   26.821537595242262
(PID.TID 0000.0001)         System time:  0.22795799374580383
(PID.TID 0000.0001)     Wall clock time:   27.091979026794434
(PID.TID 0000.0001)          No. starts:           1
(PID.TID 0000.0001)           No. stops:           1
(PID.TID 0000.0001)   Seconds in section "INITIALISE_FIXED       [THE_MODEL_MAIN]":
(PID.TID 0000.0001)           User time:  0.18956299405544996
(PID.TID 0000.0001)         System time:   5.9622000902891159E-002
(PID.TID 0000.0001)     Wall clock time:  0.26666903495788574
(PID.TID 0000.0001)          No. starts:           1
(PID.TID 0000.0001)           No. stops:           1
(PID.TID 0000.0001)   Seconds in section "THE_MAIN_LOOP          [THE_MODEL_MAIN]":
(PID.TID 0000.0001)           User time:   26.631923064589500
(PID.TID 0000.0001)         System time:  0.16833299398422241
(PID.TID 0000.0001)     Wall clock time:   26.825268030166626
(PID.TID 0000.0001)          No. starts:           1
(PID.TID 0000.0001)           No. stops:           1
(PID.TID 0000.0001)   Seconds in section "INITIALISE_VARIA    [THE_MAIN_LOOP]":
(PID.TID 0000.0001)           User time:  0.36788801848888397
(PID.TID 0000.0001)         System time:   8.0035999417304993E-002
(PID.TID 0000.0001)     Wall clock time:  0.44856905937194824
(PID.TID 0000.0001)          No. starts:           1
(PID.TID 0000.0001)           No. stops:           1
(PID.TID 0000.0001)   Seconds in section "MAIN LOOP           [THE_MAIN_LOOP]":
(PID.TID 0000.0001)           User time:   26.264013409614563
(PID.TID 0000.0001)         System time:   8.8293999433517456E-002
(PID.TID 0000.0001)     Wall clock time:   26.376673936843872
(PID.TID 0000.0001)          No. starts:           1
(PID.TID 0000.0001)           No. stops:           1
(PID.TID 0000.0001)   Seconds in section "MAIN_DO_LOOP        [THE_MAIN_LOOP]":
(PID.TID 0000.0001)           User time:   26.263859093189240
(PID.TID 0000.0001)         System time:   8.8292002677917480E-002
(PID.TID 0000.0001)     Wall clock time:   26.376515150070190
(PID.TID 0000.0001)          No. starts:          20
(PID.TID 0000.0001)           No. stops:          20
(PID.TID 0000.0001)   Seconds in section "FORWARD_STEP        [MAIN_DO_LOOP]":
(PID.TID 0000.0001)           User time:   26.263574242591858
(PID.TID 0000.0001)         System time:   8.8288977742195129E-002
(PID.TID 0000.0001)     Wall clock time:   26.376225233078003
(PID.TID 0000.0001)          No. starts:          20
(PID.TID 0000.0001)           No. stops:          20
(PID.TID 0000.0001)   Seconds in section "DO_STATEVARS_DIAGS  [FORWARD_STEP]":
(PID.TID 0000.0001)           User time:   8.7869167327880859E-004
(PID.TID 0000.0001)         System time:   1.4007091522216797E-005
(PID.TID 0000.0001)     Wall clock time:   8.9073181152343750E-004
(PID.TID 0000.0001)          No. starts:          40
(PID.TID 0000.0001)           No. stops:          40
(PID.TID 0000.0001)   Seconds in section "LOAD_FIELDS_DRIVER  [FORWARD_STEP]":
(PID.TID 0000.0001)           User time:   4.5782327651977539E-004
(PID.TID 0000.0001)         System time:   1.1980533599853516E-005
(PID.TID 0000.0001)     Wall clock time:   4.7659873962402344E-004
(PID.TID 0000.0001)          No. starts:          20
(PID.TID 0000.0001)           No. stops:          20
(PID.TID 0000.0001)   Seconds in section "EXTERNAL_FLDS_LOAD [LOAD_FLDS_DRIVER]":
(PID.TID 0000.0001)           User time:   1.6587972640991211E-004
(PID.TID 0000.0001)         System time:   5.9902667999267578E-006
(PID.TID 0000.0001)     Wall clock time:   1.6903877258300781E-004
(PID.TID 0000.0001)          No. starts:          20
(PID.TID 0000.0001)           No. stops:          20
(PID.TID 0000.0001)   Seconds in section "DO_ATMOSPHERIC_PHYS [FORWARD_STEP]":
(PID.TID 0000.0001)           User time:   1.7011165618896484E-004
(PID.TID 0000.0001)         System time:   7.0035457611083984E-006
(PID.TID 0000.0001)     Wall clock time:   1.8024444580078125E-004
(PID.TID 0000.0001)          No. starts:          20
(PID.TID 0000.0001)           No. stops:          20
(PID.TID 0000.0001)   Seconds in section "DO_OCEANIC_PHYS     [FORWARD_STEP]":
(PID.TID 0000.0001)           User time:  0.54756706953048706
(PID.TID 0000.0001)         System time:   8.3550214767456055E-003
(PID.TID 0000.0001)     Wall clock time:  0.55597567558288574
(PID.TID 0000.0001)          No. starts:          20
(PID.TID 0000.0001)           No. stops:          20
(PID.TID 0000.0001)   Seconds in section "SHELFICE_THERMODYNAMICS [DO_OCEANIC_PHYS]":
(PID.TID 0000.0001)           User time:   4.9606978893280029E-002
(PID.TID 0000.0001)         System time:   7.1899592876434326E-004
(PID.TID 0000.0001)     Wall clock time:   5.0371170043945312E-002
(PID.TID 0000.0001)          No. starts:          20
(PID.TID 0000.0001)           No. stops:          20
(PID.TID 0000.0001)   Seconds in section "ICEFRONT_THERMODYNAMICS [DO_OCEANIC_PHYS]":
(PID.TID 0000.0001)           User time:  0.11437302827835083
(PID.TID 0000.0001)         System time:   3.9810091257095337E-003
(PID.TID 0000.0001)     Wall clock time:  0.11838579177856445
(PID.TID 0000.0001)          No. starts:          20
(PID.TID 0000.0001)           No. stops:          20
(PID.TID 0000.0001)   Seconds in section "THERMODYNAMICS      [FORWARD_STEP]":
(PID.TID 0000.0001)           User time:   4.9656869173049927
(PID.TID 0000.0001)         System time:   3.9449930191040039E-003
(PID.TID 0000.0001)     Wall clock time:   4.9709568023681641
(PID.TID 0000.0001)          No. starts:          20
(PID.TID 0000.0001)           No. stops:          20
(PID.TID 0000.0001)   Seconds in section "DYNAMICS            [FORWARD_STEP]":
(PID.TID 0000.0001)           User time:   9.5239104032516479
(PID.TID 0000.0001)         System time:   3.9935111999511719E-006
(PID.TID 0000.0001)     Wall clock time:   9.5259652137756348
(PID.TID 0000.0001)          No. starts:          20
(PID.TID 0000.0001)           No. stops:          20
(PID.TID 0000.0001)   Seconds in section "UPDATE_SURF_DR      [FORWARD_STEP]":
(PID.TID 0000.0001)           User time:  0.13153982162475586
(PID.TID 0000.0001)         System time:   4.1789859533309937E-003
(PID.TID 0000.0001)     Wall clock time:  0.13574433326721191
(PID.TID 0000.0001)          No. starts:          20
(PID.TID 0000.0001)           No. stops:          20
(PID.TID 0000.0001)   Seconds in section "SOLVE_FOR_PRESSURE  [FORWARD_STEP]":
(PID.TID 0000.0001)           User time:   5.4095916748046875
(PID.TID 0000.0001)         System time:   4.0059834718704224E-003
(PID.TID 0000.0001)     Wall clock time:   5.4145259857177734
(PID.TID 0000.0001)          No. starts:          20
(PID.TID 0000.0001)           No. stops:          20
(PID.TID 0000.0001)   Seconds in section "MOM_CORRECTION_STEP [FORWARD_STEP]":
(PID.TID 0000.0001)           User time:  0.34327614307403564
(PID.TID 0000.0001)         System time:   3.8749873638153076E-003
(PID.TID 0000.0001)     Wall clock time:  0.34725522994995117
(PID.TID 0000.0001)          No. starts:          20
(PID.TID 0000.0001)           No. stops:          20
(PID.TID 0000.0001)   Seconds in section "INTEGR_CONTINUITY   [FORWARD_STEP]":
(PID.TID 0000.0001)           User time:  0.58397328853607178
(PID.TID 0000.0001)         System time:   1.1011958122253418E-005
(PID.TID 0000.0001)     Wall clock time:  0.58411002159118652
(PID.TID 0000.0001)          No. starts:          20
(PID.TID 0000.0001)           No. stops:          20
(PID.TID 0000.0001)   Seconds in section "TRC_CORRECTION_STEP [FORWARD_STEP]":
(PID.TID 0000.0001)           User time:   1.1044220924377441
(PID.TID 0000.0001)         System time:   2.9951333999633789E-006
(PID.TID 0000.0001)     Wall clock time:   1.1049659252166748
(PID.TID 0000.0001)          No. starts:          20
(PID.TID 0000.0001)           No. stops:          20
(PID.TID 0000.0001)   Seconds in section "BLOCKING_EXCHANGES  [FORWARD_STEP]":
(PID.TID 0000.0001)           User time:  0.27476203441619873
(PID.TID 0000.0001)         System time:   9.9837779998779297E-007
(PID.TID 0000.0001)     Wall clock time:  0.27483177185058594
(PID.TID 0000.0001)          No. starts:          20
(PID.TID 0000.0001)           No. stops:          20
(PID.TID 0000.0001)   Seconds in section "MONITOR             [FORWARD_STEP]":
(PID.TID 0000.0001)           User time:   3.1625335216522217
(PID.TID 0000.0001)         System time:   3.8459897041320801E-003
(PID.TID 0000.0001)     Wall clock time:   3.1670207977294922
(PID.TID 0000.0001)          No. starts:          20
(PID.TID 0000.0001)           No. stops:          20
(PID.TID 0000.0001)   Seconds in section "DO_THE_MODEL_IO     [FORWARD_STEP]":
(PID.TID 0000.0001)           User time:  0.10925579071044922
(PID.TID 0000.0001)         System time:   2.3967996239662170E-002
(PID.TID 0000.0001)     Wall clock time:  0.15224575996398926
(PID.TID 0000.0001)          No. starts:          20
(PID.TID 0000.0001)           No. stops:          20
(PID.TID 0000.0001)   Seconds in section "DO_WRITE_PICKUP     [FORWARD_STEP]":
(PID.TID 0000.0001)           User time:  0.10224211215972900
(PID.TID 0000.0001)         System time:   3.5982996225357056E-002
(PID.TID 0000.0001)     Wall clock time:  0.13822650909423828
(PID.TID 0000.0001)          No. starts:          20
(PID.TID 0000.0001)           No. stops:          20
(PID.TID 0000.0001) // ======================================================
(PID.TID 0000.0001) // Tile <-> Tile communication statistics
(PID.TID 0000.0001) // ======================================================
(PID.TID 0000.0001) // o Tile number: 000001
(PID.TID 0000.0001) //         No. X exchanges =              0
(PID.TID 0000.0001) //            Max. X spins =              0
(PID.TID 0000.0001) //            Min. X spins =     1000000000
(PID.TID 0000.0001) //          Total. X spins =              0
(PID.TID 0000.0001) //            Avg. X spins =       0.00E+00
(PID.TID 0000.0001) //         No. Y exchanges =              0
(PID.TID 0000.0001) //            Max. Y spins =              0
(PID.TID 0000.0001) //            Min. Y spins =     1000000000
(PID.TID 0000.0001) //          Total. Y spins =              0
(PID.TID 0000.0001) //            Avg. Y spins =       0.00E+00
(PID.TID 0000.0001) // o Tile number: 000002
(PID.TID 0000.0001) //         No. X exchanges =              0
(PID.TID 0000.0001) //            Max. X spins =              0
(PID.TID 0000.0001) //            Min. X spins =     1000000000
(PID.TID 0000.0001) //          Total. X spins =              0
(PID.TID 0000.0001) //            Avg. X spins =       0.00E+00
(PID.TID 0000.0001) //         No. Y exchanges =              0
(PID.TID 0000.0001) //            Max. Y spins =              0
(PID.TID 0000.0001) //            Min. Y spins =     1000000000
(PID.TID 0000.0001) //          Total. Y spins =              0
(PID.TID 0000.0001) //            Avg. Y spins =       0.00E+00
(PID.TID 0000.0001) // o Tile number: 000003
(PID.TID 0000.0001) //         No. X exchanges =              0
(PID.TID 0000.0001) //            Max. X spins =              0
(PID.TID 0000.0001) //            Min. X spins =     1000000000
(PID.TID 0000.0001) //          Total. X spins =              0
(PID.TID 0000.0001) //            Avg. X spins =       0.00E+00
(PID.TID 0000.0001) //         No. Y exchanges =              0
(PID.TID 0000.0001) //            Max. Y spins =              0
(PID.TID 0000.0001) //            Min. Y spins =     1000000000
(PID.TID 0000.0001) //          Total. Y spins =              0
(PID.TID 0000.0001) //            Avg. Y spins =       0.00E+00
(PID.TID 0000.0001) // o Tile number: 000004
(PID.TID 0000.0001) //         No. X exchanges =              0
(PID.TID 0000.0001) //            Max. X spins =              0
(PID.TID 0000.0001) //            Min. X spins =     1000000000
(PID.TID 0000.0001) //          Total. X spins =              0
(PID.TID 0000.0001) //            Avg. X spins =       0.00E+00
(PID.TID 0000.0001) //         No. Y exchanges =              0
(PID.TID 0000.0001) //            Max. Y spins =              0
(PID.TID 0000.0001) //            Min. Y spins =     1000000000
(PID.TID 0000.0001) //          Total. Y spins =              0
(PID.TID 0000.0001) //            Avg. Y spins =       0.00E+00
(PID.TID 0000.0001) // o Tile number: 000005
(PID.TID 0000.0001) //         No. X exchanges =              0
(PID.TID 0000.0001) //            Max. X spins =              0
(PID.TID 0000.0001) //            Min. X spins =     1000000000
(PID.TID 0000.0001) //          Total. X spins =              0
(PID.TID 0000.0001) //            Avg. X spins =       0.00E+00
(PID.TID 0000.0001) //         No. Y exchanges =              0
(PID.TID 0000.0001) //            Max. Y spins =              0
(PID.TID 0000.0001) //            Min. Y spins =     1000000000
(PID.TID 0000.0001) //          Total. Y spins =              0
(PID.TID 0000.0001) //            Avg. Y spins =       0.00E+00
(PID.TID 0000.0001) // o Tile number: 000006
(PID.TID 0000.0001) //         No. X exchanges =              0
(PID.TID 0000.0001) //            Max. X spins =              0
(PID.TID 0000.0001) //            Min. X spins =     1000000000
(PID.TID 0000.0001) //          Total. X spins =              0
(PID.TID 0000.0001) //            Avg. X spins =       0.00E+00
(PID.TID 0000.0001) //         No. Y exchanges =              0
(PID.TID 0000.0001) //            Max. Y spins =              0
(PID.TID 0000.0001) //            Min. Y spins =     1000000000
(PID.TID 0000.0001) //          Total. Y spins =              0
(PID.TID 0000.0001) //            Avg. Y spins =       0.00E+00
(PID.TID 0000.0001) // o Tile number: 000007
(PID.TID 0000.0001) //         No. X exchanges =              0
(PID.TID 0000.0001) //            Max. X spins =              0
(PID.TID 0000.0001) //            Min. X spins =     1000000000
(PID.TID 0000.0001) //          Total. X spins =              0
(PID.TID 0000.0001) //            Avg. X spins =       0.00E+00
(PID.TID 0000.0001) //         No. Y exchanges =              0
(PID.TID 0000.0001) //            Max. Y spins =              0
(PID.TID 0000.0001) //            Min. Y spins =     1000000000
(PID.TID 0000.0001) //          Total. Y spins =              0
(PID.TID 0000.0001) //            Avg. Y spins =       0.00E+00
(PID.TID 0000.0001) // o Tile number: 000008
(PID.TID 0000.0001) //         No. X exchanges =              0
(PID.TID 0000.0001) //            Max. X spins =              0
(PID.TID 0000.0001) //            Min. X spins =     1000000000
(PID.TID 0000.0001) //          Total. X spins =              0
(PID.TID 0000.0001) //            Avg. X spins =       0.00E+00
(PID.TID 0000.0001) //         No. Y exchanges =              0
(PID.TID 0000.0001) //            Max. Y spins =              0
(PID.TID 0000.0001) //            Min. Y spins =     1000000000
(PID.TID 0000.0001) //          Total. Y spins =              0
(PID.TID 0000.0001) //            Avg. Y spins =       0.00E+00
(PID.TID 0000.0001) // o Thread number: 000001
(PID.TID 0000.0001) //            No. barriers =          28560
(PID.TID 0000.0001) //      Max. barrier spins =              1
(PID.TID 0000.0001) //      Min. barrier spins =              1
(PID.TID 0000.0001) //     Total barrier spins =          28560
(PID.TID 0000.0001) //      Avg. barrier spins =       1.00E+00
PROGRAM MAIN: Execution ended Normally
