(PID.TID 0000.0001) 
(PID.TID 0000.0001) // ======================================================
(PID.TID 0000.0001) //                      MITgcm UV
(PID.TID 0000.0001) //                      =========
(PID.TID 0000.0001) // ======================================================
(PID.TID 0000.0001) // execution environment starting up...
(PID.TID 0000.0001) 
(PID.TID 0000.0001) // MITgcmUV version:  checkpoint68i
(PID.TID 0000.0001) // Build user:        jm_c
(PID.TID 0000.0001) // Build host:        villon
(PID.TID 0000.0001) // Build date:        Thu Jun 16 11:10:29 EDT 2022
(PID.TID 0000.0001) 
(PID.TID 0000.0001) // =======================================================
(PID.TID 0000.0001) // Execution Environment parameter file "eedata"
(PID.TID 0000.0001) // =======================================================
(PID.TID 0000.0001) ># Example "eedata" file
(PID.TID 0000.0001) ># Lines beginning "#" are comments
(PID.TID 0000.0001) >#  nTx      :: No. threads per process in X
(PID.TID 0000.0001) >#  nTy      :: No. threads per process in Y
(PID.TID 0000.0001) ># debugMode :: print debug msg (sequence of S/R calls)
(PID.TID 0000.0001) > &EEPARMS
(PID.TID 0000.0001) > nTx=1,
(PID.TID 0000.0001) > nTy=1,
(PID.TID 0000.0001) >#debugMode=.TRUE.,
(PID.TID 0000.0001) > /
(PID.TID 0000.0001) ># Note: Some systems use & as the namelist terminator (as shown here).
(PID.TID 0000.0001) >#       Other systems use a / character.
(PID.TID 0000.0001) 
(PID.TID 0000.0001) // =======================================================
(PID.TID 0000.0001) // Computational Grid Specification ( see files "SIZE.h" )
(PID.TID 0000.0001) //                                  ( and "eedata"       )
(PID.TID 0000.0001) // =======================================================
(PID.TID 0000.0001)      nPx =    1 ; /* No. processes in X */
(PID.TID 0000.0001)      nPy =    1 ; /* No. processes in Y */
(PID.TID 0000.0001)      nSx =    2 ; /* No. tiles in X per process */
(PID.TID 0000.0001)      nSy =    4 ; /* No. tiles in Y per process */
(PID.TID 0000.0001)      sNx =   25 ; /* Tile size in X */
(PID.TID 0000.0001)      sNy =   25 ; /* Tile size in Y */
(PID.TID 0000.0001)      OLx =    3 ; /* Tile overlap distance in X */
(PID.TID 0000.0001)      OLy =    3 ; /* Tile overlap distance in Y */
(PID.TID 0000.0001)      nTx =    1 ; /* No. threads in X per process */
(PID.TID 0000.0001)      nTy =    1 ; /* No. threads in Y per process */
(PID.TID 0000.0001)       Nr =   30 ; /* No. levels in the vertical   */
(PID.TID 0000.0001)       Nx =   50 ; /* Total domain size in X ( = nPx*nSx*sNx ) */
(PID.TID 0000.0001)       Ny =  100 ; /* Total domain size in Y ( = nPy*nSy*sNy ) */
(PID.TID 0000.0001)   nTiles =    8 ; /* Total no. tiles per process ( = nSx*nSy ) */
(PID.TID 0000.0001)   nProcs =    1 ; /* Total no. processes ( = nPx*nPy ) */
(PID.TID 0000.0001) nThreads =    1 ; /* Total no. threads per process ( = nTx*nTy ) */
(PID.TID 0000.0001) usingMPI =    F ; /* Flag used to control whether MPI is in use */
(PID.TID 0000.0001)                   /*  note: To execute a program with MPI calls */
(PID.TID 0000.0001)                   /*  it must be launched appropriately e.g     */
(PID.TID 0000.0001)                   /*  "mpirun -np 64 ......"                    */
(PID.TID 0000.0001) useCoupler=   F ; /* Flag used to control communications with   */
(PID.TID 0000.0001)                   /*  other model components, through a coupler */
(PID.TID 0000.0001) useNest2W_parent =    F ;/* Control 2-W Nesting comm */
(PID.TID 0000.0001) useNest2W_child  =    F ;/* Control 2-W Nesting comm */
(PID.TID 0000.0001) debugMode =    F ; /* print debug msg. (sequence of S/R calls)  */
(PID.TID 0000.0001) printMapIncludesZeros=    F ; /* print zeros in Std.Output maps */
(PID.TID 0000.0001) maxLengthPrt1D=   65 /* maxLength of 1D array printed to StdOut */
(PID.TID 0000.0001) 
(PID.TID 0000.0001) // ======================================================
(PID.TID 0000.0001) // Mapping of tiles to threads
(PID.TID 0000.0001) // ======================================================
(PID.TID 0000.0001) // -o- Thread   1, tiles (   1:   2,   1:   4)
(PID.TID 0000.0001) 
(PID.TID 0000.0001) // ======================================================
(PID.TID 0000.0001) // Tile <-> Tile connectvity table
(PID.TID 0000.0001) // ======================================================
(PID.TID 0000.0001) // Tile number: 000001 (process no. = 000000)
(PID.TID 0000.0001) //        WEST: Tile = 000002, Process = 000000, Comm = put
(PID.TID 0000.0001) //                bi = 000002, bj = 000001
(PID.TID 0000.0001) //        EAST: Tile = 000002, Process = 000000, Comm = put
(PID.TID 0000.0001) //                bi = 000002, bj = 000001
(PID.TID 0000.0001) //       SOUTH: Tile = 000007, Process = 000000, Comm = put
(PID.TID 0000.0001) //                bi = 000001, bj = 000004
(PID.TID 0000.0001) //       NORTH: Tile = 000003, Process = 000000, Comm = put
(PID.TID 0000.0001) //                bi = 000001, bj = 000002
(PID.TID 0000.0001) // Tile number: 000002 (process no. = 000000)
(PID.TID 0000.0001) //        WEST: Tile = 000001, Process = 000000, Comm = put
(PID.TID 0000.0001) //                bi = 000001, bj = 000001
(PID.TID 0000.0001) //        EAST: Tile = 000001, Process = 000000, Comm = put
(PID.TID 0000.0001) //                bi = 000001, bj = 000001
(PID.TID 0000.0001) //       SOUTH: Tile = 000008, Process = 000000, Comm = put
(PID.TID 0000.0001) //                bi = 000002, bj = 000004
(PID.TID 0000.0001) //       NORTH: Tile = 000004, Process = 000000, Comm = put
(PID.TID 0000.0001) //                bi = 000002, bj = 000002
(PID.TID 0000.0001) // Tile number: 000003 (process no. = 000000)
(PID.TID 0000.0001) //        WEST: Tile = 000004, Process = 000000, Comm = put
(PID.TID 0000.0001) //                bi = 000002, bj = 000002
(PID.TID 0000.0001) //        EAST: Tile = 000004, Process = 000000, Comm = put
(PID.TID 0000.0001) //                bi = 000002, bj = 000002
(PID.TID 0000.0001) //       SOUTH: Tile = 000001, Process = 000000, Comm = put
(PID.TID 0000.0001) //                bi = 000001, bj = 000001
(PID.TID 0000.0001) //       NORTH: Tile = 000005, Process = 000000, Comm = put
(PID.TID 0000.0001) //                bi = 000001, bj = 000003
(PID.TID 0000.0001) // Tile number: 000004 (process no. = 000000)
(PID.TID 0000.0001) //        WEST: Tile = 000003, Process = 000000, Comm = put
(PID.TID 0000.0001) //                bi = 000001, bj = 000002
(PID.TID 0000.0001) //        EAST: Tile = 000003, Process = 000000, Comm = put
(PID.TID 0000.0001) //                bi = 000001, bj = 000002
(PID.TID 0000.0001) //       SOUTH: Tile = 000002, Process = 000000, Comm = put
(PID.TID 0000.0001) //                bi = 000002, bj = 000001
(PID.TID 0000.0001) //       NORTH: Tile = 000006, Process = 000000, Comm = put
(PID.TID 0000.0001) //                bi = 000002, bj = 000003
(PID.TID 0000.0001) // Tile number: 000005 (process no. = 000000)
(PID.TID 0000.0001) //        WEST: Tile = 000006, Process = 000000, Comm = put
(PID.TID 0000.0001) //                bi = 000002, bj = 000003
(PID.TID 0000.0001) //        EAST: Tile = 000006, Process = 000000, Comm = put
(PID.TID 0000.0001) //                bi = 000002, bj = 000003
(PID.TID 0000.0001) //       SOUTH: Tile = 000003, Process = 000000, Comm = put
(PID.TID 0000.0001) //                bi = 000001, bj = 000002
(PID.TID 0000.0001) //       NORTH: Tile = 000007, Process = 000000, Comm = put
(PID.TID 0000.0001) //                bi = 000001, bj = 000004
(PID.TID 0000.0001) // Tile number: 000006 (process no. = 000000)
(PID.TID 0000.0001) //        WEST: Tile = 000005, Process = 000000, Comm = put
(PID.TID 0000.0001) //                bi = 000001, bj = 000003
(PID.TID 0000.0001) //        EAST: Tile = 000005, Process = 000000, Comm = put
(PID.TID 0000.0001) //                bi = 000001, bj = 000003
(PID.TID 0000.0001) //       SOUTH: Tile = 000004, Process = 000000, Comm = put
(PID.TID 0000.0001) //                bi = 000002, bj = 000002
(PID.TID 0000.0001) //       NORTH: Tile = 000008, Process = 000000, Comm = put
(PID.TID 0000.0001) //                bi = 000002, bj = 000004
(PID.TID 0000.0001) // Tile number: 000007 (process no. = 000000)
(PID.TID 0000.0001) //        WEST: Tile = 000008, Process = 000000, Comm = put
(PID.TID 0000.0001) //                bi = 000002, bj = 000004
(PID.TID 0000.0001) //        EAST: Tile = 000008, Process = 000000, Comm = put
(PID.TID 0000.0001) //                bi = 000002, bj = 000004
(PID.TID 0000.0001) //       SOUTH: Tile = 000005, Process = 000000, Comm = put
(PID.TID 0000.0001) //                bi = 000001, bj = 000003
(PID.TID 0000.0001) //       NORTH: Tile = 000001, Process = 000000, Comm = put
(PID.TID 0000.0001) //                bi = 000001, bj = 000001
(PID.TID 0000.0001) // Tile number: 000008 (process no. = 000000)
(PID.TID 0000.0001) //        WEST: Tile = 000007, Process = 000000, Comm = put
(PID.TID 0000.0001) //                bi = 000001, bj = 000004
(PID.TID 0000.0001) //        EAST: Tile = 000007, Process = 000000, Comm = put
(PID.TID 0000.0001) //                bi = 000001, bj = 000004
(PID.TID 0000.0001) //       SOUTH: Tile = 000006, Process = 000000, Comm = put
(PID.TID 0000.0001) //                bi = 000002, bj = 000003
(PID.TID 0000.0001) //       NORTH: Tile = 000002, Process = 000000, Comm = put
(PID.TID 0000.0001) //                bi = 000002, bj = 000001
(PID.TID 0000.0001) 
(PID.TID 0000.0001)  INI_PARMS: opening model parameter file "data"
(PID.TID 0000.0001)  OPEN_COPY_DATA_FILE: opening file data
(PID.TID 0000.0001) // =======================================================
(PID.TID 0000.0001) // Parameter file "data"
(PID.TID 0000.0001) // =======================================================
(PID.TID 0000.0001) ># ====================
(PID.TID 0000.0001) ># | Model parameters |
(PID.TID 0000.0001) ># ====================
(PID.TID 0000.0001) >#
(PID.TID 0000.0001) ># Continuous equation parameters
(PID.TID 0000.0001) > &PARM01
(PID.TID 0000.0001) > Tref = 30*-1.9,
(PID.TID 0000.0001) >#Sref = 30*34.4,
(PID.TID 0000.0001) > Sref = 10*34.4,
(PID.TID 0000.0001) >       34.4436872 , 34.4873744 , 34.5310616 , 34.5747488 , 34.618436  ,
(PID.TID 0000.0001) >       34.6621232 , 34.7058104 , 34.7494976 , 34.7931848 , 34.836872  ,
(PID.TID 0000.0001) >       34.8805592 , 34.9242464 , 34.9679336 , 35.0116208 , 35.05530799,
(PID.TID 0000.0001) >       35.09899519, 35.14268239, 35.18636959, 35.23005679, 35.27374399,
(PID.TID 0000.0001) > viscAz=1.E-3,
(PID.TID 0000.0001) > viscAh=600.0,
(PID.TID 0000.0001) > no_slip_sides=.FALSE.,
(PID.TID 0000.0001) > no_slip_bottom=.FALSE.,
(PID.TID 0000.0001) > diffKhT=100.0,
(PID.TID 0000.0001) > diffKzT=5.E-5,
(PID.TID 0000.0001) > diffKhS=100.0,
(PID.TID 0000.0001) > diffKzS=5.E-5,
(PID.TID 0000.0001) > bottomDragQuadratic=2.5E-3,
(PID.TID 0000.0001) > eosType='JMD95Z',
(PID.TID 0000.0001) > HeatCapacity_Cp = 3974.0,
(PID.TID 0000.0001) > rhoConst=1030.,
(PID.TID 0000.0001) > gravity=9.81,
(PID.TID 0000.0001) > implicitDiffusion=.TRUE.,
(PID.TID 0000.0001) > implicitViscosity=.TRUE.,
(PID.TID 0000.0001) > implicitFreeSurface=.TRUE.,
(PID.TID 0000.0001) > exactConserv=.TRUE.,
(PID.TID 0000.0001) ># this is needed to test the balancing code
(PID.TID 0000.0001) > useRealFreshWaterFlux = .TRUE.,
(PID.TID 0000.0001) > select_rStar=2,
(PID.TID 0000.0001) > nonlinFreeSurf=4,
(PID.TID 0000.0001) > hFacInf=0.02,
(PID.TID 0000.0001) > hFacSup=2.0,
(PID.TID 0000.0001) >#
(PID.TID 0000.0001) > hFacMin=0.05,
(PID.TID 0000.0001) > readBinaryPrec=64,
(PID.TID 0000.0001) > useSingleCpuIO = .TRUE.,
(PID.TID 0000.0001) > debugLevel=3,
(PID.TID 0000.0001) > /
(PID.TID 0000.0001) >
(PID.TID 0000.0001) ># Elliptic solver parameters
(PID.TID 0000.0001) > &PARM02
(PID.TID 0000.0001) > cg2dMaxIters=1000,
(PID.TID 0000.0001) > cg2dTargetResidual=1.E-13,
(PID.TID 0000.0001) > /
(PID.TID 0000.0001) >
(PID.TID 0000.0001) ># Time stepping parameters
(PID.TID 0000.0001) > &PARM03
(PID.TID 0000.0001) > nIter0=0,
(PID.TID 0000.0001) > nTimeSteps=12,
(PID.TID 0000.0001) > deltaT=1800.0,
(PID.TID 0000.0001) > abEps=0.1,
(PID.TID 0000.0001) > pChkptFreq=0.0,
(PID.TID 0000.0001) > chkptFreq=0.0,
(PID.TID 0000.0001) > dumpFreq=0.0,
(PID.TID 0000.0001) > monitorFreq=1.,
(PID.TID 0000.0001) > monitorSelect=2,
(PID.TID 0000.0001) > /
(PID.TID 0000.0001) >
(PID.TID 0000.0001) ># Gridding parameters
(PID.TID 0000.0001) > &PARM04
(PID.TID 0000.0001) > usingSphericalPolarGrid=.TRUE.,
(PID.TID 0000.0001) > ygOrigin = -80.0,
(PID.TID 0000.0001) > delX=50*0.3,
(PID.TID 0000.0001) > delY=100*0.1,
(PID.TID 0000.0001) > delZ=30*30.0,
(PID.TID 0000.0001) > /
(PID.TID 0000.0001) >
(PID.TID 0000.0001) ># Input datasets
(PID.TID 0000.0001) > &PARM05
(PID.TID 0000.0001) > bathyFile='bathy.box',
(PID.TID 0000.0001) > /
(PID.TID 0000.0001) 
(PID.TID 0000.0001)  INI_PARMS ; starts to read PARM01
(PID.TID 0000.0001)  INI_PARMS ; read PARM01 : OK
(PID.TID 0000.0001)  INI_PARMS ; starts to read PARM02
(PID.TID 0000.0001)  INI_PARMS ; read PARM02 : OK
(PID.TID 0000.0001)  INI_PARMS ; starts to read PARM03
(PID.TID 0000.0001)  INI_PARMS ; read PARM03 : OK
(PID.TID 0000.0001)  INI_PARMS ; starts to read PARM04
(PID.TID 0000.0001)  INI_PARMS ; read PARM04 : OK
(PID.TID 0000.0001)  INI_PARMS ; starts to read PARM05
(PID.TID 0000.0001)  INI_PARMS ; read PARM05 : OK
(PID.TID 0000.0001)  INI_PARMS: finished reading file "data"
(PID.TID 0000.0001)  PACKAGES_BOOT: opening data.pkg
(PID.TID 0000.0001)  OPEN_COPY_DATA_FILE: opening file data.pkg
(PID.TID 0000.0001) // =======================================================
(PID.TID 0000.0001) // Parameter file "data.pkg"
(PID.TID 0000.0001) // =======================================================
(PID.TID 0000.0001) ># Packages
(PID.TID 0000.0001) > &PACKAGES
(PID.TID 0000.0001) > useShelfIce=.TRUE.,
(PID.TID 0000.0001) > useGGL90=.TRUE.,
(PID.TID 0000.0001) > useOBCS=.TRUE.,
(PID.TID 0000.0001) > useDiagnostics=.TRUE.,
(PID.TID 0000.0001) >#useMNC=.TRUE.,
(PID.TID 0000.0001) > /
(PID.TID 0000.0001) 
(PID.TID 0000.0001)  PACKAGES_BOOT: finished reading data.pkg
(PID.TID 0000.0001)  PACKAGES_BOOT: On/Off package Summary
 --------  pkgs with a standard "usePKG" On/Off switch in "data.pkg":  --------
 pkg/obcs                 compiled   and   used ( useOBCS                  = T )
 pkg/ggl90                compiled   and   used ( useGGL90                 = T )
 pkg/shelfice             compiled   and   used ( useShelfIce              = T )
 pkg/icefront             compiled but not used ( useICEFRONT              = F )
 pkg/diagnostics          compiled   and   used ( useDiagnostics           = T )
 pkg/mnc                  compiled but not used ( useMNC                   = F )
 -------- pkgs without standard "usePKG" On/Off switch in "data.pkg":  --------
 pkg/generic_advdiff      compiled   and   used ( useGAD                   = T )
 pkg/mom_common           compiled   and   used ( momStepping              = T )
 pkg/mom_vecinv           compiled but not used ( +vectorInvariantMomentum = F )
 pkg/mom_fluxform         compiled   and   used ( & not vectorInvariantMom = T )
 pkg/cd_code              compiled but not used ( useCDscheme              = F )
 pkg/monitor              compiled   and   used ( monitorFreq > 0.         = T )
 pkg/debug                compiled but not used ( debugMode                = F )
 pkg/rw                   compiled   and   used
 pkg/mdsio                compiled   and   used
(PID.TID 0000.0001)  PACKAGES_BOOT: End of package Summary
(PID.TID 0000.0001) 
(PID.TID 0000.0001)  OBCS_READPARMS: opening data.obcs
(PID.TID 0000.0001)  OPEN_COPY_DATA_FILE: opening file data.obcs
(PID.TID 0000.0001) // =======================================================
(PID.TID 0000.0001) // Parameter file "data.obcs"
(PID.TID 0000.0001) // =======================================================
(PID.TID 0000.0001) ># Open-boundaries
(PID.TID 0000.0001) > &OBCS_PARM01
(PID.TID 0000.0001) ># This flag turns off checking and fixing problematic topography across
(PID.TID 0000.0001) ># open boundaries.
(PID.TID 0000.0001) > OBCSfixTopo=.FALSE.,
(PID.TID 0000.0001) > OB_Jnorth= 50*-1,
(PID.TID 0000.0001) > useOBCSprescribe = .TRUE.,
(PID.TID 0000.0001) ># not prescribing any velocity defaults to zero flow
(PID.TID 0000.0001) >#OBNuFile = ' ',
(PID.TID 0000.0001) > OBCS_monitorFreq= 1800.,
(PID.TID 0000.0001) > OBCS_monSelect = 1,
(PID.TID 0000.0001) > useOBCSbalance = .TRUE.,
(PID.TID 0000.0001) ># this flag tests balancing the surface flux
(PID.TID 0000.0001) > OBCSbalanceSurf = .TRUE.,
(PID.TID 0000.0001) ># all adjustments are made through the northern boundary
(PID.TID 0000.0001) > OBCS_balanceFacN = 1.,
(PID.TID 0000.0001) > /
(PID.TID 0000.0001) >
(PID.TID 0000.0001) 
(PID.TID 0000.0001)  OBCS_READPARMS: finished reading data.obcs
(PID.TID 0000.0001)  OB_indexUnset = /* unset OB index value (i.e. no OB) */
(PID.TID 0000.0001)                       0
(PID.TID 0000.0001)     ;
(PID.TID 0000.0001)  Northern OB global indices : OB_Jnorth =
(PID.TID 0000.0001)    50 @      100                            /* I =  1: 50 */
(PID.TID 0000.0001)  Southern OB global indices : OB_Jsouth =
(PID.TID 0000.0001)    50 @        0                            /* I =  1: 50 */
(PID.TID 0000.0001)  Eastern  OB global indices : OB_Ieast =
(PID.TID 0000.0001)   100 @        0                            /* J =  1:100 */
(PID.TID 0000.0001)  Western  OB global indices : OB_Iwest =
(PID.TID 0000.0001)   100 @        0                            /* J =  1:100 */
(PID.TID 0000.0001) 
(PID.TID 0000.0001)  GGL90_READPARMS: opening data.ggl90
(PID.TID 0000.0001)  OPEN_COPY_DATA_FILE: opening file data.ggl90
(PID.TID 0000.0001) // =======================================================
(PID.TID 0000.0001) // Parameter file "data.ggl90"
(PID.TID 0000.0001) // =======================================================
(PID.TID 0000.0001) ># =====================================================================
(PID.TID 0000.0001) ># | Parameters for Gaspar et al. (1990)'s TKE vertical mixing scheme  |
(PID.TID 0000.0001) ># =====================================================================
(PID.TID 0000.0001) > &GGL90_PARM01
(PID.TID 0000.0001) > GGL90writeState=.TRUE.,
(PID.TID 0000.0001) > mxlMaxFlag=2,
(PID.TID 0000.0001) >#- decrease Minimum TKE value @ the top (default = 1.E-4) to feel the
(PID.TID 0000.0001) >#  effect of ice-shelf bottom stress on TKE and vertical mixing:
(PID.TID 0000.0001) > GGL90TKEsurfMin= 1.E-5,
(PID.TID 0000.0001) > /
(PID.TID 0000.0001) 
(PID.TID 0000.0001)  GGL90_READPARMS ; starts to read GGL90_PARM01
(PID.TID 0000.0001)  GGL90_READPARMS: read GGL90_PARM01 : OK
(PID.TID 0000.0001)  GGL90_READPARMS: finished reading data.ggl90
(PID.TID 0000.0001) // =======================================================
(PID.TID 0000.0001) // GGL90 configuration
(PID.TID 0000.0001) // =======================================================
(PID.TID 0000.0001) GGL90dumpFreq =   /* GGL90 state write out interval ( s ). */
(PID.TID 0000.0001)                 0.000000000000000E+00
(PID.TID 0000.0001)     ;
(PID.TID 0000.0001) GGL90taveFreq =   /* GGL90 averaging interval ( s ). */
(PID.TID 0000.0001)                 1.234567000000000E+05
(PID.TID 0000.0001)     ;
(PID.TID 0000.0001) GGL90mixingMAPS =   /* GGL90 IO flag */
(PID.TID 0000.0001)                   F
(PID.TID 0000.0001)     ;
(PID.TID 0000.0001) GGL90writeState =   /* GGL90 IO flag */
(PID.TID 0000.0001)                   T
(PID.TID 0000.0001)     ;
(PID.TID 0000.0001) GGL90ck =   /* GGL90 viscosity parameter */
(PID.TID 0000.0001)                 1.000000000000000E-01
(PID.TID 0000.0001)     ;
(PID.TID 0000.0001) GGL90ceps =   /* GGL90 dissipation parameter */
(PID.TID 0000.0001)                 7.000000000000000E-01
(PID.TID 0000.0001)     ;
(PID.TID 0000.0001) GGL90alpha =   /* GGL90 TKE diffusivity parameter */
(PID.TID 0000.0001)                 1.000000000000000E+00
(PID.TID 0000.0001)     ;
(PID.TID 0000.0001) GGL90m2 =   /* GGL90 wind stress to vertical stress ratio */
(PID.TID 0000.0001)                 3.750000000000000E+00
(PID.TID 0000.0001)     ;
(PID.TID 0000.0001) GGL90TKEmin =   /* GGL90 minimum kinetic energy ( m^2/s^2 ) */
(PID.TID 0000.0001)                 9.999999999999999E-12
(PID.TID 0000.0001)     ;
(PID.TID 0000.0001) GGL90TKEsurfMin =   /* GGL90 minimum surface kinetic energy ( m^2/s^2 ) */
(PID.TID 0000.0001)                 1.000000000000000E-05
(PID.TID 0000.0001)     ;
(PID.TID 0000.0001) GGL90TKEbottom =   /* GGL90 bottom kinetic energy ( m^2/s^2 ) */
(PID.TID 0000.0001)                 9.999999999999999E-12
(PID.TID 0000.0001)     ;
(PID.TID 0000.0001) GGL90viscMax =   /* GGL90 upper limit for viscosity (m^2/s ) */
(PID.TID 0000.0001)                 1.000000000000000E+02
(PID.TID 0000.0001)     ;
(PID.TID 0000.0001) GGL90diffMax =   /* GGL90 upper limit for diffusivity (m^2/s ) */
(PID.TID 0000.0001)                 1.000000000000000E+02
(PID.TID 0000.0001)     ;
(PID.TID 0000.0001) GGL90diffTKEh =   /* GGL90 horizontal diffusivity for TKE ( m^2/s ) */
(PID.TID 0000.0001)                 0.000000000000000E+00
(PID.TID 0000.0001)     ;
(PID.TID 0000.0001) GGL90mixingLengthMin =   /* GGL90 minimum mixing length (m) */
(PID.TID 0000.0001)                 1.000000000000000E-08
(PID.TID 0000.0001)     ;
(PID.TID 0000.0001) mxlMaxFlag =   /* Flag for limiting mixing-length method */
(PID.TID 0000.0001)                       2
(PID.TID 0000.0001)     ;
(PID.TID 0000.0001) mxlSurfFlag =   /* GGL90 flag for near surface mixing */
(PID.TID 0000.0001)                   F
(PID.TID 0000.0001)     ;
(PID.TID 0000.0001) calcMeanVertShear = /* calc Mean of Vert.Shear (vs shear of Mean flow) */
(PID.TID 0000.0001)                   F
(PID.TID 0000.0001)     ;
(PID.TID 0000.0001) GGL90: GGL90TKEFile =
(PID.TID 0000.0001) GGL90_dirichlet =   /* GGL90 Boundary condition flag */
(PID.TID 0000.0001)                   T
(PID.TID 0000.0001)     ;
(PID.TID 0000.0001) // =======================================================
(PID.TID 0000.0001) // End of GGL90 config. summary
(PID.TID 0000.0001) // =======================================================
(PID.TID 0000.0001) 
(PID.TID 0000.0001)  SHELFICE_READPARMS: opening data.shelfice
(PID.TID 0000.0001)  OPEN_COPY_DATA_FILE: opening file data.shelfice
(PID.TID 0000.0001) // =======================================================
(PID.TID 0000.0001) // Parameter file "data.shelfice"
(PID.TID 0000.0001) // =======================================================
(PID.TID 0000.0001) ># ===================================
(PID.TID 0000.0001) ># | Parameters for SHELFICE package |
(PID.TID 0000.0001) ># ===================================
(PID.TID 0000.0001) > &SHELFICE_PARM01
(PID.TID 0000.0001) > SHELFICEconserve = .TRUE.,
(PID.TID 0000.0001) > SHELFICEboundaryLayer = .TRUE.,
(PID.TID 0000.0001) > SHELFICEtopoFile='icetopo.obcs',
(PID.TID 0000.0001) > SHELFICEmassFile='iceShelf_Mass.obcs',
(PID.TID 0000.0001) > SHELFICEMAssStepping = .TRUE.,
(PID.TID 0000.0001) > SHELFICEMassDynTendFile ='iceShelf_MassTend.obcs',
(PID.TID 0000.0001) > SHELFICEadvDiffHeatFlux = .TRUE.,
(PID.TID 0000.0001) > SHELFICEuseGammaFrict = .TRUE.,
(PID.TID 0000.0001) > SHELFICEselectDragQuadr = 1,
(PID.TID 0000.0001) > SHELFICEwriteState = .TRUE.,
(PID.TID 0000.0001) > /
(PID.TID 0000.0001) 
(PID.TID 0000.0001)  SHELFICE_READPARMS: finished reading data.shelfice
(PID.TID 0000.0001)  DIAGNOSTICS_READPARMS: opening data.diagnostics
(PID.TID 0000.0001)  OPEN_COPY_DATA_FILE: opening file data.diagnostics
(PID.TID 0000.0001) // =======================================================
(PID.TID 0000.0001) // Parameter file "data.diagnostics"
(PID.TID 0000.0001) // =======================================================
(PID.TID 0000.0001) ># Diagnostic Package Choices
(PID.TID 0000.0001) >#--------------------
(PID.TID 0000.0001) >#  dumpAtLast (logical): always write output at the end of simulation (default=F)
(PID.TID 0000.0001) >#  diag_mnc   (logical): write to NetCDF files (default=useMNC)
(PID.TID 0000.0001) >#--for each output-stream:
(PID.TID 0000.0001) >#  fileName(n) : prefix of the output file name (max 80c long) for outp.stream n
(PID.TID 0000.0001) >#  frequency(n):< 0 : write snap-shot output every |frequency| seconds
(PID.TID 0000.0001) >#               > 0 : write time-average output every frequency seconds
(PID.TID 0000.0001) >#  timePhase(n)     : write at time = timePhase + multiple of |frequency|
(PID.TID 0000.0001) >#    averagingFreq  : frequency (in s) for periodic averaging interval
(PID.TID 0000.0001) >#    averagingPhase : phase     (in s) for periodic averaging interval
(PID.TID 0000.0001) >#    repeatCycle    : number of averaging intervals in 1 cycle
(PID.TID 0000.0001) >#  levels(:,n) : list of levels to write to file (Notes: declared as REAL)
(PID.TID 0000.0001) >#                when this entry is missing, select all common levels of this list
(PID.TID 0000.0001) >#  fields(:,n) : list of selected diagnostics fields (8.c) in outp.stream n
(PID.TID 0000.0001) >#                (see "available_diagnostics.log" file for the full list of diags)
(PID.TID 0000.0001) >#  missing_value(n) : missing value for real-type fields in output file "n"
(PID.TID 0000.0001) >#  fileFlags(n)     : specific code (8c string) for output file "n"
(PID.TID 0000.0001) >#--------------------
(PID.TID 0000.0001) > &DIAGNOSTICS_LIST
(PID.TID 0000.0001) ># diag_mnc     = .FALSE.,
(PID.TID 0000.0001) >#--
(PID.TID 0000.0001) >  fields(1:14,1) = 'ETAN    ','ETANSQ  ','DETADT2 ',
(PID.TID 0000.0001) >                   'SHIuStar','SHIgammT','SHIgammS',
(PID.TID 0000.0001) >                   'SHIfwFlx','SHIhtFlx','SHIForcT','SHIForcS',
(PID.TID 0000.0001) >                   'TFLUX   ','SFLUX   ',
(PID.TID 0000.0001) >                   'SHI_TauX','SHI_TauY',
(PID.TID 0000.0001) >#  fileName(1) = 'surfDiag',
(PID.TID 0000.0001) >  frequency(1) =  86400.,
(PID.TID 0000.0001) >
(PID.TID 0000.0001) >  fields(1:9,2)  = 'UVEL    ','VVEL    ','WVEL    ','PHIHYD  ',
(PID.TID 0000.0001) >                   'VVELMASS','UVELMASS','WVELSQ  ',
(PID.TID 0000.0001) >                   'THETA   ','SALT    ',
(PID.TID 0000.0001) ># do not specify levels => all levels are selected
(PID.TID 0000.0001) >   fileName(2) = 'dynDiag',
(PID.TID 0000.0001) >  frequency(2) =  5184000.,
(PID.TID 0000.0001) >
(PID.TID 0000.0001) >  fields(1:4,3)  = 'GGL90TKE','GGL90Lmx','GGL90Prl','GGL90Kr ',
(PID.TID 0000.0001) >#  fileName(3) = 'ggl90Diag',
(PID.TID 0000.0001) >  frequency(3) = 1728000.,
(PID.TID 0000.0001) >
(PID.TID 0000.0001) >  fields(1:7,4) =  'ADVx_TH ','ADVy_TH ','ADVr_TH ',
(PID.TID 0000.0001) >                   'DFxE_TH ','DFyE_TH ','DFrE_TH ',
(PID.TID 0000.0001) >                   'DFrI_TH ',
(PID.TID 0000.0001) >#  fileName(4) = 'flxDiag',
(PID.TID 0000.0001) >  frequency(4) = 1728000.,
(PID.TID 0000.0001) > /
(PID.TID 0000.0001) >
(PID.TID 0000.0001) >#--------------------
(PID.TID 0000.0001) ># Parameter for Diagnostics of per level statistics:
(PID.TID 0000.0001) >#--------------------
(PID.TID 0000.0001) >#  diagSt_mnc (logical): write stat-diags to NetCDF files (default=diag_mnc)
(PID.TID 0000.0001) >#  diagSt_regMaskFile : file containing the region-mask to read-in
(PID.TID 0000.0001) >#  nSetRegMskFile   : number of region-mask sets within the region-mask file
(PID.TID 0000.0001) >#  set_regMask(i)   : region-mask set-index that identifies the region "i"
(PID.TID 0000.0001) >#  val_regMask(i)   : region "i" identifier value in the region mask
(PID.TID 0000.0001) >#--for each output-stream:
(PID.TID 0000.0001) >#  stat_fName(n) : prefix of the output file name (max 80c long) for outp.stream n
(PID.TID 0000.0001) >#  stat_freq(n):< 0 : write snap-shot output every |stat_freq| seconds
(PID.TID 0000.0001) >#               > 0 : write time-average output every stat_freq seconds
(PID.TID 0000.0001) >#  stat_phase(n)    : write at time = stat_phase + multiple of |stat_freq|
(PID.TID 0000.0001) >#  stat_region(:,n) : list of "regions" (default: 1 region only=global)
(PID.TID 0000.0001) >#  stat_fields(:,n) : list of selected diagnostics fields (8.c) in outp.stream n
(PID.TID 0000.0001) >#                (see "available_diagnostics.log" file for the full list of diags)
(PID.TID 0000.0001) >#--------------------
(PID.TID 0000.0001) > &DIAG_STATIS_PARMS
(PID.TID 0000.0001) ># diagSt_mnc = .TRUE.,
(PID.TID 0000.0001) ># The mask differentiates between (1) inside and (2) outside the cavity. The
(PID.TID 0000.0001) ># mean of ETAN outside the cavity should not drift after an initial adjustment.
(PID.TID 0000.0001) ># The initial adjustment is caused by the imperfect balance of the initial
(PID.TID 0000.0001) ># ice mass load.
(PID.TID 0000.0001) >  diagSt_regMaskFile='iceMask.obcs',
(PID.TID 0000.0001) >  nSetRegMskFile = 1,
(PID.TID 0000.0001) >  set_regMask(1:2) = 1,  1,
(PID.TID 0000.0001) >  val_regMask(1:2) = 1., 2.,
(PID.TID 0000.0001) ># an example just to check the agreement with MONITOR output:
(PID.TID 0000.0001) > stat_fields(1:6,1)  = 'ETAN    ','UVEL    ','VVEL    ','WVEL    ',
(PID.TID 0000.0001) >                       'THETA   ','SALT    ',
(PID.TID 0000.0001) >  stat_fName(1) = 'dynStDiag',
(PID.TID 0000.0001) >   stat_freq(1) = 86400.,
(PID.TID 0000.0001) ># stat_phase(1) = 0.,
(PID.TID 0000.0001) > stat_region(1:3,1) = 0, 1, 2,
(PID.TID 0000.0001) > /
(PID.TID 0000.0001) >
(PID.TID 0000.0001) 
(PID.TID 0000.0001) S/R DIAGNOSTICS_READPARMS, read namelist "diagnostics_list": start
(PID.TID 0000.0001) S/R DIAGNOSTICS_READPARMS, read namelist "diagnostics_list": OK
(PID.TID 0000.0001) S/R DIAGNOSTICS_READPARMS, read namelist "DIAG_STATIS_PARMS": start
(PID.TID 0000.0001) S/R DIAGNOSTICS_READPARMS, read namelist "DIAG_STATIS_PARMS": OK
(PID.TID 0000.0001)  DIAGNOSTICS_READPARMS: global parameter summary:
(PID.TID 0000.0001)  dumpAtLast = /* always write time-ave diags at the end */
(PID.TID 0000.0001)                   F
(PID.TID 0000.0001)     ;
(PID.TID 0000.0001)  diag_mnc =   /* write NetCDF output files */
(PID.TID 0000.0001)                   F
(PID.TID 0000.0001)     ;
(PID.TID 0000.0001)  useMissingValue = /* put MissingValue where mask = 0 */
(PID.TID 0000.0001)                   F
(PID.TID 0000.0001)     ;
(PID.TID 0000.0001)  diagCG_maxIters = /* max number of iters in diag_cg2d */
(PID.TID 0000.0001)                    1000
(PID.TID 0000.0001)     ;
(PID.TID 0000.0001)  diagCG_resTarget = /* residual target for diag_cg2d */
(PID.TID 0000.0001)                 1.000000000000000E-13
(PID.TID 0000.0001)     ;
(PID.TID 0000.0001)  diagCG_pcOffDFac = /* preconditioner off-diagonal factor */
(PID.TID 0000.0001)                 9.611687812379854E-01
(PID.TID 0000.0001)     ;
(PID.TID 0000.0001) -----------------------------------------------------
(PID.TID 0000.0001)  DIAGNOSTICS_READPARMS: active diagnostics summary:
(PID.TID 0000.0001) -----------------------------------------------------
(PID.TID 0000.0001) Creating Output Stream: dynDiag
(PID.TID 0000.0001) Output Frequency:    5184000.000000 ; Phase:           0.000000
(PID.TID 0000.0001)  Averaging Freq.:    5184000.000000 , Phase:           0.000000 , Cycle:   1
(PID.TID 0000.0001)  missing value: -9.990000000000E+02
(PID.TID 0000.0001)  Levels:    will be set later
(PID.TID 0000.0001)  Fields:    UVEL     VVEL     WVEL     PHIHYD   VVELMASS UVELMASS WVELSQ   THETA    SALT
(PID.TID 0000.0001) -----------------------------------------------------
(PID.TID 0000.0001)  DIAGNOSTICS_READPARMS: statistics diags. summary:
(PID.TID 0000.0001) Creating Stats. Output Stream: dynStDiag
(PID.TID 0000.0001) Output Frequency:      86400.000000 ; Phase:           0.000000
(PID.TID 0000.0001)  Regions:   0  1  2
(PID.TID 0000.0001)  Fields:    ETAN     UVEL     VVEL     WVEL     THETA    SALT
(PID.TID 0000.0001) -----------------------------------------------------
(PID.TID 0000.0001) 
(PID.TID 0000.0001) SET_PARMS: done
(PID.TID 0000.0001) Enter INI_VERTICAL_GRID: setInterFDr=    T ; setCenterDr=    F
(PID.TID 0000.0001) %MON XC_max                       =   1.4850000000000E+01
(PID.TID 0000.0001) %MON XC_min                       =   1.5000000000000E-01
(PID.TID 0000.0001) %MON XC_mean                      =   7.5000000000000E+00
(PID.TID 0000.0001) %MON XC_sd                        =   4.3292609068985E+00
(PID.TID 0000.0001) %MON XG_max                       =   1.4700000000000E+01
(PID.TID 0000.0001) %MON XG_min                       =   1.1102230246252E-16
(PID.TID 0000.0001) %MON XG_mean                      =   7.3500000000000E+00
(PID.TID 0000.0001) %MON XG_sd                        =   4.3292609068985E+00
(PID.TID 0000.0001) %MON DXC_max                      =   1.1380125394806E+04
(PID.TID 0000.0001) %MON DXC_min                      =   5.8203914905589E+03
(PID.TID 0000.0001) %MON DXC_mean                     =   8.6215028627207E+03
(PID.TID 0000.0001) %MON DXC_sd                       =   1.6219001271572E+03
(PID.TID 0000.0001) %MON DXF_max                      =   1.1380125394806E+04
(PID.TID 0000.0001) %MON DXF_min                      =   5.8203914905589E+03
(PID.TID 0000.0001) %MON DXF_mean                     =   8.6215028627207E+03
(PID.TID 0000.0001) %MON DXF_sd                       =   1.6219001271572E+03
(PID.TID 0000.0001) %MON DXG_max                      =   1.1352761512017E+04
(PID.TID 0000.0001) %MON DXG_min                      =   5.7917296935586E+03
(PID.TID 0000.0001) %MON DXG_mean                     =   8.5934208253080E+03
(PID.TID 0000.0001) %MON DXG_sd                       =   1.6222785520817E+03
(PID.TID 0000.0001) %MON DXV_max                      =   1.1352761512017E+04
(PID.TID 0000.0001) %MON DXV_min                      =   5.7917296935586E+03
(PID.TID 0000.0001) %MON DXV_mean                     =   8.5934208253080E+03
(PID.TID 0000.0001) %MON DXV_sd                       =   1.6222785520817E+03
(PID.TID 0000.0001) %MON YC_max                       =  -7.0050000000001E+01
(PID.TID 0000.0001) %MON YC_min                       =  -7.9950000000000E+01
(PID.TID 0000.0001) %MON YC_mean                      =  -7.5000000000000E+01
(PID.TID 0000.0001) %MON YC_sd                        =   2.8866070047720E+00
(PID.TID 0000.0001) %MON YG_max                       =  -7.0100000000001E+01
(PID.TID 0000.0001) %MON YG_min                       =  -8.0000000000000E+01
(PID.TID 0000.0001) %MON YG_mean                      =  -7.5050000000000E+01
(PID.TID 0000.0001) %MON YG_sd                        =   2.8866070047721E+00
(PID.TID 0000.0001) %MON DYC_max                      =   1.1117747335204E+04
(PID.TID 0000.0001) %MON DYC_min                      =   1.1117747335204E+04
(PID.TID 0000.0001) %MON DYC_mean                     =   1.1117747335204E+04
(PID.TID 0000.0001) %MON DYC_sd                       =   4.1836756281555E-11
(PID.TID 0000.0001) %MON DYF_max                      =   1.1117747335204E+04
(PID.TID 0000.0001) %MON DYF_min                      =   1.1117747335204E+04
(PID.TID 0000.0001) %MON DYF_mean                     =   1.1117747335204E+04
(PID.TID 0000.0001) %MON DYF_sd                       =   4.1836756281555E-11
(PID.TID 0000.0001) %MON DYG_max                      =   1.1117747335204E+04
(PID.TID 0000.0001) %MON DYG_min                      =   1.1117747335204E+04
(PID.TID 0000.0001) %MON DYG_mean                     =   1.1117747335204E+04
(PID.TID 0000.0001) %MON DYG_sd                       =   4.1836756281555E-11
(PID.TID 0000.0001) %MON DYU_max                      =   1.1117747335204E+04
(PID.TID 0000.0001) %MON DYU_min                      =   1.1117747335204E+04
(PID.TID 0000.0001) %MON DYU_mean                     =   1.1117747335204E+04
(PID.TID 0000.0001) %MON DYU_sd                       =   4.1836756281555E-11
(PID.TID 0000.0001) %MON RA_max                       =   1.2652134272379E+08
(PID.TID 0000.0001) %MON RA_min                       =   6.4709633770803E+07
(PID.TID 0000.0001) %MON RA_mean                      =   9.5851678311587E+07
(PID.TID 0000.0001) %MON RA_sd                        =   1.8031873527992E+07
(PID.TID 0000.0001) %MON RAW_max                      =   1.2652134272379E+08
(PID.TID 0000.0001) %MON RAW_min                      =   6.4709633770803E+07
(PID.TID 0000.0001) %MON RAW_mean                     =   9.5851678311587E+07
(PID.TID 0000.0001) %MON RAW_sd                       =   1.8031873527992E+07
(PID.TID 0000.0001) %MON RAS_max                      =   1.2621711802744E+08
(PID.TID 0000.0001) %MON RAS_min                      =   6.4390979194019E+07
(PID.TID 0000.0001) %MON RAS_mean                     =   9.5539469354603E+07
(PID.TID 0000.0001) %MON RAS_sd                       =   1.8036080760153E+07
(PID.TID 0000.0001) %MON RAZ_max                      =   1.2621711802744E+08
(PID.TID 0000.0001) %MON RAZ_min                      =   6.4390979194019E+07
(PID.TID 0000.0001) %MON RAZ_mean                     =   9.5539469354603E+07
(PID.TID 0000.0001) %MON RAZ_sd                       =   1.8036080760153E+07
(PID.TID 0000.0001) %MON AngleCS_max                  =   1.0000000000000E+00
(PID.TID 0000.0001) %MON AngleCS_min                  =   1.0000000000000E+00
(PID.TID 0000.0001) %MON AngleCS_mean                 =   1.0000000000000E+00
(PID.TID 0000.0001) %MON AngleCS_sd                   =   0.0000000000000E+00
(PID.TID 0000.0001) %MON AngleSN_max                  =   0.0000000000000E+00
(PID.TID 0000.0001) %MON AngleSN_min                  =   0.0000000000000E+00
(PID.TID 0000.0001) %MON AngleSN_mean                 =   0.0000000000000E+00
(PID.TID 0000.0001) %MON AngleSN_sd                   =   0.0000000000000E+00
(PID.TID 0000.0001)  MDS_WRITEVEC_LOC: open file: RhoRef.data
(PID.TID 0000.0001)  MDS_READ_FIELD: opening global file: bathy.box
(PID.TID 0000.0001) // =======================================================
(PID.TID 0000.0001) // Field Bottom depths (ini_depths)
(PID.TID 0000.0001) // CMIN =         -9.000000000000000E+02
(PID.TID 0000.0001) // CMAX =         -9.000000000000000E+02
(PID.TID 0000.0001) // CINT =          0.000000000000000E+00
(PID.TID 0000.0001) // SYMBOLS (CMIN->CMAX): -abcdefghijklmnopqrstuvwxyz+
(PID.TID 0000.0001) //                  0.0: .
(PID.TID 0000.0001) // RANGE I (Lo:Hi:Step):(    -2:    53:     1)
(PID.TID 0000.0001) // RANGE J (Lo:Hi:Step):(   103:    -2:    -1)
(PID.TID 0000.0001) // RANGE K (Lo:Hi:Step):(   1:   1:   1)
(PID.TID 0000.0001) // =======================================================
(PID.TID 0000.0001) // =======================================================
(PID.TID 0000.0001) // END OF FIELD                                          =
(PID.TID 0000.0001) // =======================================================
(PID.TID 0000.0001) 
(PID.TID 0000.0001) // =======================================================
(PID.TID 0000.0001) // Field Surface reference r-position (ini_depths)
(PID.TID 0000.0001) // CMIN =          1.000000000000000E+32
(PID.TID 0000.0001) // CMAX =         -1.000000000000000E+32
(PID.TID 0000.0001) // CINT =          0.000000000000000E+00
(PID.TID 0000.0001) // SYMBOLS (CMIN->CMAX): -abcdefghijklmnopqrstuvwxyz+
(PID.TID 0000.0001) //                  0.0: .
(PID.TID 0000.0001) // RANGE I (Lo:Hi:Step):(    -2:    53:     1)
(PID.TID 0000.0001) // RANGE J (Lo:Hi:Step):(   103:    -2:    -1)
(PID.TID 0000.0001) // RANGE K (Lo:Hi:Step):(   1:   1:   1)
(PID.TID 0000.0001) // =======================================================
(PID.TID 0000.0001) // =======================================================
(PID.TID 0000.0001) // END OF FIELD                                          =
(PID.TID 0000.0001) // =======================================================
(PID.TID 0000.0001) 
(PID.TID 0000.0001)  MDS_READ_FIELD: opening global file: icetopo.obcs
(PID.TID 0000.0001) // =======================================================
(PID.TID 0000.0001) // Field Model R_low (ini_masks_etc)
(PID.TID 0000.0001) // CMIN =         -9.000000000000000E+02
(PID.TID 0000.0001) // CMAX =         -9.000000000000000E+02
(PID.TID 0000.0001) // CINT =          0.000000000000000E+00
(PID.TID 0000.0001) // SYMBOLS (CMIN->CMAX): -abcdefghijklmnopqrstuvwxyz+
(PID.TID 0000.0001) //                  0.0: .
(PID.TID 0000.0001) // RANGE I (Lo:Hi:Step):(    -2:    53:     1)
(PID.TID 0000.0001) // RANGE J (Lo:Hi:Step):(   103:    -2:    -1)
(PID.TID 0000.0001) // RANGE K (Lo:Hi:Step):(   1:   1:   1)
(PID.TID 0000.0001) // =======================================================
(PID.TID 0000.0001) // =======================================================
(PID.TID 0000.0001) // END OF FIELD                                          =
(PID.TID 0000.0001) // =======================================================
(PID.TID 0000.0001) 
(PID.TID 0000.0001) // =======================================================
(PID.TID 0000.0001) // Field Model Ro_surf (ini_masks_etc)
(PID.TID 0000.0001) // CMIN =         -6.812500000000010E+02
(PID.TID 0000.0001) // CMAX =         -2.000000000000000E+02
(PID.TID 0000.0001) // CINT =          1.782407407407411E+01
(PID.TID 0000.0001) // SYMBOLS (CMIN->CMAX): -abcdefghijklmnopqrstuvwxyz+
(PID.TID 0000.0001) //                  0.0: .
(PID.TID 0000.0001) // RANGE I (Lo:Hi:Step):(    -2:    53:     1)
(PID.TID 0000.0001) // RANGE J (Lo:Hi:Step):(   103:    -2:    -1)
(PID.TID 0000.0001) // RANGE K (Lo:Hi:Step):(   1:   1:   1)
(PID.TID 0000.0001) // =======================================================
(PID.TID 0000.0001) K =   1
(PID.TID 0000.0001) //                I=7       I=17      I=27      I=31      I=41      I=51
(PID.TID 0000.0001) // |--J--|210123456|890123456|890123456|834567890|234567890|234567890|23
(PID.TID 0000.0001) //    103 aaa.aaaaaaaaaaaaaaaaaaaaaaaaaaaaaaaaaaaaaaaaaaaaaaaaaaaaaaa.aa
(PID.TID 0000.0001) //    102 ---.-------------------------------------------------------.--
(PID.TID 0000.0001) //    101 ..............................................................
(PID.TID 0000.0001) //    100 ..............................................................
(PID.TID 0000.0001) //     99 ..............................................................
(PID.TID 0000.0001) //     98 ..............................................................
(PID.TID 0000.0001) //     97 ..............................................................
(PID.TID 0000.0001) //     96 ..............................................................
(PID.TID 0000.0001) //     95 ..............................................................
(PID.TID 0000.0001) //     94 ..............................................................
(PID.TID 0000.0001) //     93 ..............................................................
(PID.TID 0000.0001) //     92 ..............................................................
(PID.TID 0000.0001) //     91 ..............................................................
(PID.TID 0000.0001) //     90 ..............................................................
(PID.TID 0000.0001) //     89 ..............................................................
(PID.TID 0000.0001) //     88 ..............................................................
(PID.TID 0000.0001) //     87 ..............................................................
(PID.TID 0000.0001) //     86 ..............................................................
(PID.TID 0000.0001) //     85 ..............................................................
(PID.TID 0000.0001) //     84 ..............................................................
(PID.TID 0000.0001) //     83 ..............................................................
(PID.TID 0000.0001) //     82 ..............................................................
(PID.TID 0000.0001) //     81 ..............................................................
(PID.TID 0000.0001) //     80 ..............................................................
(PID.TID 0000.0001) //     79 ..............................................................
(PID.TID 0000.0001) //     78 ..............................................................
(PID.TID 0000.0001) //     77 ..............................................................
(PID.TID 0000.0001) //     76 ..............................................................
(PID.TID 0000.0001) //     75 ..............................................................
(PID.TID 0000.0001) //     74 ..............................................................
(PID.TID 0000.0001) //     73 ..............................................................
(PID.TID 0000.0001) //     78 ..............................................................
(PID.TID 0000.0001) //     77 ..............................................................
(PID.TID 0000.0001) //     76 ..............................................................
(PID.TID 0000.0001) //     75 ..............................................................
(PID.TID 0000.0001) //     74 ..............................................................
(PID.TID 0000.0001) //     73 ..............................................................
(PID.TID 0000.0001) //     72 ..............................................................
(PID.TID 0000.0001) //     71 ..............................................................
(PID.TID 0000.0001) //     70 ..............................................................
(PID.TID 0000.0001) //     69 ..............................................................
(PID.TID 0000.0001) //     68 ..............................................................
(PID.TID 0000.0001) //     67 ..............................................................
(PID.TID 0000.0001) //     66 ..............................................................
(PID.TID 0000.0001) //     65 ..............................................................
(PID.TID 0000.0001) //     64 ..............................................................
(PID.TID 0000.0001) //     63 ..............................................................
(PID.TID 0000.0001) //     62 ..............................................................
(PID.TID 0000.0001) //     61 ..............................................................
(PID.TID 0000.0001) //     60 ..............................................................
(PID.TID 0000.0001) //     59 ..............................................................
(PID.TID 0000.0001) //     58 ..............................................................
(PID.TID 0000.0001) //     57 ..............................................................
(PID.TID 0000.0001) //     56 ..............................................................
(PID.TID 0000.0001) //     55 ..............................................................
(PID.TID 0000.0001) //     54 ..............................................................
(PID.TID 0000.0001) //     53 ..............................................................
(PID.TID 0000.0001) //     52 ..............................................................
(PID.TID 0000.0001) //     51 ..............................................................
(PID.TID 0000.0001) //     50 +++.+++++++++++++++++++++++++++++++++++++++++++++++++++++++.++
(PID.TID 0000.0001) //     49 +++.+++++++++++++++++++++++++++++++++++++++++++++++++++++++.++
(PID.TID 0000.0001) //     48 +++.+++++++++++++++++++++++++++++++++++++++++++++++++++++++.++
(PID.TID 0000.0001) //     53 ..............................................................
(PID.TID 0000.0001) //     52 ..............................................................
(PID.TID 0000.0001) //     51 ..............................................................
(PID.TID 0000.0001) //     50 +++.+++++++++++++++++++++++++++++++++++++++++++++++++++++++.++
(PID.TID 0000.0001) //     49 +++.+++++++++++++++++++++++++++++++++++++++++++++++++++++++.++
(PID.TID 0000.0001) //     48 +++.+++++++++++++++++++++++++++++++++++++++++++++++++++++++.++
(PID.TID 0000.0001) //     47 +++.+++++++++++++++++++++++++++++++++++++++++++++++++++++++.++
(PID.TID 0000.0001) //     46 +++.+++++++++++++++++++++++++++++++++++++++++++++++++++++++.++
(PID.TID 0000.0001) //     45 +++.+++++++++++++++++++++++++++++++++++++++++++++++++++++++.++
(PID.TID 0000.0001) //     44 +++.+++++++++++++++++++++++++++++++++++++++++++++++++++++++.++
(PID.TID 0000.0001) //     43 +++.+++++++++++++++++++++++++++++++++++++++++++++++++++++++.++
(PID.TID 0000.0001) //     42 +++.+++++++++++++++++++++++++++++++++++++++++++++++++++++++.++
(PID.TID 0000.0001) //     41 +++.+++++++++++++++++++++++++++++++++++++++++++++++++++++++.++
(PID.TID 0000.0001) //     40 +++.+++++++++++++++++++++++++++++++++++++++++++++++++++++++.++
(PID.TID 0000.0001) //     39 zzz.zzzzzzzzzzzzzzzzzzzzzzzzzzzzzzzzzzzzzzzzzzzzzzzzzzzzzzz.zz
(PID.TID 0000.0001) //     38 yyy.yyyyyyyyyyyyyyyyyyyyyyyyyyyyyyyyyyyyyyyyyyyyyyyyyyyyyyy.yy
(PID.TID 0000.0001) //     37 yyy.yyyyyyyyyyyyyyyyyyyyyyyyyyyyyyyyyyyyyyyyyyyyyyyyyyyyyyy.yy
(PID.TID 0000.0001) //     36 xxx.xxxxxxxxxxxxxxxxxxxxxxxxxxxxxxxxxxxxxxxxxxxxxxxxxxxxxxx.xx
(PID.TID 0000.0001) //     35 www.wwwwwwwwwwwwwwwwwwwwwwwwwwwwwwwwwwwwwwwwwwwwwwwwwwwwwww.ww
(PID.TID 0000.0001) //     34 vvv.vvvvvvvvvvvvvvvvvvvvvvvvvvvvvvvvvvvvvvvvvvvvvvvvvvvvvvv.vv
(PID.TID 0000.0001) //     33 vvv.vvvvvvvvvvvvvvvvvvvvvvvvvvvvvvvvvvvvvvvvvvvvvvvvvvvvvvv.vv
(PID.TID 0000.0001) //     32 uuu.uuuuuuuuuuuuuuuuuuuuuuuuuuuuuuuuuuuuuuuuuuuuuuuuuuuuuuu.uu
(PID.TID 0000.0001) //     31 ttt.ttttttttttttttttttttttttttttttttttttttttttttttttttttttt.tt
(PID.TID 0000.0001) //     30 ttt.ttttttttttttttttttttttttttttttttttttttttttttttttttttttt.tt
(PID.TID 0000.0001) //     29 sss.sssssssssssssssssssssssssssssssssssssssssssssssssssssss.ss
(PID.TID 0000.0001) //     28 rrr.rrrrrrrrrrrrrrrrrrrrrrrrrrrrrrrrrrrrrrrrrrrrrrrrrrrrrrr.rr
(PID.TID 0000.0001) //     27 rrr.rrrrrrrrrrrrrrrrrrrrrrrrrrrrrrrrrrrrrrrrrrrrrrrrrrrrrrr.rr
(PID.TID 0000.0001) //     26 qqq.qqqqqqqqqqqqqqqqqqqqqqqqqqqqqqqqqqqqqqqqqqqqqqqqqqqqqqq.qq
(PID.TID 0000.0001) //     25 ppp.ppppppppppppppppppppppppppppppppppppppppppppppppppppppp.pp
(PID.TID 0000.0001) //     24 ooo.ooooooooooooooooooooooooooooooooooooooooooooooooooooooo.oo
(PID.TID 0000.0001) //     23 ooo.ooooooooooooooooooooooooooooooooooooooooooooooooooooooo.oo
(PID.TID 0000.0001) //     28 rrr.rrrrrrrrrrrrrrrrrrrrrrrrrrrrrrrrrrrrrrrrrrrrrrrrrrrrrrr.rr
(PID.TID 0000.0001) //     27 rrr.rrrrrrrrrrrrrrrrrrrrrrrrrrrrrrrrrrrrrrrrrrrrrrrrrrrrrrr.rr
(PID.TID 0000.0001) //     26 qqq.qqqqqqqqqqqqqqqqqqqqqqqqqqqqqqqqqqqqqqqqqqqqqqqqqqqqqqq.qq
(PID.TID 0000.0001) //     25 ppp.ppppppppppppppppppppppppppppppppppppppppppppppppppppppp.pp
(PID.TID 0000.0001) //     24 ooo.ooooooooooooooooooooooooooooooooooooooooooooooooooooooo.oo
(PID.TID 0000.0001) //     23 ooo.ooooooooooooooooooooooooooooooooooooooooooooooooooooooo.oo
(PID.TID 0000.0001) //     22 nnn.nnnnnnnnnnnnnnnnnnnnnnnnnnnnnnnnnnnnnnnnnnnnnnnnnnnnnnn.nn
(PID.TID 0000.0001) //     21 mmm.mmmmmmmmmmmmmmmmmmmmmmmmmmmmmmmmmmmmmmmmmmmmmmmmmmmmmmm.mm
(PID.TID 0000.0001) //     20 mmm.mmmmmmmmmmmmmmmmmmmmmmmmmmmmmmmmmmmmmmmmmmmmmmmmmmmmmmm.mm
(PID.TID 0000.0001) //     19 lll.lllllllllllllllllllllllllllllllllllllllllllllllllllllll.ll
(PID.TID 0000.0001) //     18 kkk.kkkkkkkkkkkkkkkkkkkkkkkkkkkkkkkkkkkkkkkkkkkkkkkkkkkkkkk.kk
(PID.TID 0000.0001) //     17 kkk.kkkkkkkkkkkkkkkkkkkkkkkkkkkkkkkkkkkkkkkkkkkkkkkkkkkkkkk.kk
(PID.TID 0000.0001) //     16 jjj.jjjjjjjjjjjjjjjjjjjjjjjjjjjjjjjjjjjjjjjjjjjjjjjjjjjjjjj.jj
(PID.TID 0000.0001) //     15 iii.iiiiiiiiiiiiiiiiiiiiiiiiiiiiiiiiiiiiiiiiiiiiiiiiiiiiiii.ii
(PID.TID 0000.0001) //     14 hhh.hhhhhhhhhhhhhhhhhhhhhhhhhhhhhhhhhhhhhhhhhhhhhhhhhhhhhhh.hh
(PID.TID 0000.0001) //     13 hhh.hhhhhhhhhhhhhhhhhhhhhhhhhhhhhhhhhhhhhhhhhhhhhhhhhhhhhhh.hh
(PID.TID 0000.0001) //     12 ggg.ggggggggggggggggggggggggggggggggggggggggggggggggggggggg.gg
(PID.TID 0000.0001) //     11 fff.fffffffffffffffffffffffffffffffffffffffffffffffffffffff.ff
(PID.TID 0000.0001) //     10 fff.fffffffffffffffffffffffffffffffffffffffffffffffffffffff.ff
(PID.TID 0000.0001) //      9 eee.eeeeeeeeeeeeeeeeeeeeeeeeeeeeeeeeeeeeeeeeeeeeeeeeeeeeeee.ee
(PID.TID 0000.0001) //      8 ddd.ddddddddddddddddddddddddddddddddddddddddddddddddddddddd.dd
(PID.TID 0000.0001) //      7 ddd.ddddddddddddddddddddddddddddddddddddddddddddddddddddddd.dd
(PID.TID 0000.0001) //      6 ccc.ccccccccccccccccccccccccccccccccccccccccccccccccccccccc.cc
(PID.TID 0000.0001) //      5 bbb.bbbbbbbbbbbbbbbbbbbbbbbbbbbbbbbbbbbbbbbbbbbbbbbbbbbbbbb.bb
(PID.TID 0000.0001) //      4 aaa.aaaaaaaaaaaaaaaaaaaaaaaaaaaaaaaaaaaaaaaaaaaaaaaaaaaaaaa.aa
(PID.TID 0000.0001) //      3 aaa.aaaaaaaaaaaaaaaaaaaaaaaaaaaaaaaaaaaaaaaaaaaaaaaaaaaaaaa.aa
(PID.TID 0000.0001) //      2 ---.-------------------------------------------------------.--
(PID.TID 0000.0001) //      1 ..............................................................
(PID.TID 0000.0001) //      0 ..............................................................
(PID.TID 0000.0001) //     -1 ..............................................................
(PID.TID 0000.0001) //     -2 ..............................................................
(PID.TID 0000.0001) // =======================================================
(PID.TID 0000.0001) // END OF FIELD                                          =
(PID.TID 0000.0001) // =======================================================
(PID.TID 0000.0001) 
(PID.TID 0000.0001) // =======================================================
(PID.TID 0000.0001) // Field hFacC at iteration          0
(PID.TID 0000.0001) // CMIN =          1.000000000000000E+00
(PID.TID 0000.0001) // CMAX =          1.000000000000000E+00
(PID.TID 0000.0001) // CINT =          0.000000000000000E+00
(PID.TID 0000.0001) // SYMBOLS (CMIN->CMAX): -abcdefghijklmnopqrstuvwxyz+
(PID.TID 0000.0001) //                  0.0: .
(PID.TID 0000.0001) // RANGE I (Lo:Hi:Step):(    -2:    53:     1)
(PID.TID 0000.0001) // RANGE J (Lo:Hi:Step):(   103:    -2:    -1)
(PID.TID 0000.0001) // RANGE K (Lo:Hi:Step):(   1:   1:   1)
(PID.TID 0000.0001) // =======================================================
(PID.TID 0000.0001) // =======================================================
(PID.TID 0000.0001) // END OF FIELD                                          =
(PID.TID 0000.0001) // =======================================================
(PID.TID 0000.0001) 
(PID.TID 0000.0001) // =======================================================
(PID.TID 0000.0001) // Field hFacW at iteration          0
(PID.TID 0000.0001) // CMIN =          1.000000000000000E+00
(PID.TID 0000.0001) // CMAX =          1.000000000000000E+00
(PID.TID 0000.0001) // CINT =          0.000000000000000E+00
(PID.TID 0000.0001) // SYMBOLS (CMIN->CMAX): -abcdefghijklmnopqrstuvwxyz+
(PID.TID 0000.0001) //                  0.0: .
(PID.TID 0000.0001) // RANGE I (Lo:Hi:Step):(    -2:    53:     1)
(PID.TID 0000.0001) // RANGE J (Lo:Hi:Step):(   103:    -2:    -1)
(PID.TID 0000.0001) // RANGE K (Lo:Hi:Step):(   1:   1:   1)
(PID.TID 0000.0001) // =======================================================
(PID.TID 0000.0001) // =======================================================
(PID.TID 0000.0001) // END OF FIELD                                          =
(PID.TID 0000.0001) // =======================================================
(PID.TID 0000.0001) 
(PID.TID 0000.0001) // =======================================================
(PID.TID 0000.0001) // Field hFacS at iteration          0
(PID.TID 0000.0001) // CMIN =          1.000000000000000E+00
(PID.TID 0000.0001) // CMAX =          1.000000000000000E+00
(PID.TID 0000.0001) // CINT =          0.000000000000000E+00
(PID.TID 0000.0001) // SYMBOLS (CMIN->CMAX): -abcdefghijklmnopqrstuvwxyz+
(PID.TID 0000.0001) //                  0.0: .
(PID.TID 0000.0001) // RANGE I (Lo:Hi:Step):(    -2:    53:     1)
(PID.TID 0000.0001) // RANGE J (Lo:Hi:Step):(   103:    -2:    -1)
(PID.TID 0000.0001) // RANGE K (Lo:Hi:Step):(   1:   1:   1)
(PID.TID 0000.0001) // =======================================================
(PID.TID 0000.0001) // =======================================================
(PID.TID 0000.0001) // END OF FIELD                                          =
(PID.TID 0000.0001) // =======================================================
(PID.TID 0000.0001) 
(PID.TID 0000.0001) GAD_INIT_FIXED: GAD_OlMinSize=  1  0  1
(PID.TID 0000.0001) 
(PID.TID 0000.0001) // ===================================
(PID.TID 0000.0001) // GAD parameters :
(PID.TID 0000.0001) // ===================================
(PID.TID 0000.0001) tempAdvScheme =   /* Temp. Horiz.Advection scheme selector */
(PID.TID 0000.0001)                       2
(PID.TID 0000.0001)     ;
(PID.TID 0000.0001) tempVertAdvScheme =   /* Temp. Vert. Advection scheme selector */
(PID.TID 0000.0001)                       2
(PID.TID 0000.0001)     ;
(PID.TID 0000.0001) tempMultiDimAdvec =   /* use Muti-Dim Advec method for Temp */
(PID.TID 0000.0001)                   F
(PID.TID 0000.0001)     ;
(PID.TID 0000.0001) tempSOM_Advection = /* use 2nd Order Moment Advection for Temp */
(PID.TID 0000.0001)                   F
(PID.TID 0000.0001)     ;
(PID.TID 0000.0001) AdamsBashforthGt = /* apply Adams-Bashforth extrapolation on Gt */
(PID.TID 0000.0001)                   T
(PID.TID 0000.0001)     ;
(PID.TID 0000.0001) AdamsBashforth_T = /* apply Adams-Bashforth extrapolation on Temp */
(PID.TID 0000.0001)                   F
(PID.TID 0000.0001)     ;
(PID.TID 0000.0001) saltAdvScheme =   /* Salt. Horiz.advection scheme selector */
(PID.TID 0000.0001)                       2
(PID.TID 0000.0001)     ;
(PID.TID 0000.0001) saltVertAdvScheme =   /* Salt. Vert. Advection scheme selector */
(PID.TID 0000.0001)                       2
(PID.TID 0000.0001)     ;
(PID.TID 0000.0001) saltMultiDimAdvec =   /* use Muti-Dim Advec method for Salt */
(PID.TID 0000.0001)                   F
(PID.TID 0000.0001)     ;
(PID.TID 0000.0001) saltSOM_Advection = /* use 2nd Order Moment Advection for Salt */
(PID.TID 0000.0001)                   F
(PID.TID 0000.0001)     ;
(PID.TID 0000.0001) AdamsBashforthGs = /* apply Adams-Bashforth extrapolation on Gs */
(PID.TID 0000.0001)                   T
(PID.TID 0000.0001)     ;
(PID.TID 0000.0001) AdamsBashforth_S = /* apply Adams-Bashforth extrapolation on Salt */
(PID.TID 0000.0001)                   F
(PID.TID 0000.0001)     ;
(PID.TID 0000.0001) // ===================================
(PID.TID 0000.0001)  MDS_READ_FIELD: opening global file: iceShelf_Mass.obcs
(PID.TID 0000.0001)  MDS_WRITE_FIELD: it,rec,kS,kL,kH=       0     1   1   1   1 file=shelficemassinit
(PID.TID 0000.0001)  MDS_WRITE_FIELD: it,rec,kS,kL,kH=      -1     1   1   1   1 file=SHICE_pLoadAnom
(PID.TID 0000.0001)  MDS_READ_FIELD: opening global file: iceShelf_MassTend.obcs
(PID.TID 0000.0001) ------------------------------------------------------------
(PID.TID 0000.0001) DIAGNOSTICS_SET_LEVELS: done
(PID.TID 0000.0001)  Total Nb of available Diagnostics: ndiagt=   217
(PID.TID 0000.0001)  write list of available Diagnostics to file: available_diagnostics.log
(PID.TID 0000.0001) SETDIAG: Allocate 30 x  1 Levels for Diagnostic #    30 UVEL
(PID.TID 0000.0001) SETDIAG: Allocate 30 x  1 Levels for Diagnostic #    31 VVEL
(PID.TID 0000.0001) SETDIAG: Allocate 30 x  1 Levels for Diagnostic #    32 WVEL
(PID.TID 0000.0001) SETDIAG: Allocate 30 x  1 Levels for Diagnostic #    71 PHIHYD
(PID.TID 0000.0001) SETDIAG: Allocate 30 x  1 Levels for Diagnostic #    46 VVELMASS
(PID.TID 0000.0001) SETDIAG: Allocate 30 x  1 Levels for Diagnostic #    45 UVELMASS
(PID.TID 0000.0001) SETDIAG: Allocate 30 x  1 Levels for Diagnostic #    38 WVELSQ
(PID.TID 0000.0001) SETDIAG: Allocate 30 x  1 Levels for Diagnostic #    26 THETA
(PID.TID 0000.0001) SETDIAG: Allocate 30 x  1 Levels for Diagnostic #    27 SALT
(PID.TID 0000.0001)   space allocated for all diagnostics:     270 levels
(PID.TID 0000.0001)   set mate pointer for diag #    30  UVEL     , Parms: UUR     MR , mate:    31
(PID.TID 0000.0001)   set mate pointer for diag #    31  VVEL     , Parms: VVR     MR , mate:    30
(PID.TID 0000.0001)   set mate pointer for diag #    46  VVELMASS , Parms: VVr     MR , mate:    45
(PID.TID 0000.0001)   set mate pointer for diag #    45  UVELMASS , Parms: UUr     MR , mate:    46
(PID.TID 0000.0001) DIAGNOSTICS_SET_POINTERS: Set levels for Outp.Stream: dynDiag
(PID.TID 0000.0001)  Levels:       1.   2.   3.   4.   5.   6.   7.   8.   9.  10.  11.  12.  13.  14.  15.  16.  17.  18.  19.  20.
(PID.TID 0000.0001)  Levels:      21.  22.  23.  24.  25.  26.  27.  28.  29.  30.
(PID.TID 0000.0001) DIAGNOSTICS_SET_POINTERS: done
(PID.TID 0000.0001) ------------------------------------------------------------
 DIAGSTATS_SET_REGIONS: start reading region-mask file: iceMask.obcs
 DIAGSTATS_SET_REGIONS:  reading set k=  1
(PID.TID 0000.0001)  MDS_READ_FIELD: opening global file: iceMask.obcs
 DIAGSTATS_SET_REGIONS:          set k=  1 <= done
(PID.TID 0000.0001) DIAGSTATS_SET_REGIONS: define   2 regions:  1  2
(PID.TID 0000.0001) ------------------------------------------------------------
(PID.TID 0000.0001) SETDIAG: Allocate  1 Levels for Stats-Diag #    23 ETAN
(PID.TID 0000.0001) SETDIAG: Allocate 30 Levels for Stats-Diag #    30 UVEL
(PID.TID 0000.0001) SETDIAG: Allocate 30 Levels for Stats-Diag #    31 VVEL
(PID.TID 0000.0001) SETDIAG: Allocate 30 Levels for Stats-Diag #    32 WVEL
(PID.TID 0000.0001) SETDIAG: Allocate 30 Levels for Stats-Diag #    26 THETA
(PID.TID 0000.0001) SETDIAG: Allocate 30 Levels for Stats-Diag #    27 SALT
(PID.TID 0000.0001)   space allocated for all stats-diags:     151 levels
(PID.TID 0000.0001) DIAGSTATS_SET_POINTERS: done
(PID.TID 0000.0001) ------------------------------------------------------------
(PID.TID 0000.0001) DIAGSTATS_INI_IO: open file: dynStDiag.0000000000.txt , unit=     9
(PID.TID 0000.0001) %MON fCori_max                    =  -1.3709057042516E-04
(PID.TID 0000.0001) %MON fCori_min                    =  -1.4360464034757E-04
(PID.TID 0000.0001) %MON fCori_mean                   =  -1.4069429304698E-04
(PID.TID 0000.0001) %MON fCori_sd                     =   1.9069739624987E-06
(PID.TID 0000.0001) %MON fCoriG_max                   =  -1.3713394327439E-04
(PID.TID 0000.0001) %MON fCoriG_min                   =  -1.4362679550910E-04
(PID.TID 0000.0001) %MON fCoriG_mean                  =  -1.4072713798624E-04
(PID.TID 0000.0001) %MON fCoriG_sd                    =   1.9008093726821E-06
(PID.TID 0000.0001) %MON fCoriCos_max                 =   4.9761447480159E-05
(PID.TID 0000.0001) %MON fCoriCos_min                 =   2.5450607565678E-05
(PID.TID 0000.0001) %MON fCoriCos_mean                =   3.7698922201606E-05
(PID.TID 0000.0001) %MON fCoriCos_sd                  =   7.0920218535055E-06
(PID.TID 0000.0001) INI_CG2D: CG2D normalisation factor =  8.6553958581495505E-04
(PID.TID 0000.0001) 
(PID.TID 0000.0001) // =======================================================
(PID.TID 0000.0001) // Model configuration
(PID.TID 0000.0001) // =======================================================
(PID.TID 0000.0001) //
(PID.TID 0000.0001) // "Physical" paramters ( PARM01 in namelist )
(PID.TID 0000.0001) //
(PID.TID 0000.0001) buoyancyRelation = /* Type of relation to get Buoyancy */
(PID.TID 0000.0001)               'OCEANIC'
(PID.TID 0000.0001)     ;
(PID.TID 0000.0001) fluidIsAir   =  /* fluid major constituent is Air */
(PID.TID 0000.0001)                   F
(PID.TID 0000.0001)     ;
(PID.TID 0000.0001) fluidIsWater =  /* fluid major constituent is Water */
(PID.TID 0000.0001)                   T
(PID.TID 0000.0001)     ;
(PID.TID 0000.0001) usingPCoords =  /* use p (or p*) vertical coordinate */
(PID.TID 0000.0001)                   F
(PID.TID 0000.0001)     ;
(PID.TID 0000.0001) usingZCoords =  /* use z (or z*) vertical coordinate */
(PID.TID 0000.0001)                   T
(PID.TID 0000.0001)     ;
(PID.TID 0000.0001) tRef =   /* Reference temperature profile ( oC or K ) */
(PID.TID 0000.0001)    30 @ -1.900000000000000E+00              /* K =  1: 30 */
(PID.TID 0000.0001)     ;
(PID.TID 0000.0001) sRef =   /* Reference salinity profile ( g/kg ) */
(PID.TID 0000.0001)    10 @  3.440000000000000E+01,             /* K =  1: 10 */
(PID.TID 0000.0001)                 3.444368720000000E+01,      /* K = 11 */
(PID.TID 0000.0001)                 3.448737440000000E+01,      /* K = 12 */
(PID.TID 0000.0001)                 3.453106160000000E+01,      /* K = 13 */
(PID.TID 0000.0001)                 3.457474880000000E+01,      /* K = 14 */
(PID.TID 0000.0001)                 3.461843600000000E+01,      /* K = 15 */
(PID.TID 0000.0001)                 3.466212320000000E+01,      /* K = 16 */
(PID.TID 0000.0001)                 3.470581040000000E+01,      /* K = 17 */
(PID.TID 0000.0001)                 3.474949760000000E+01,      /* K = 18 */
(PID.TID 0000.0001)                 3.479318480000000E+01,      /* K = 19 */
(PID.TID 0000.0001)                 3.483687200000000E+01,      /* K = 20 */
(PID.TID 0000.0001)                 3.488055920000000E+01,      /* K = 21 */
(PID.TID 0000.0001)                 3.492424640000000E+01,      /* K = 22 */
(PID.TID 0000.0001)                 3.496793360000000E+01,      /* K = 23 */
(PID.TID 0000.0001)                 3.501162080000000E+01,      /* K = 24 */
(PID.TID 0000.0001)                 3.505530799000000E+01,      /* K = 25 */
(PID.TID 0000.0001)                 3.509899519000000E+01,      /* K = 26 */
(PID.TID 0000.0001)                 3.514268239000000E+01,      /* K = 27 */
(PID.TID 0000.0001)                 3.518636959000000E+01,      /* K = 28 */
(PID.TID 0000.0001)                 3.523005679000000E+01,      /* K = 29 */
(PID.TID 0000.0001)                 3.527374399000000E+01       /* K = 30 */
(PID.TID 0000.0001)     ;
(PID.TID 0000.0001) useStrainTensionVisc= /* Use StrainTension Form of Viscous Operator */
(PID.TID 0000.0001)                   F
(PID.TID 0000.0001)     ;
(PID.TID 0000.0001) useVariableVisc = /* Use variable horizontal viscosity */
(PID.TID 0000.0001)                   F
(PID.TID 0000.0001)     ;
(PID.TID 0000.0001) useHarmonicVisc = /* Use harmonic horizontal viscosity */
(PID.TID 0000.0001)                   T
(PID.TID 0000.0001)     ;
(PID.TID 0000.0001) useBiharmonicVisc= /* Use biharmonic horiz.  viscosity */
(PID.TID 0000.0001)                   F
(PID.TID 0000.0001)     ;
(PID.TID 0000.0001) useSmag3D = /* Use isotropic 3-D Smagorinsky viscosity */
(PID.TID 0000.0001)                   F
(PID.TID 0000.0001)     ;
(PID.TID 0000.0001) viscAh  =   /* Lateral harmonic viscosity ( m^2/s ) */
(PID.TID 0000.0001)                 6.000000000000000E+02
(PID.TID 0000.0001)     ;
(PID.TID 0000.0001) viscA4  =   /* Lateral biharmonic viscosity ( m^4/s ) */
(PID.TID 0000.0001)                 0.000000000000000E+00
(PID.TID 0000.0001)     ;
(PID.TID 0000.0001) no_slip_sides =  /* Viscous BCs: No-slip sides */
(PID.TID 0000.0001)                   F
(PID.TID 0000.0001)     ;
(PID.TID 0000.0001) sideDragFactor = /* side-drag scaling factor (non-dim) */
(PID.TID 0000.0001)                 2.000000000000000E+00
(PID.TID 0000.0001)     ;
(PID.TID 0000.0001) viscArNr = /* vertical profile of vertical viscosity ( m^2/s )*/
(PID.TID 0000.0001)    30 @  1.000000000000000E-03              /* K =  1: 30 */
(PID.TID 0000.0001)     ;
(PID.TID 0000.0001) no_slip_bottom =  /* Viscous BCs: No-slip bottom */
(PID.TID 0000.0001)                   F
(PID.TID 0000.0001)     ;
(PID.TID 0000.0001) bottomVisc_pCell = /* Partial-cell in bottom Visc. BC */
(PID.TID 0000.0001)                   F
(PID.TID 0000.0001)     ;
(PID.TID 0000.0001) bottomDragLinear = /* linear bottom-drag coefficient ( m/s ) */
(PID.TID 0000.0001)                 0.000000000000000E+00
(PID.TID 0000.0001)     ;
(PID.TID 0000.0001) bottomDragQuadratic = /* quadratic bottom-drag coefficient (-) */
(PID.TID 0000.0001)                 2.500000000000000E-03
(PID.TID 0000.0001)     ;
(PID.TID 0000.0001) selectBotDragQuadr = /* select quadratic bottom drag options */
(PID.TID 0000.0001)                       0
(PID.TID 0000.0001)     ;
(PID.TID 0000.0001) diffKhT =   /* Laplacian diffusion of heat laterally ( m^2/s ) */
(PID.TID 0000.0001)                 1.000000000000000E+02
(PID.TID 0000.0001)     ;
(PID.TID 0000.0001) diffK4T =   /* Biharmonic diffusion of heat laterally ( m^4/s ) */
(PID.TID 0000.0001)                 0.000000000000000E+00
(PID.TID 0000.0001)     ;
(PID.TID 0000.0001) diffKhS =   /* Laplacian diffusion of salt laterally ( m^2/s ) */
(PID.TID 0000.0001)                 1.000000000000000E+02
(PID.TID 0000.0001)     ;
(PID.TID 0000.0001) diffK4S =   /* Biharmonic diffusion of salt laterally ( m^4/s ) */
(PID.TID 0000.0001)                 0.000000000000000E+00
(PID.TID 0000.0001)     ;
(PID.TID 0000.0001) diffKrNrT = /* vertical profile of vertical diffusion of Temp ( m^2/s )*/
(PID.TID 0000.0001)    30 @  5.000000000000000E-05              /* K =  1: 30 */
(PID.TID 0000.0001)     ;
(PID.TID 0000.0001) diffKrNrS = /* vertical profile of vertical diffusion of Salt ( m^2/s )*/
(PID.TID 0000.0001)    30 @  5.000000000000000E-05              /* K =  1: 30 */
(PID.TID 0000.0001)     ;
(PID.TID 0000.0001) diffKrBL79surf = /* Surface diffusion for Bryan and Lewis 79 ( m^2/s ) */
(PID.TID 0000.0001)                 0.000000000000000E+00
(PID.TID 0000.0001)     ;
(PID.TID 0000.0001) diffKrBL79deep = /* Deep diffusion for Bryan and Lewis 1979 ( m^2/s ) */
(PID.TID 0000.0001)                 0.000000000000000E+00
(PID.TID 0000.0001)     ;
(PID.TID 0000.0001) diffKrBL79scl = /* Depth scale for Bryan and Lewis 1979 ( m ) */
(PID.TID 0000.0001)                 2.000000000000000E+02
(PID.TID 0000.0001)     ;
(PID.TID 0000.0001) diffKrBL79Ho = /* Turning depth for Bryan and Lewis 1979 ( m ) */
(PID.TID 0000.0001)                -2.000000000000000E+03
(PID.TID 0000.0001)     ;
(PID.TID 0000.0001) ivdc_kappa = /* Implicit Vertical Diffusivity for Convection ( m^2/s) */
(PID.TID 0000.0001)                 0.000000000000000E+00
(PID.TID 0000.0001)     ;
(PID.TID 0000.0001) hMixCriteria=  /* Criteria for mixed-layer diagnostic */
(PID.TID 0000.0001)                -8.000000000000000E-01
(PID.TID 0000.0001)     ;
(PID.TID 0000.0001) dRhoSmall =  /* Parameter for mixed-layer diagnostic */
(PID.TID 0000.0001)                 1.000000000000000E-06
(PID.TID 0000.0001)     ;
(PID.TID 0000.0001) hMixSmooth=  /* Smoothing parameter for mixed-layer diagnostic */
(PID.TID 0000.0001)                 0.000000000000000E+00
(PID.TID 0000.0001)     ;
(PID.TID 0000.0001) eosType =  /* Type of Equation of State */
(PID.TID 0000.0001)               'JMD95Z'
(PID.TID 0000.0001)     ;
(PID.TID 0000.0001) eosRefP0 = /* Reference atmospheric pressure for EOS ( Pa ) */
(PID.TID 0000.0001)                 1.013250000000000E+05
(PID.TID 0000.0001)     ;
(PID.TID 0000.0001) selectP_inEOS_Zc = /* select pressure to use in EOS (0,1,2,3) */
(PID.TID 0000.0001)                       0
(PID.TID 0000.0001)     0= -g*rhoConst*z ; 1= pRef (from tRef,sRef); 2= Hyd P ; 3= Hyd+NH P
(PID.TID 0000.0001)     ;
(PID.TID 0000.0001) surf_pRef = /* Surface reference pressure ( Pa ) */
(PID.TID 0000.0001)                 1.013250000000000E+05
(PID.TID 0000.0001)     ;
(PID.TID 0000.0001) HeatCapacity_Cp =  /* Specific heat capacity ( J/kg/K ) */
(PID.TID 0000.0001)                 3.974000000000000E+03
(PID.TID 0000.0001)     ;
(PID.TID 0000.0001) celsius2K = /* 0 degree Celsius converted to Kelvin ( K ) */
(PID.TID 0000.0001)                 2.731500000000000E+02
(PID.TID 0000.0001)     ;
(PID.TID 0000.0001) rhoConst  = /* Reference density (Boussinesq)  ( kg/m^3 ) */
(PID.TID 0000.0001)                 1.030000000000000E+03
(PID.TID 0000.0001)     ;
(PID.TID 0000.0001) rhoFacC = /* normalized Reference density @ cell-Center (-) */
(PID.TID 0000.0001)    30 @  1.000000000000000E+00              /* K =  1: 30 */
(PID.TID 0000.0001)     ;
(PID.TID 0000.0001) rhoFacF = /* normalized Reference density @ W-Interface (-) */
(PID.TID 0000.0001)    31 @  1.000000000000000E+00              /* K =  1: 31 */
(PID.TID 0000.0001)     ;
(PID.TID 0000.0001) rhoConstFresh = /* Fresh-water reference density ( kg/m^3 ) */
(PID.TID 0000.0001)                 1.030000000000000E+03
(PID.TID 0000.0001)     ;
(PID.TID 0000.0001) gravity =   /* Gravitational acceleration ( m/s^2 ) */
(PID.TID 0000.0001)                 9.810000000000000E+00
(PID.TID 0000.0001)     ;
(PID.TID 0000.0001) gBaro =   /* Barotropic gravity ( m/s^2 ) */
(PID.TID 0000.0001)                 9.810000000000000E+00
(PID.TID 0000.0001)     ;
(PID.TID 0000.0001) gravFacC = /* gravity factor (vs surf.) @ cell-Center (-) */
(PID.TID 0000.0001)    30 @  1.000000000000000E+00              /* K =  1: 30 */
(PID.TID 0000.0001)     ;
(PID.TID 0000.0001) gravFacF = /* gravity factor (vs surf.) @ W-Interface (-) */
(PID.TID 0000.0001)    31 @  1.000000000000000E+00              /* K =  1: 31 */
(PID.TID 0000.0001)     ;
(PID.TID 0000.0001) rotationPeriod =   /* Rotation Period ( s ) */
(PID.TID 0000.0001)                 8.616400000000000E+04
(PID.TID 0000.0001)     ;
(PID.TID 0000.0001) omega =   /* Angular velocity ( rad/s ) */
(PID.TID 0000.0001)                 7.292123516990375E-05
(PID.TID 0000.0001)     ;
(PID.TID 0000.0001) f0 =   /* Reference coriolis parameter ( 1/s ) */
(PID.TID 0000.0001)                 1.000000000000000E-04
(PID.TID 0000.0001)     ;
(PID.TID 0000.0001) beta =   /* Beta ( 1/(m.s) ) */
(PID.TID 0000.0001)                 9.999999999999999E-12
(PID.TID 0000.0001)     ;
(PID.TID 0000.0001) fPrime =   /* Second coriolis parameter ( 1/s ) */
(PID.TID 0000.0001)                 0.000000000000000E+00
(PID.TID 0000.0001)     ;
(PID.TID 0000.0001) rigidLid =   /* Rigid lid on/off flag */
(PID.TID 0000.0001)                   F
(PID.TID 0000.0001)     ;
(PID.TID 0000.0001) implicitFreeSurface =   /* Implicit free surface on/off flag */
(PID.TID 0000.0001)                   T
(PID.TID 0000.0001)     ;
(PID.TID 0000.0001) freeSurfFac =   /* Implicit free surface factor */
(PID.TID 0000.0001)                 1.000000000000000E+00
(PID.TID 0000.0001)     ;
(PID.TID 0000.0001) implicSurfPress =  /* Surface Pressure implicit factor (0-1) */
(PID.TID 0000.0001)                 1.000000000000000E+00
(PID.TID 0000.0001)     ;
(PID.TID 0000.0001) implicDiv2DFlow =  /* Barot. Flow Div. implicit factor (0-1) */
(PID.TID 0000.0001)                 1.000000000000000E+00
(PID.TID 0000.0001)     ;
(PID.TID 0000.0001) uniformLin_PhiSurf = /* use uniform Bo_surf on/off flag */
(PID.TID 0000.0001)                   T
(PID.TID 0000.0001)     ;
(PID.TID 0000.0001) uniformFreeSurfLev = /* free-surface level-index is uniform */
(PID.TID 0000.0001)                   F
(PID.TID 0000.0001)     ;
(PID.TID 0000.0001) sIceLoadFac =  /* scale factor for sIceLoad (0-1) */
(PID.TID 0000.0001)                 1.000000000000000E+00
(PID.TID 0000.0001)     ;
(PID.TID 0000.0001) hFacMin =   /* minimum partial cell factor (hFac) */
(PID.TID 0000.0001)                 5.000000000000000E-02
(PID.TID 0000.0001)     ;
(PID.TID 0000.0001) hFacMinDr = /* minimum partial cell thickness ( m) */
(PID.TID 0000.0001)                 0.000000000000000E+00
(PID.TID 0000.0001)     ;
(PID.TID 0000.0001) exactConserv =  /* Exact Volume Conservation on/off flag */
(PID.TID 0000.0001)                   T
(PID.TID 0000.0001)     ;
(PID.TID 0000.0001) linFSConserveTr = /* Tracer correction for Lin Free Surface on/off flag */
(PID.TID 0000.0001)                   F
(PID.TID 0000.0001)     ;
(PID.TID 0000.0001) nonlinFreeSurf = /* Non-linear Free Surf. options (-1,0,1,2,3)*/
(PID.TID 0000.0001)                       4
(PID.TID 0000.0001)      -1,0= Off ; 1,2,3= On, 2=+rescale gU,gV, 3=+update cg2d solv.
(PID.TID 0000.0001)     ;
(PID.TID 0000.0001) hFacInf =   /* lower threshold for hFac (nonlinFreeSurf only)*/
(PID.TID 0000.0001)                 2.000000000000000E-02
(PID.TID 0000.0001)     ;
(PID.TID 0000.0001) hFacSup =   /* upper threshold for hFac (nonlinFreeSurf only)*/
(PID.TID 0000.0001)                 2.000000000000000E+00
(PID.TID 0000.0001)     ;
(PID.TID 0000.0001) select_rStar = /* r* Vertical coord. options (=0 r coord.; >0 uses r*)*/
(PID.TID 0000.0001)                       2
(PID.TID 0000.0001)     ;
(PID.TID 0000.0001) useRealFreshWaterFlux = /* Real Fresh Water Flux on/off flag*/
(PID.TID 0000.0001)                   T
(PID.TID 0000.0001)     ;
(PID.TID 0000.0001) temp_EvPrRn = /* Temp. of Evap/Prec/R (UNSET=use local T)(oC)*/
(PID.TID 0000.0001)                 1.234567000000000E+05
(PID.TID 0000.0001)     ;
(PID.TID 0000.0001) salt_EvPrRn = /* Salin. of Evap/Prec/R (UNSET=use local S)(g/kg)*/
(PID.TID 0000.0001)                 0.000000000000000E+00
(PID.TID 0000.0001)     ;
(PID.TID 0000.0001) selectAddFluid = /* option for mass source/sink of fluid (=0: off) */
(PID.TID 0000.0001)                       0
(PID.TID 0000.0001)     ;
(PID.TID 0000.0001) temp_addMass = /* Temp. of addMass array (UNSET=use local T)(oC)*/
(PID.TID 0000.0001)                 1.234567000000000E+05
(PID.TID 0000.0001)     ;
(PID.TID 0000.0001) salt_addMass = /* Salin. of addMass array (UNSET=use local S)(g/kg)*/
(PID.TID 0000.0001)                 0.000000000000000E+00
(PID.TID 0000.0001)     ;
(PID.TID 0000.0001) use3Dsolver = /* use 3-D pressure solver on/off flag */
(PID.TID 0000.0001)                   F
(PID.TID 0000.0001)     ;
(PID.TID 0000.0001) nonHydrostatic =  /* Non-Hydrostatic on/off flag */
(PID.TID 0000.0001)                   F
(PID.TID 0000.0001)     ;
(PID.TID 0000.0001) nh_Am2 = /* Non-Hydrostatic terms scaling factor */
(PID.TID 0000.0001)                 1.000000000000000E+00
(PID.TID 0000.0001)     ;
(PID.TID 0000.0001) implicitNHPress = /* Non-Hyd Pressure implicit factor (0-1)*/
(PID.TID 0000.0001)                 1.000000000000000E+00
(PID.TID 0000.0001)     ;
(PID.TID 0000.0001) selectNHfreeSurf = /* Non-Hyd (free-)Surface option */
(PID.TID 0000.0001)                       0
(PID.TID 0000.0001)     ;
(PID.TID 0000.0001) quasiHydrostatic = /* Quasi-Hydrostatic on/off flag */
(PID.TID 0000.0001)                   F
(PID.TID 0000.0001)     ;
(PID.TID 0000.0001) calc_wVelocity = /* vertical velocity calculation on/off flag */
(PID.TID 0000.0001)                   T
(PID.TID 0000.0001)     ;
(PID.TID 0000.0001) momStepping =  /* Momentum equation on/off flag */
(PID.TID 0000.0001)                   T
(PID.TID 0000.0001)     ;
(PID.TID 0000.0001) vectorInvariantMomentum= /* Vector-Invariant Momentum on/off */
(PID.TID 0000.0001)                   F
(PID.TID 0000.0001)     ;
(PID.TID 0000.0001) momAdvection =  /* Momentum advection on/off flag */
(PID.TID 0000.0001)                   T
(PID.TID 0000.0001)     ;
(PID.TID 0000.0001) momViscosity =  /* Momentum viscosity on/off flag */
(PID.TID 0000.0001)                   T
(PID.TID 0000.0001)     ;
(PID.TID 0000.0001) momImplVertAdv= /* Momentum implicit vert. advection on/off*/
(PID.TID 0000.0001)                   F
(PID.TID 0000.0001)     ;
(PID.TID 0000.0001) implicitViscosity = /* Implicit viscosity on/off flag */
(PID.TID 0000.0001)                   T
(PID.TID 0000.0001)     ;
(PID.TID 0000.0001) selectImplicitDrag= /* Implicit bot Drag options (0,1,2)*/
(PID.TID 0000.0001)                       0
(PID.TID 0000.0001)     0= Expl. ; 1= Impl. on provis. Vel ; 2= Fully Impl (with surf.P)
(PID.TID 0000.0001)     ;
(PID.TID 0000.0001) metricTerms =  /* metric-Terms on/off flag */
(PID.TID 0000.0001)                   T
(PID.TID 0000.0001)     ;
(PID.TID 0000.0001) useNHMTerms = /* Non-Hydrostatic Metric-Terms on/off */
(PID.TID 0000.0001)                   F
(PID.TID 0000.0001)     ;
(PID.TID 0000.0001) selectCoriMap = /* Coriolis Map options (0,1,2,3)*/
(PID.TID 0000.0001)                       2
(PID.TID 0000.0001)     0= f-Plane ; 1= Beta-Plane ; 2= Spherical ; 3= read from file
(PID.TID 0000.0001)     ;
(PID.TID 0000.0001) use3dCoriolis = /* 3-D Coriolis on/off flag */
(PID.TID 0000.0001)                   F
(PID.TID 0000.0001)     ;
(PID.TID 0000.0001) useCoriolis =  /* Coriolis on/off flag */
(PID.TID 0000.0001)                   T
(PID.TID 0000.0001)     ;
(PID.TID 0000.0001) useCDscheme =  /* CD scheme on/off flag */
(PID.TID 0000.0001)                   F
(PID.TID 0000.0001)     ;
(PID.TID 0000.0001) selectCoriScheme= /* Scheme selector for Coriolis-Term */
(PID.TID 0000.0001)                       0
(PID.TID 0000.0001)    = 0 : original discretization (simple averaging, no hFac)
(PID.TID 0000.0001)    = 1 : Wet-point averaging (Jamar & Ozer 1986)
(PID.TID 0000.0001)    = 2 : energy conserving scheme (no hFac weight)
(PID.TID 0000.0001)    = 3 : energy conserving scheme using Wet-point averaging
(PID.TID 0000.0001)     ;
(PID.TID 0000.0001) momForcing =  /* Momentum forcing on/off flag */
(PID.TID 0000.0001)                   T
(PID.TID 0000.0001)     ;
(PID.TID 0000.0001) momTidalForcing = /* Momentum Tidal forcing on/off flag */
(PID.TID 0000.0001)                   T
(PID.TID 0000.0001)     ;
(PID.TID 0000.0001) momPressureForcing =  /* Momentum pressure term on/off flag */
(PID.TID 0000.0001)                   T
(PID.TID 0000.0001)     ;
(PID.TID 0000.0001) implicitIntGravWave= /* Implicit Internal Gravity Wave flag */
(PID.TID 0000.0001)                   F
(PID.TID 0000.0001)     ;
(PID.TID 0000.0001) staggerTimeStep =    /* Stagger time stepping on/off flag */
(PID.TID 0000.0001)                   F
(PID.TID 0000.0001)     ;
(PID.TID 0000.0001) doResetHFactors = /* reset thickness factors @ each time-step */
(PID.TID 0000.0001)                   F
(PID.TID 0000.0001)     ;
(PID.TID 0000.0001) multiDimAdvection =  /* enable/disable Multi-Dim Advection */
(PID.TID 0000.0001)                   T
(PID.TID 0000.0001)     ;
(PID.TID 0000.0001) useMultiDimAdvec =   /* Multi-Dim Advection is/is-not used */
(PID.TID 0000.0001)                   F
(PID.TID 0000.0001)     ;
(PID.TID 0000.0001) implicitDiffusion = /* Implicit Diffusion on/off flag */
(PID.TID 0000.0001)                   T
(PID.TID 0000.0001)     ;
(PID.TID 0000.0001) tempStepping =  /* Temperature equation on/off flag */
(PID.TID 0000.0001)                   T
(PID.TID 0000.0001)     ;
(PID.TID 0000.0001) tempAdvection = /* Temperature advection on/off flag */
(PID.TID 0000.0001)                   T
(PID.TID 0000.0001)     ;
(PID.TID 0000.0001) tempImplVertAdv = /* Temp. implicit vert. advection on/off */
(PID.TID 0000.0001)                   F
(PID.TID 0000.0001)     ;
(PID.TID 0000.0001) tempForcing  =  /* Temperature forcing on/off flag */
(PID.TID 0000.0001)                   T
(PID.TID 0000.0001)     ;
(PID.TID 0000.0001) doThetaClimRelax = /* apply SST relaxation on/off flag */
(PID.TID 0000.0001)                   F
(PID.TID 0000.0001)     ;
(PID.TID 0000.0001) tempIsActiveTr = /* Temp. is a dynamically Active Tracer */
(PID.TID 0000.0001)                   T
(PID.TID 0000.0001)     ;
(PID.TID 0000.0001) saltStepping =  /* Salinity equation on/off flag */
(PID.TID 0000.0001)                   T
(PID.TID 0000.0001)     ;
(PID.TID 0000.0001) saltAdvection = /* Salinity advection on/off flag */
(PID.TID 0000.0001)                   T
(PID.TID 0000.0001)     ;
(PID.TID 0000.0001) saltImplVertAdv = /* Sali. implicit vert. advection on/off */
(PID.TID 0000.0001)                   F
(PID.TID 0000.0001)     ;
(PID.TID 0000.0001) saltForcing  =  /* Salinity forcing on/off flag */
(PID.TID 0000.0001)                   T
(PID.TID 0000.0001)     ;
(PID.TID 0000.0001) doSaltClimRelax = /* apply SSS relaxation on/off flag */
(PID.TID 0000.0001)                   F
(PID.TID 0000.0001)     ;
(PID.TID 0000.0001) saltIsActiveTr = /* Salt  is a dynamically Active Tracer */
(PID.TID 0000.0001)                   T
(PID.TID 0000.0001)     ;
(PID.TID 0000.0001)  readBinaryPrec = /* Precision used for reading binary files */
(PID.TID 0000.0001)                      64
(PID.TID 0000.0001)     ;
(PID.TID 0000.0001) writeBinaryPrec = /* Precision used for writing binary files */
(PID.TID 0000.0001)                      32
(PID.TID 0000.0001)     ;
(PID.TID 0000.0001)  rwSuffixType =   /* select format of mds file suffix */
(PID.TID 0000.0001)                       0
(PID.TID 0000.0001)    = 0 : myIter (I10.10) ;   = 1 : 100*myTime (100th sec) ;
(PID.TID 0000.0001)    = 2 : myTime (seconds);   = 3 : myTime/360 (10th of hr);
(PID.TID 0000.0001)    = 4 : myTime/3600 (hours)
(PID.TID 0000.0001)     ;
(PID.TID 0000.0001)  globalFiles = /* write "global" (=not per tile) files */
(PID.TID 0000.0001)                   F
(PID.TID 0000.0001)     ;
(PID.TID 0000.0001)  useSingleCpuIO = /* only master MPI process does I/O */
(PID.TID 0000.0001)                   T
(PID.TID 0000.0001)     ;
(PID.TID 0000.0001)  useSingleCpuInput = /* only master process reads input */
(PID.TID 0000.0001)                   T
(PID.TID 0000.0001)     ;
(PID.TID 0000.0001) /* debLev[*]  : level of debug & auxiliary message printing */
(PID.TID 0000.0001) debLevZero =  0 ; /* level of disabled aux. msg printing */
(PID.TID 0000.0001)    debLevA =  1 ; /* level of minimum  aux. msg printing */
(PID.TID 0000.0001)    debLevB =  2 ; /* level of low aux. print (report read-file opening)*/
(PID.TID 0000.0001)    debLevC =  3 ; /* level of moderate debug prt (most pkgs debug msg) */
(PID.TID 0000.0001)    debLevD =  4 ; /* level of enhanced debug prt (add DEBUG_STATS prt) */
(PID.TID 0000.0001)    debLevE =  5 ; /* level of extensive debug printing */
(PID.TID 0000.0001) debugLevel =  /* select debug printing level */
(PID.TID 0000.0001)                       3
(PID.TID 0000.0001)     ;
(PID.TID 0000.0001)  plotLevel =  /* select PLOT_FIELD printing level */
(PID.TID 0000.0001)                       3
(PID.TID 0000.0001)     ;
(PID.TID 0000.0001) //
(PID.TID 0000.0001) // Elliptic solver(s) paramters ( PARM02 in namelist )
(PID.TID 0000.0001) //
(PID.TID 0000.0001) cg2dMaxIters =   /* Upper limit on 2d con. grad iterations  */
(PID.TID 0000.0001)                    1000
(PID.TID 0000.0001)     ;
(PID.TID 0000.0001) cg2dMinItersNSA =   /* Minimum number of iterations of 2d con. grad solver  */
(PID.TID 0000.0001)                       0
(PID.TID 0000.0001)     ;
(PID.TID 0000.0001) cg2dUseMinResSol= /* use cg2d last-iter(=0) / min-resid.(=1) solution */
(PID.TID 0000.0001)                       0
(PID.TID 0000.0001)     ;
(PID.TID 0000.0001) cg2dTargetResidual =   /* 2d con. grad target residual  */
(PID.TID 0000.0001)                 1.000000000000000E-13
(PID.TID 0000.0001)     ;
(PID.TID 0000.0001) cg2dTargetResWunit =   /* CG2d target residual [W units] */
(PID.TID 0000.0001)                -1.000000000000000E+00
(PID.TID 0000.0001)     ;
(PID.TID 0000.0001) cg2dPreCondFreq =   /* Freq. for updating cg2d preconditioner */
(PID.TID 0000.0001)                       1
(PID.TID 0000.0001)     ;
(PID.TID 0000.0001) useSRCGSolver =  /* use single reduction CG solver(s) */
(PID.TID 0000.0001)                   F
(PID.TID 0000.0001)     ;
(PID.TID 0000.0001) useNSACGSolver =  /* use not-self-adjoint CG solver */
(PID.TID 0000.0001)                   F
(PID.TID 0000.0001)     ;
(PID.TID 0000.0001) printResidualFreq = /* Freq. for printing CG residual */
(PID.TID 0000.0001)                       0
(PID.TID 0000.0001)     ;
(PID.TID 0000.0001) //
(PID.TID 0000.0001) // Time stepping paramters ( PARM03 in namelist )
(PID.TID 0000.0001) //
(PID.TID 0000.0001) deltaTMom =   /* Momentum equation timestep ( s ) */
(PID.TID 0000.0001)                 1.800000000000000E+03
(PID.TID 0000.0001)     ;
(PID.TID 0000.0001) deltaTFreeSurf = /* FreeSurface equation timestep ( s ) */
(PID.TID 0000.0001)                 1.800000000000000E+03
(PID.TID 0000.0001)     ;
(PID.TID 0000.0001) dTtracerLev =  /* Tracer equation timestep ( s ) */
(PID.TID 0000.0001)    30 @  1.800000000000000E+03              /* K =  1: 30 */
(PID.TID 0000.0001)     ;
(PID.TID 0000.0001) deltaTClock  =   /* Model clock timestep ( s ) */
(PID.TID 0000.0001)                 1.800000000000000E+03
(PID.TID 0000.0001)     ;
(PID.TID 0000.0001) cAdjFreq =   /* Convective adjustment interval ( s ) */
(PID.TID 0000.0001)                 0.000000000000000E+00
(PID.TID 0000.0001)     ;
(PID.TID 0000.0001) momForcingOutAB = /* =1: take Momentum Forcing out of Adams-Bash. stepping */
(PID.TID 0000.0001)                       0
(PID.TID 0000.0001)     ;
(PID.TID 0000.0001) tracForcingOutAB = /* =1: take T,S,pTr Forcing out of Adams-Bash. stepping */
(PID.TID 0000.0001)                       0
(PID.TID 0000.0001)     ;
(PID.TID 0000.0001) momDissip_In_AB = /* put Dissipation Tendency in Adams-Bash. stepping */
(PID.TID 0000.0001)                   T
(PID.TID 0000.0001)     ;
(PID.TID 0000.0001) doAB_onGtGs = /* apply AB on Tendencies (rather than on T,S)*/
(PID.TID 0000.0001)                   T
(PID.TID 0000.0001)     ;
(PID.TID 0000.0001) abEps =   /* Adams-Bashforth-2 stabilizing weight */
(PID.TID 0000.0001)                 1.000000000000000E-01
(PID.TID 0000.0001)     ;
(PID.TID 0000.0001) applyExchUV_early = /* Apply EXCH to U,V earlier in time-step */
(PID.TID 0000.0001)                   F
(PID.TID 0000.0001)     ;
(PID.TID 0000.0001) pickupStrictlyMatch= /* stop if pickup do not strictly match */
(PID.TID 0000.0001)                   T
(PID.TID 0000.0001)     ;
(PID.TID 0000.0001) nIter0   =   /* Run starting timestep number */
(PID.TID 0000.0001)                       0
(PID.TID 0000.0001)     ;
(PID.TID 0000.0001) nTimeSteps = /* Number of timesteps */
(PID.TID 0000.0001)                      12
(PID.TID 0000.0001)     ;
(PID.TID 0000.0001) nEndIter =   /* Run ending timestep number */
(PID.TID 0000.0001)                      12
(PID.TID 0000.0001)     ;
(PID.TID 0000.0001) baseTime =   /* Model base time ( s ) */
(PID.TID 0000.0001)                 0.000000000000000E+00
(PID.TID 0000.0001)     ;
(PID.TID 0000.0001) startTime =  /* Run start time ( s ) */
(PID.TID 0000.0001)                 0.000000000000000E+00
(PID.TID 0000.0001)     ;
(PID.TID 0000.0001) endTime  =   /* Integration ending time ( s ) */
(PID.TID 0000.0001)                 2.160000000000000E+04
(PID.TID 0000.0001)     ;
(PID.TID 0000.0001) pChkPtFreq = /* Permanent restart/pickup file interval ( s ) */
(PID.TID 0000.0001)                 0.000000000000000E+00
(PID.TID 0000.0001)     ;
(PID.TID 0000.0001) chkPtFreq  = /* Rolling restart/pickup file interval ( s ) */
(PID.TID 0000.0001)                 0.000000000000000E+00
(PID.TID 0000.0001)     ;
(PID.TID 0000.0001) pickup_write_mdsio =   /* Model IO flag. */
(PID.TID 0000.0001)                   T
(PID.TID 0000.0001)     ;
(PID.TID 0000.0001) pickup_read_mdsio =   /* Model IO flag. */
(PID.TID 0000.0001)                   T
(PID.TID 0000.0001)     ;
(PID.TID 0000.0001) pickup_write_mnc =   /* Model IO flag. */
(PID.TID 0000.0001)                   F
(PID.TID 0000.0001)     ;
(PID.TID 0000.0001) pickup_read_mnc =   /* Model IO flag. */
(PID.TID 0000.0001)                   F
(PID.TID 0000.0001)     ;
(PID.TID 0000.0001) writePickupAtEnd =   /* Model IO flag. */
(PID.TID 0000.0001)                   T
(PID.TID 0000.0001)     ;
(PID.TID 0000.0001) dumpFreq =   /* Model state write out interval ( s ). */
(PID.TID 0000.0001)                 0.000000000000000E+00
(PID.TID 0000.0001)     ;
(PID.TID 0000.0001) dumpInitAndLast= /* write out Initial & Last iter. model state */
(PID.TID 0000.0001)                   T
(PID.TID 0000.0001)     ;
(PID.TID 0000.0001) snapshot_mdsio =   /* Model IO flag. */
(PID.TID 0000.0001)                   T
(PID.TID 0000.0001)     ;
(PID.TID 0000.0001) snapshot_mnc =   /* Model IO flag. */
(PID.TID 0000.0001)                   F
(PID.TID 0000.0001)     ;
(PID.TID 0000.0001) monitorFreq =   /* Monitor output interval ( s ). */
(PID.TID 0000.0001)                 1.000000000000000E+00
(PID.TID 0000.0001)     ;
(PID.TID 0000.0001) monitorSelect = /* select group of variables to monitor */
(PID.TID 0000.0001)                       2
(PID.TID 0000.0001)     ;
(PID.TID 0000.0001) monitor_stdio =   /* Model IO flag. */
(PID.TID 0000.0001)                   T
(PID.TID 0000.0001)     ;
(PID.TID 0000.0001) monitor_mnc =   /* Model IO flag. */
(PID.TID 0000.0001)                   F
(PID.TID 0000.0001)     ;
(PID.TID 0000.0001) externForcingPeriod =   /* forcing period (s) */
(PID.TID 0000.0001)                 0.000000000000000E+00
(PID.TID 0000.0001)     ;
(PID.TID 0000.0001) externForcingCycle =   /* period of the cyle (s). */
(PID.TID 0000.0001)                 0.000000000000000E+00
(PID.TID 0000.0001)     ;
(PID.TID 0000.0001) tauThetaClimRelax =   /* relaxation time scale (s) */
(PID.TID 0000.0001)                 0.000000000000000E+00
(PID.TID 0000.0001)     ;
(PID.TID 0000.0001) tauSaltClimRelax =   /* relaxation time scale (s) */
(PID.TID 0000.0001)                 0.000000000000000E+00
(PID.TID 0000.0001)     ;
(PID.TID 0000.0001) latBandClimRelax =   /* max. Lat. where relaxation */
(PID.TID 0000.0001)                 1.800000000000000E+02
(PID.TID 0000.0001)     ;
(PID.TID 0000.0001) //
(PID.TID 0000.0001) // Gridding paramters ( PARM04 in namelist )
(PID.TID 0000.0001) //
(PID.TID 0000.0001) usingCartesianGrid = /* Cartesian coordinates flag ( True/False ) */
(PID.TID 0000.0001)                   F
(PID.TID 0000.0001)     ;
(PID.TID 0000.0001) usingCylindricalGrid = /* Cylindrical coordinates flag ( True/False ) */
(PID.TID 0000.0001)                   F
(PID.TID 0000.0001)     ;
(PID.TID 0000.0001) usingSphericalPolarGrid = /* Spherical coordinates flag ( True/False ) */
(PID.TID 0000.0001)                   T
(PID.TID 0000.0001)     ;
(PID.TID 0000.0001) usingCurvilinearGrid = /* Curvilinear coordinates flag ( True/False ) */
(PID.TID 0000.0001)                   F
(PID.TID 0000.0001)     ;
(PID.TID 0000.0001) useMin4hFacEdges = /* set hFacW,S as minimum of adjacent hFacC factor */
(PID.TID 0000.0001)                   F
(PID.TID 0000.0001)     ;
(PID.TID 0000.0001) interViscAr_pCell = /* account for partial-cell in interior vert. viscosity */
(PID.TID 0000.0001)                   F
(PID.TID 0000.0001)     ;
(PID.TID 0000.0001) interDiffKr_pCell = /* account for partial-cell in interior vert. diffusion */
(PID.TID 0000.0001)                   F
(PID.TID 0000.0001)     ;
(PID.TID 0000.0001) pCellMix_select = /* option to enhance mixing near surface & bottom */
(PID.TID 0000.0001)                       0
(PID.TID 0000.0001)     ;
(PID.TID 0000.0001) selectSigmaCoord = /* Hybrid-Sigma Vert. Coordinate option */
(PID.TID 0000.0001)                       0
(PID.TID 0000.0001)     ;
(PID.TID 0000.0001) rSigmaBnd = /* r/sigma transition ( units of r ==  m ) */
(PID.TID 0000.0001)                 1.234567000000000E+05
(PID.TID 0000.0001)     ;
(PID.TID 0000.0001) rkSign =   /* index orientation relative to vertical coordinate */
(PID.TID 0000.0001)                -1.000000000000000E+00
(PID.TID 0000.0001)     ;
(PID.TID 0000.0001) gravitySign = /* gravity orientation relative to vertical coordinate */
(PID.TID 0000.0001)                -1.000000000000000E+00
(PID.TID 0000.0001)     ;
(PID.TID 0000.0001) seaLev_Z =  /* reference height of sea-level [m] */
(PID.TID 0000.0001)                 0.000000000000000E+00
(PID.TID 0000.0001)     ;
(PID.TID 0000.0001) top_Pres =  /* reference pressure at the top [Pa] */
(PID.TID 0000.0001)                 0.000000000000000E+00
(PID.TID 0000.0001)     ;
(PID.TID 0000.0001) mass2rUnit = /* convert mass per unit area [kg/m2] to r-units [m] */
(PID.TID 0000.0001)                 9.708737864077669E-04
(PID.TID 0000.0001)     ;
(PID.TID 0000.0001) rUnit2mass = /* convert r-units [m] to mass per unit area [kg/m2] */
(PID.TID 0000.0001)                 1.030000000000000E+03
(PID.TID 0000.0001)     ;
(PID.TID 0000.0001) drC =   /* C spacing ( units of r ) */
(PID.TID 0000.0001)                 1.500000000000000E+01,      /* K =  1 */
(PID.TID 0000.0001)    29 @  3.000000000000000E+01,             /* K =  2: 30 */
(PID.TID 0000.0001)                 1.500000000000000E+01       /* K = 31 */
(PID.TID 0000.0001)     ;
(PID.TID 0000.0001) drF =   /* W spacing ( units of r ) */
(PID.TID 0000.0001)    30 @  3.000000000000000E+01              /* K =  1: 30 */
(PID.TID 0000.0001)     ;
(PID.TID 0000.0001) delX = /* U spacing ( m - cartesian, degrees - spherical ) */
(PID.TID 0000.0001)    50 @  3.000000000000000E-01              /* I =  1: 50 */
(PID.TID 0000.0001)     ;
(PID.TID 0000.0001) delY = /* V spacing ( m - cartesian, degrees - spherical ) */
(PID.TID 0000.0001)   100 @  1.000000000000000E-01              /* J =  1:100 */
(PID.TID 0000.0001)     ;
(PID.TID 0000.0001) xgOrigin = /* X-axis origin of West  edge (cartesian: m, lat-lon: deg) */
(PID.TID 0000.0001)                 0.000000000000000E+00
(PID.TID 0000.0001)     ;
(PID.TID 0000.0001) ygOrigin = /* Y-axis origin of South edge (cartesian: m, lat-lon: deg) */
(PID.TID 0000.0001)                -8.000000000000000E+01
(PID.TID 0000.0001)     ;
(PID.TID 0000.0001) rSphere =  /* Radius ( ignored - cartesian, m - spherical ) */
(PID.TID 0000.0001)                 6.370000000000000E+06
(PID.TID 0000.0001)     ;
(PID.TID 0000.0001) deepAtmosphere = /* Deep/Shallow Atmosphere flag (True/False) */
(PID.TID 0000.0001)                   F
(PID.TID 0000.0001)     ;
(PID.TID 0000.0001) xC =  /* xC(:,1,:,1) : P-point X coord ( deg. or m if cartesian) */
(PID.TID 0000.0001)                 1.500000000000001E-01,      /* I =  1 */
(PID.TID 0000.0001)                 4.500000000000001E-01,      /* I =  2 */
(PID.TID 0000.0001)                 7.500000000000002E-01,      /* I =  3 */
(PID.TID 0000.0001)                 1.050000000000000E+00,      /* I =  4 */
(PID.TID 0000.0001)                 1.350000000000000E+00,      /* I =  5 */
(PID.TID 0000.0001)                 1.650000000000000E+00,      /* I =  6 */
(PID.TID 0000.0001)                 1.950000000000000E+00,      /* I =  7 */
(PID.TID 0000.0001)                 2.250000000000000E+00,      /* I =  8 */
(PID.TID 0000.0001)                 2.550000000000000E+00,      /* I =  9 */
(PID.TID 0000.0001)                 2.850000000000000E+00,      /* I = 10 */
(PID.TID 0000.0001)                 3.149999999999999E+00,      /* I = 11 */
(PID.TID 0000.0001)                 3.449999999999999E+00,      /* I = 12 */
(PID.TID 0000.0001)                 3.749999999999999E+00,      /* I = 13 */
(PID.TID 0000.0001)                 4.049999999999999E+00,      /* I = 14 */
(PID.TID 0000.0001)                 4.350000000000000E+00,      /* I = 15 */
(PID.TID 0000.0001)                 4.649999999999999E+00,      /* I = 16 */
(PID.TID 0000.0001)                 4.949999999999999E+00,      /* I = 17 */
(PID.TID 0000.0001)                 5.249999999999998E+00,      /* I = 18 */
(PID.TID 0000.0001)                 5.549999999999999E+00,      /* I = 19 */
(PID.TID 0000.0001)                 5.849999999999998E+00,      /* I = 20 */
(PID.TID 0000.0001)                 6.149999999999999E+00,      /* I = 21 */
(PID.TID 0000.0001)                 6.449999999999998E+00,      /* I = 22 */
(PID.TID 0000.0001)                 6.749999999999998E+00,      /* I = 23 */
(PID.TID 0000.0001)                 7.049999999999997E+00,      /* I = 24 */
(PID.TID 0000.0001)                 7.349999999999997E+00,      /* I = 25 */
(PID.TID 0000.0001)                 7.649999999999997E+00,      /* I = 26 */
(PID.TID 0000.0001)                 7.949999999999998E+00,      /* I = 27 */
(PID.TID 0000.0001)                 8.249999999999998E+00,      /* I = 28 */
(PID.TID 0000.0001)                 8.549999999999999E+00,      /* I = 29 */
(PID.TID 0000.0001)                 8.850000000000000E+00,      /* I = 30 */
(PID.TID 0000.0001)                 9.150000000000000E+00,      /* I = 31 */
(PID.TID 0000.0001)                 9.450000000000001E+00,      /* I = 32 */
(PID.TID 0000.0001)                 9.750000000000002E+00,      /* I = 33 */
(PID.TID 0000.0001)                 1.005000000000000E+01,      /* I = 34 */
(PID.TID 0000.0001)                 1.035000000000000E+01,      /* I = 35 */
(PID.TID 0000.0001)                 1.065000000000000E+01,      /* I = 36 */
(PID.TID 0000.0001)                 1.095000000000001E+01,      /* I = 37 */
(PID.TID 0000.0001)                 1.125000000000001E+01,      /* I = 38 */
(PID.TID 0000.0001)                 1.155000000000000E+01,      /* I = 39 */
(PID.TID 0000.0001)                 1.185000000000001E+01,      /* I = 40 */
(PID.TID 0000.0001)                 1.215000000000001E+01,      /* I = 41 */
(PID.TID 0000.0001)                 1.245000000000001E+01,      /* I = 42 */
(PID.TID 0000.0001)                 1.275000000000001E+01,      /* I = 43 */
(PID.TID 0000.0001)                 1.305000000000001E+01,      /* I = 44 */
(PID.TID 0000.0001)                 1.335000000000001E+01,      /* I = 45 */
(PID.TID 0000.0001)                 1.365000000000001E+01,      /* I = 46 */
(PID.TID 0000.0001)                 1.395000000000001E+01,      /* I = 47 */
(PID.TID 0000.0001)                 1.425000000000001E+01,      /* I = 48 */
(PID.TID 0000.0001)                 1.455000000000001E+01,      /* I = 49 */
(PID.TID 0000.0001)                 1.485000000000001E+01       /* I = 50 */
(PID.TID 0000.0001)     ;
(PID.TID 0000.0001) yC =  /* yC(1,:,1,:) : P-point Y coord ( deg. or m if cartesian) */
(PID.TID 0000.0001)                -7.995000000000000E+01,      /* J =  1 */
(PID.TID 0000.0001)                -7.985000000000001E+01,      /* J =  2 */
(PID.TID 0000.0001)                -7.975000000000001E+01,      /* J =  3 */
(PID.TID 0000.0001)      . . .
(PID.TID 0000.0001)                -7.775000000000013E+01,      /* J = 23 */
(PID.TID 0000.0001)                -7.765000000000013E+01,      /* J = 24 */
(PID.TID 0000.0001)                -7.755000000000014E+01,      /* J = 25 */
(PID.TID 0000.0001)                -7.745000000000014E+01,      /* J = 26 */
(PID.TID 0000.0001)                -7.735000000000015E+01,      /* J = 27 */
(PID.TID 0000.0001)                -7.725000000000016E+01,      /* J = 28 */
(PID.TID 0000.0001)      . . .
(PID.TID 0000.0001)                -7.525000000000027E+01,      /* J = 48 */
(PID.TID 0000.0001)                -7.515000000000028E+01,      /* J = 49 */
(PID.TID 0000.0001)                -7.505000000000028E+01,      /* J = 50 */
(PID.TID 0000.0001)                -7.495000000000029E+01,      /* J = 51 */
(PID.TID 0000.0001)                -7.485000000000029E+01,      /* J = 52 */
(PID.TID 0000.0001)                -7.475000000000030E+01,      /* J = 53 */
(PID.TID 0000.0001)      . . .
(PID.TID 0000.0001)                -7.275000000000041E+01,      /* J = 73 */
(PID.TID 0000.0001)                -7.265000000000042E+01,      /* J = 74 */
(PID.TID 0000.0001)                -7.255000000000042E+01,      /* J = 75 */
(PID.TID 0000.0001)                -7.245000000000043E+01,      /* J = 76 */
(PID.TID 0000.0001)                -7.235000000000043E+01,      /* J = 77 */
(PID.TID 0000.0001)                -7.225000000000044E+01,      /* J = 78 */
(PID.TID 0000.0001)      . . .
(PID.TID 0000.0001)                -7.025000000000055E+01,      /* J = 98 */
(PID.TID 0000.0001)                -7.015000000000056E+01,      /* J = 99 */
(PID.TID 0000.0001)                -7.005000000000057E+01       /* J =100 */
(PID.TID 0000.0001)     ;
(PID.TID 0000.0001) rcoord = /* P-point R coordinate (  units of r ) */
(PID.TID 0000.0001)                -1.500000000000000E+01,      /* K =  1 */
(PID.TID 0000.0001)                -4.500000000000000E+01,      /* K =  2 */
(PID.TID 0000.0001)                -7.500000000000000E+01,      /* K =  3 */
(PID.TID 0000.0001)                -1.050000000000000E+02,      /* K =  4 */
(PID.TID 0000.0001)                -1.350000000000000E+02,      /* K =  5 */
(PID.TID 0000.0001)                -1.650000000000000E+02,      /* K =  6 */
(PID.TID 0000.0001)                -1.950000000000000E+02,      /* K =  7 */
(PID.TID 0000.0001)                -2.250000000000000E+02,      /* K =  8 */
(PID.TID 0000.0001)                -2.550000000000000E+02,      /* K =  9 */
(PID.TID 0000.0001)                -2.850000000000000E+02,      /* K = 10 */
(PID.TID 0000.0001)                -3.150000000000000E+02,      /* K = 11 */
(PID.TID 0000.0001)                -3.450000000000000E+02,      /* K = 12 */
(PID.TID 0000.0001)                -3.750000000000000E+02,      /* K = 13 */
(PID.TID 0000.0001)                -4.050000000000000E+02,      /* K = 14 */
(PID.TID 0000.0001)                -4.350000000000000E+02,      /* K = 15 */
(PID.TID 0000.0001)                -4.650000000000000E+02,      /* K = 16 */
(PID.TID 0000.0001)                -4.950000000000000E+02,      /* K = 17 */
(PID.TID 0000.0001)                -5.250000000000000E+02,      /* K = 18 */
(PID.TID 0000.0001)                -5.550000000000000E+02,      /* K = 19 */
(PID.TID 0000.0001)                -5.850000000000000E+02,      /* K = 20 */
(PID.TID 0000.0001)                -6.150000000000000E+02,      /* K = 21 */
(PID.TID 0000.0001)                -6.450000000000000E+02,      /* K = 22 */
(PID.TID 0000.0001)                -6.750000000000000E+02,      /* K = 23 */
(PID.TID 0000.0001)                -7.050000000000000E+02,      /* K = 24 */
(PID.TID 0000.0001)                -7.350000000000000E+02,      /* K = 25 */
(PID.TID 0000.0001)                -7.650000000000000E+02,      /* K = 26 */
(PID.TID 0000.0001)                -7.950000000000000E+02,      /* K = 27 */
(PID.TID 0000.0001)                -8.250000000000000E+02,      /* K = 28 */
(PID.TID 0000.0001)                -8.550000000000000E+02,      /* K = 29 */
(PID.TID 0000.0001)                -8.850000000000000E+02       /* K = 30 */
(PID.TID 0000.0001)     ;
(PID.TID 0000.0001) rF =   /* W-Interf. R coordinate (  units of r ) */
(PID.TID 0000.0001)                 0.000000000000000E+00,      /* K =  1 */
(PID.TID 0000.0001)                -3.000000000000000E+01,      /* K =  2 */
(PID.TID 0000.0001)                -6.000000000000000E+01,      /* K =  3 */
(PID.TID 0000.0001)                -9.000000000000000E+01,      /* K =  4 */
(PID.TID 0000.0001)                -1.200000000000000E+02,      /* K =  5 */
(PID.TID 0000.0001)                -1.500000000000000E+02,      /* K =  6 */
(PID.TID 0000.0001)                -1.800000000000000E+02,      /* K =  7 */
(PID.TID 0000.0001)                -2.100000000000000E+02,      /* K =  8 */
(PID.TID 0000.0001)                -2.400000000000000E+02,      /* K =  9 */
(PID.TID 0000.0001)                -2.700000000000000E+02,      /* K = 10 */
(PID.TID 0000.0001)                -3.000000000000000E+02,      /* K = 11 */
(PID.TID 0000.0001)                -3.300000000000000E+02,      /* K = 12 */
(PID.TID 0000.0001)                -3.600000000000000E+02,      /* K = 13 */
(PID.TID 0000.0001)                -3.900000000000000E+02,      /* K = 14 */
(PID.TID 0000.0001)                -4.200000000000000E+02,      /* K = 15 */
(PID.TID 0000.0001)                -4.500000000000000E+02,      /* K = 16 */
(PID.TID 0000.0001)                -4.800000000000000E+02,      /* K = 17 */
(PID.TID 0000.0001)                -5.100000000000000E+02,      /* K = 18 */
(PID.TID 0000.0001)                -5.400000000000000E+02,      /* K = 19 */
(PID.TID 0000.0001)                -5.700000000000000E+02,      /* K = 20 */
(PID.TID 0000.0001)                -6.000000000000000E+02,      /* K = 21 */
(PID.TID 0000.0001)                -6.300000000000000E+02,      /* K = 22 */
(PID.TID 0000.0001)                -6.600000000000000E+02,      /* K = 23 */
(PID.TID 0000.0001)                -6.900000000000000E+02,      /* K = 24 */
(PID.TID 0000.0001)                -7.200000000000000E+02,      /* K = 25 */
(PID.TID 0000.0001)                -7.500000000000000E+02,      /* K = 26 */
(PID.TID 0000.0001)                -7.800000000000000E+02,      /* K = 27 */
(PID.TID 0000.0001)                -8.100000000000000E+02,      /* K = 28 */
(PID.TID 0000.0001)                -8.400000000000000E+02,      /* K = 29 */
(PID.TID 0000.0001)                -8.700000000000000E+02,      /* K = 30 */
(PID.TID 0000.0001)                -9.000000000000000E+02       /* K = 31 */
(PID.TID 0000.0001)     ;
(PID.TID 0000.0001) deepFacC = /* deep-model grid factor @ cell-Center (-) */
(PID.TID 0000.0001)    30 @  1.000000000000000E+00              /* K =  1: 30 */
(PID.TID 0000.0001)     ;
(PID.TID 0000.0001) deepFacF = /* deep-model grid factor @ W-Interface (-) */
(PID.TID 0000.0001)    31 @  1.000000000000000E+00              /* K =  1: 31 */
(PID.TID 0000.0001)     ;
(PID.TID 0000.0001) rVel2wUnit = /* convert units: rVel -> wSpeed (=1 if z-coord)*/
(PID.TID 0000.0001)    31 @  1.000000000000000E+00              /* K =  1: 31 */
(PID.TID 0000.0001)     ;
(PID.TID 0000.0001) wUnit2rVel = /* convert units: wSpeed -> rVel (=1 if z-coord)*/
(PID.TID 0000.0001)    31 @  1.000000000000000E+00              /* K =  1: 31 */
(PID.TID 0000.0001)     ;
(PID.TID 0000.0001) dBdrRef = /* Vertical grad. of reference buoyancy [(m/s/r)^2] */
(PID.TID 0000.0001)    10 @  0.000000000000000E+00,             /* K =  1: 10 */
(PID.TID 0000.0001)                 1.124731220453894E-05,      /* K = 11 */
(PID.TID 0000.0001)                 1.124366515896614E-05,      /* K = 12 */
(PID.TID 0000.0001)                 1.124002146518838E-05,      /* K = 13 */
(PID.TID 0000.0001)                 1.123638113569378E-05,      /* K = 14 */
(PID.TID 0000.0001)                 1.123274418246514E-05,      /* K = 15 */
(PID.TID 0000.0001)                 1.122911061777403E-05,      /* K = 16 */
(PID.TID 0000.0001)                 1.122548045374762E-05,      /* K = 17 */
(PID.TID 0000.0001)                 1.122185370222437E-05,      /* K = 18 */
(PID.TID 0000.0001)                 1.121823037547582E-05,      /* K = 19 */
(PID.TID 0000.0001)                 1.121461048512386E-05,      /* K = 20 */
(PID.TID 0000.0001)                 1.121099404322349E-05,      /* K = 21 */
(PID.TID 0000.0001)                 1.120738106139660E-05,      /* K = 22 */
(PID.TID 0000.0001)                 1.120377155162599E-05,      /* K = 23 */
(PID.TID 0000.0001)                 1.120016552538919E-05,      /* K = 24 */
(PID.TID 0000.0001)                 1.119656043150190E-05,      /* K = 25 */
(PID.TID 0000.0001)                 1.119296397022110E-05,      /* K = 26 */
(PID.TID 0000.0001)                 1.118936846446139E-05,      /* K = 27 */
(PID.TID 0000.0001)                 1.118577648836210E-05,      /* K = 28 */
(PID.TID 0000.0001)                 1.118218805347293E-05,      /* K = 29 */
(PID.TID 0000.0001)                 1.117860317127138E-05       /* K = 30 */
(PID.TID 0000.0001)     ;
(PID.TID 0000.0001) rotateGrid = /* use rotated grid ( True/False ) */
(PID.TID 0000.0001)                   F
(PID.TID 0000.0001)     ;
(PID.TID 0000.0001) phiEuler = /* Euler angle, rotation about original z-coordinate [rad] */
(PID.TID 0000.0001)                 0.000000000000000E+00
(PID.TID 0000.0001)     ;
(PID.TID 0000.0001) thetaEuler = /* Euler angle, rotation about new x-coordinate [rad] */
(PID.TID 0000.0001)                 0.000000000000000E+00
(PID.TID 0000.0001)     ;
(PID.TID 0000.0001) psiEuler = /* Euler angle, rotation about new z-coordinate [rad] */
(PID.TID 0000.0001)                 0.000000000000000E+00
(PID.TID 0000.0001)     ;
(PID.TID 0000.0001) dxF =  /* dxF(:,1,:,1) ( units: m ) */
(PID.TID 0000.0001)    50 @  5.820391490558872E+03              /* I =  1: 50 */
(PID.TID 0000.0001)     ;
(PID.TID 0000.0001) dxF =  /* dxF(1,:,1,:) ( units: m ) */
(PID.TID 0000.0001)                 5.820391490558872E+03,      /* J =  1 */
(PID.TID 0000.0001)                 5.877701765291692E+03,      /* J =  2 */
(PID.TID 0000.0001)                 5.934994135525598E+03,      /* J =  3 */
(PID.TID 0000.0001)      . . .
(PID.TID 0000.0001)                 7.076813247621209E+03,      /* J = 23 */
(PID.TID 0000.0001)                 7.133689397375063E+03,      /* J = 24 */
(PID.TID 0000.0001)                 7.190543816673855E+03,      /* J = 25 */
(PID.TID 0000.0001)                 7.247376332329164E+03,      /* J = 26 */
(PID.TID 0000.0001)                 7.304186771219292E+03,      /* J = 27 */
(PID.TID 0000.0001)                 7.360974960289787E+03,      /* J = 28 */
(PID.TID 0000.0001)      . . .
(PID.TID 0000.0001)                 8.491800393599013E+03,      /* J = 48 */
(PID.TID 0000.0001)                 8.548081485571185E+03,      /* J = 49 */
(PID.TID 0000.0001)                 8.604336538604706E+03,      /* J = 50 */
(PID.TID 0000.0001)                 8.660565381336924E+03,      /* J = 51 */
(PID.TID 0000.0001)                 8.716767842485036E+03,      /* J = 52 */
(PID.TID 0000.0001)                 8.772943750846600E+03,      /* J = 53 */
(PID.TID 0000.0001)      . . .
(PID.TID 0000.0001)                 9.890622914885218E+03,      /* J = 73 */
(PID.TID 0000.0001)                 9.946201814818334E+03,      /* J = 74 */
(PID.TID 0000.0001)                 1.000175041689580E+04,      /* J = 75 */
(PID.TID 0000.0001)                 1.005726855190695E+04,      /* J = 76 */
(PID.TID 0000.0001)                 1.011275605073392E+04,      /* J = 77 */
(PID.TID 0000.0001)                 1.016821274435215E+04,      /* J = 78 */
(PID.TID 0000.0001)      . . .
(PID.TID 0000.0001)                 1.127061807330668E+04,      /* J = 98 */
(PID.TID 0000.0001)                 1.132538898360582E+04,      /* J = 99 */
(PID.TID 0000.0001)                 1.138012539480601E+04       /* J =100 */
(PID.TID 0000.0001)     ;
(PID.TID 0000.0001) dyF =  /* dyF(:,1,:,1) ( units: m ) */
(PID.TID 0000.0001)    50 @  1.111774733520388E+04              /* I =  1: 50 */
(PID.TID 0000.0001)     ;
(PID.TID 0000.0001) dyF =  /* dyF(1,:,1,:) ( units: m ) */
(PID.TID 0000.0001)   100 @  1.111774733520388E+04              /* J =  1:100 */
(PID.TID 0000.0001)     ;
(PID.TID 0000.0001) dxG =  /* dxG(:,1,:,1) ( units: m ) */
(PID.TID 0000.0001)    50 @  5.791729693558576E+03              /* I =  1: 50 */
(PID.TID 0000.0001)     ;
(PID.TID 0000.0001) dxG =  /* dxG(1,:,1,:) ( units: m ) */
(PID.TID 0000.0001)                 5.791729693558576E+03,      /* J =  1 */
(PID.TID 0000.0001)                 5.849048855077854E+03,      /* J =  2 */
(PID.TID 0000.0001)                 5.906350199379949E+03,      /* J =  3 */
(PID.TID 0000.0001)      . . .
(PID.TID 0000.0001)                 7.048367077963129E+03,      /* J = 23 */
(PID.TID 0000.0001)                 7.105254027978149E+03,      /* J = 24 */
(PID.TID 0000.0001)                 7.162119334157175E+03,      /* J = 25 */
(PID.TID 0000.0001)                 7.218962823278620E+03,      /* J = 26 */
(PID.TID 0000.0001)                 7.275784322187360E+03,      /* J = 27 */
(PID.TID 0000.0001)                 7.332583657795253E+03,      /* J = 28 */
(PID.TID 0000.0001)      . . .
(PID.TID 0000.0001)                 8.463650136583461E+03,      /* J = 48 */
(PID.TID 0000.0001)                 8.519944183739159E+03,      /* J = 49 */
(PID.TID 0000.0001)                 8.576212277667308E+03,      /* J = 50 */
(PID.TID 0000.0001)                 8.632454246965530E+03,      /* J = 51 */
(PID.TID 0000.0001)                 8.688669920311038E+03,      /* J = 52 */
(PID.TID 0000.0001)                 8.744859126461139E+03,      /* J = 53 */
(PID.TID 0000.0001)      . . .
(PID.TID 0000.0001)                 9.862822156126382E+03,      /* J = 73 */
(PID.TID 0000.0001)                 9.918416141504455E+03,      /* J = 74 */
(PID.TID 0000.0001)                 9.973979913666863E+03,      /* J = 75 */
(PID.TID 0000.0001)                 1.002951330335672E+04,      /* J = 76 */
(PID.TID 0000.0001)                 1.008501614140969E+04,      /* J = 77 */
(PID.TID 0000.0001)                 1.014048825875450E+04,      /* J = 78 */
(PID.TID 0000.0001)      . . .
(PID.TID 0000.0001)                 1.124321973312895E+04,      /* J = 98 */
(PID.TID 0000.0001)                 1.129800783041847E+04,      /* J = 99 */
(PID.TID 0000.0001)                 1.135276151201679E+04       /* J =100 */
(PID.TID 0000.0001)     ;
(PID.TID 0000.0001) dyG =  /* dyG(:,1,:,1) ( units: m ) */
(PID.TID 0000.0001)    50 @  1.111774733520388E+04              /* I =  1: 50 */
(PID.TID 0000.0001)     ;
(PID.TID 0000.0001) dyG =  /* dyG(1,:,1,:) ( units: m ) */
(PID.TID 0000.0001)   100 @  1.111774733520388E+04              /* J =  1:100 */
(PID.TID 0000.0001)     ;
(PID.TID 0000.0001) dxC =  /* dxC(:,1,:,1) ( units: m ) */
(PID.TID 0000.0001)    50 @  5.820391490558872E+03              /* I =  1: 50 */
(PID.TID 0000.0001)     ;
(PID.TID 0000.0001) dxC =  /* dxC(1,:,1,:) ( units: m ) */
(PID.TID 0000.0001)                 5.820391490558872E+03,      /* J =  1 */
(PID.TID 0000.0001)                 5.877701765291692E+03,      /* J =  2 */
(PID.TID 0000.0001)                 5.934994135525598E+03,      /* J =  3 */
(PID.TID 0000.0001)      . . .
(PID.TID 0000.0001)                 7.076813247621209E+03,      /* J = 23 */
(PID.TID 0000.0001)                 7.133689397375063E+03,      /* J = 24 */
(PID.TID 0000.0001)                 7.190543816673855E+03,      /* J = 25 */
(PID.TID 0000.0001)                 7.247376332329164E+03,      /* J = 26 */
(PID.TID 0000.0001)                 7.304186771219292E+03,      /* J = 27 */
(PID.TID 0000.0001)                 7.360974960289787E+03,      /* J = 28 */
(PID.TID 0000.0001)      . . .
(PID.TID 0000.0001)                 8.491800393599013E+03,      /* J = 48 */
(PID.TID 0000.0001)                 8.548081485571185E+03,      /* J = 49 */
(PID.TID 0000.0001)                 8.604336538604706E+03,      /* J = 50 */
(PID.TID 0000.0001)                 8.660565381336924E+03,      /* J = 51 */
(PID.TID 0000.0001)                 8.716767842485036E+03,      /* J = 52 */
(PID.TID 0000.0001)                 8.772943750846600E+03,      /* J = 53 */
(PID.TID 0000.0001)      . . .
(PID.TID 0000.0001)                 9.890622914885218E+03,      /* J = 73 */
(PID.TID 0000.0001)                 9.946201814818334E+03,      /* J = 74 */
(PID.TID 0000.0001)                 1.000175041689580E+04,      /* J = 75 */
(PID.TID 0000.0001)                 1.005726855190695E+04,      /* J = 76 */
(PID.TID 0000.0001)                 1.011275605073392E+04,      /* J = 77 */
(PID.TID 0000.0001)                 1.016821274435215E+04,      /* J = 78 */
(PID.TID 0000.0001)      . . .
(PID.TID 0000.0001)                 1.127061807330668E+04,      /* J = 98 */
(PID.TID 0000.0001)                 1.132538898360582E+04,      /* J = 99 */
(PID.TID 0000.0001)                 1.138012539480601E+04       /* J =100 */
(PID.TID 0000.0001)     ;
(PID.TID 0000.0001) dyC =  /* dyC(:,1,:,1) ( units: m ) */
(PID.TID 0000.0001)    50 @  1.111774733520388E+04              /* I =  1: 50 */
(PID.TID 0000.0001)     ;
(PID.TID 0000.0001) dyC =  /* dyC(1,:,1,:) ( units: m ) */
(PID.TID 0000.0001)   100 @  1.111774733520388E+04              /* J =  1:100 */
(PID.TID 0000.0001)     ;
(PID.TID 0000.0001) dxV =  /* dxV(:,1,:,1) ( units: m ) */
(PID.TID 0000.0001)    50 @  5.791729693558576E+03              /* I =  1: 50 */
(PID.TID 0000.0001)     ;
(PID.TID 0000.0001) dxV =  /* dxV(1,:,1,:) ( units: m ) */
(PID.TID 0000.0001)                 5.791729693558576E+03,      /* J =  1 */
(PID.TID 0000.0001)                 5.849048855077854E+03,      /* J =  2 */
(PID.TID 0000.0001)                 5.906350199379949E+03,      /* J =  3 */
(PID.TID 0000.0001)      . . .
(PID.TID 0000.0001)                 7.048367077963129E+03,      /* J = 23 */
(PID.TID 0000.0001)                 7.105254027978149E+03,      /* J = 24 */
(PID.TID 0000.0001)                 7.162119334157175E+03,      /* J = 25 */
(PID.TID 0000.0001)                 7.218962823278620E+03,      /* J = 26 */
(PID.TID 0000.0001)                 7.275784322187360E+03,      /* J = 27 */
(PID.TID 0000.0001)                 7.332583657795253E+03,      /* J = 28 */
(PID.TID 0000.0001)      . . .
(PID.TID 0000.0001)                 8.463650136583461E+03,      /* J = 48 */
(PID.TID 0000.0001)                 8.519944183739159E+03,      /* J = 49 */
(PID.TID 0000.0001)                 8.576212277667308E+03,      /* J = 50 */
(PID.TID 0000.0001)                 8.632454246965530E+03,      /* J = 51 */
(PID.TID 0000.0001)                 8.688669920311038E+03,      /* J = 52 */
(PID.TID 0000.0001)                 8.744859126461139E+03,      /* J = 53 */
(PID.TID 0000.0001)      . . .
(PID.TID 0000.0001)                 9.862822156126382E+03,      /* J = 73 */
(PID.TID 0000.0001)                 9.918416141504455E+03,      /* J = 74 */
(PID.TID 0000.0001)                 9.973979913666863E+03,      /* J = 75 */
(PID.TID 0000.0001)                 1.002951330335672E+04,      /* J = 76 */
(PID.TID 0000.0001)                 1.008501614140969E+04,      /* J = 77 */
(PID.TID 0000.0001)                 1.014048825875450E+04,      /* J = 78 */
(PID.TID 0000.0001)      . . .
(PID.TID 0000.0001)                 1.124321973312895E+04,      /* J = 98 */
(PID.TID 0000.0001)                 1.129800783041847E+04,      /* J = 99 */
(PID.TID 0000.0001)                 1.135276151201679E+04       /* J =100 */
(PID.TID 0000.0001)     ;
(PID.TID 0000.0001) dyU =  /* dyU(:,1,:,1) ( units: m ) */
(PID.TID 0000.0001)    50 @  1.111774733520388E+04              /* I =  1: 50 */
(PID.TID 0000.0001)     ;
(PID.TID 0000.0001) dyU =  /* dyU(1,:,1,:) ( units: m ) */
(PID.TID 0000.0001)   100 @  1.111774733520388E+04              /* J =  1:100 */
(PID.TID 0000.0001)     ;
(PID.TID 0000.0001) rA  =  /* rA (:,1,:,1) ( units: m^2 ) */
(PID.TID 0000.0001)    50 @  6.470963377080289E+07              /* I =  1: 50 */
(PID.TID 0000.0001)     ;
(PID.TID 0000.0001) rA  =  /* rA (1,:,1,:) ( units: m^2 ) */
(PID.TID 0000.0001)                 6.470963377080289E+07,      /* J =  1 */
(PID.TID 0000.0001)                 6.534679484410104E+07,      /* J =  2 */
(PID.TID 0000.0001)                 6.598375685977945E+07,      /* J =  3 */
(PID.TID 0000.0001)      . . .
(PID.TID 0000.0001)                 7.867821163932665E+07,      /* J = 23 */
(PID.TID 0000.0001)                 7.931054622142966E+07,      /* J = 24 */
(PID.TID 0000.0001)                 7.994263920984067E+07,      /* J = 25 */
(PID.TID 0000.0001)                 8.057448867913349E+07,      /* J = 26 */
(PID.TID 0000.0001)                 8.120609270456599E+07,      /* J = 27 */
(PID.TID 0000.0001)                 8.183744936212724E+07,      /* J = 28 */
(PID.TID 0000.0001)      . . .
(PID.TID 0000.0001)                 9.440967921416211E+07,      /* J = 48 */
(PID.TID 0000.0001)                 9.503539809503193E+07,      /* J = 49 */
(PID.TID 0000.0001)                 9.566082748163140E+07,      /* J = 50 */
(PID.TID 0000.0001)                 9.628596546870193E+07,      /* J = 51 */
(PID.TID 0000.0001)                 9.691081015209354E+07,      /* J = 52 */
(PID.TID 0000.0001)                 9.753535962826957E+07,      /* J = 53 */
(PID.TID 0000.0001)      . . .
(PID.TID 0000.0001)                 1.099614325987181E+08,      /* J = 73 */
(PID.TID 0000.0001)                 1.105793446869293E+08,      /* J = 74 */
(PID.TID 0000.0001)                 1.111969199312560E+08,      /* J = 75 */
(PID.TID 0000.0001)                 1.118141564504991E+08,      /* J = 76 */
(PID.TID 0000.0001)                 1.124310523644033E+08,      /* J = 77 */
(PID.TID 0000.0001)                 1.130476057938687E+08,      /* J = 78 */
(PID.TID 0000.0001)      . . .
(PID.TID 0000.0001)                 1.253038681465364E+08,      /* J = 98 */
(PID.TID 0000.0001)                 1.259127972112936E+08,      /* J = 99 */
(PID.TID 0000.0001)                 1.265213427237870E+08       /* J =100 */
(PID.TID 0000.0001)     ;
(PID.TID 0000.0001) rAw =  /* rAw(:,1,:,1) ( units: m^2 ) */
(PID.TID 0000.0001)    50 @  6.470963377080289E+07              /* I =  1: 50 */
(PID.TID 0000.0001)     ;
(PID.TID 0000.0001) rAw =  /* rAw(1,:,1,:) ( units: m^2 ) */
(PID.TID 0000.0001)                 6.470963377080289E+07,      /* J =  1 */
(PID.TID 0000.0001)                 6.534679484410104E+07,      /* J =  2 */
(PID.TID 0000.0001)                 6.598375685977945E+07,      /* J =  3 */
(PID.TID 0000.0001)      . . .
(PID.TID 0000.0001)                 7.867821163932665E+07,      /* J = 23 */
(PID.TID 0000.0001)                 7.931054622142966E+07,      /* J = 24 */
(PID.TID 0000.0001)                 7.994263920984067E+07,      /* J = 25 */
(PID.TID 0000.0001)                 8.057448867913349E+07,      /* J = 26 */
(PID.TID 0000.0001)                 8.120609270456599E+07,      /* J = 27 */
(PID.TID 0000.0001)                 8.183744936212724E+07,      /* J = 28 */
(PID.TID 0000.0001)      . . .
(PID.TID 0000.0001)                 9.440967921416211E+07,      /* J = 48 */
(PID.TID 0000.0001)                 9.503539809503193E+07,      /* J = 49 */
(PID.TID 0000.0001)                 9.566082748163140E+07,      /* J = 50 */
(PID.TID 0000.0001)                 9.628596546870193E+07,      /* J = 51 */
(PID.TID 0000.0001)                 9.691081015209354E+07,      /* J = 52 */
(PID.TID 0000.0001)                 9.753535962826957E+07,      /* J = 53 */
(PID.TID 0000.0001)      . . .
(PID.TID 0000.0001)                 1.099614325987181E+08,      /* J = 73 */
(PID.TID 0000.0001)                 1.105793446869293E+08,      /* J = 74 */
(PID.TID 0000.0001)                 1.111969199312560E+08,      /* J = 75 */
(PID.TID 0000.0001)                 1.118141564504991E+08,      /* J = 76 */
(PID.TID 0000.0001)                 1.124310523644033E+08,      /* J = 77 */
(PID.TID 0000.0001)                 1.130476057938687E+08,      /* J = 78 */
(PID.TID 0000.0001)      . . .
(PID.TID 0000.0001)                 1.253038681465364E+08,      /* J = 98 */
(PID.TID 0000.0001)                 1.259127972112936E+08,      /* J = 99 */
(PID.TID 0000.0001)                 1.265213427237870E+08       /* J =100 */
(PID.TID 0000.0001)     ;
(PID.TID 0000.0001) rAs =  /* rAs(:,1,:,1) ( units: m^2 ) */
(PID.TID 0000.0001)    50 @  6.439097919401864E+07              /* I =  1: 50 */
(PID.TID 0000.0001)     ;
(PID.TID 0000.0001) rAs =  /* rAs(1,:,1,:) ( units: m^2 ) */
(PID.TID 0000.0001)                 6.439097919401864E+07,      /* J =  1 */
(PID.TID 0000.0001)                 6.502823906837179E+07,      /* J =  2 */
(PID.TID 0000.0001)                 6.566530085543716E+07,      /* J =  3 */
(PID.TID 0000.0001)      . . .
(PID.TID 0000.0001)                 7.836195435256335E+07,      /* J = 23 */
(PID.TID 0000.0001)                 7.899440900921808E+07,      /* J = 24 */
(PID.TID 0000.0001)                 7.962662303520055E+07,      /* J = 25 */
(PID.TID 0000.0001)                 8.025859450470714E+07,      /* J = 26 */
(PID.TID 0000.0001)                 8.089032149259475E+07,      /* J = 27 */
(PID.TID 0000.0001)                 8.152180207452223E+07,      /* J = 28 */
(PID.TID 0000.0001)      . . .
(PID.TID 0000.0001)                 9.409671180895932E+07,      /* J = 48 */
(PID.TID 0000.0001)                 9.472257472228888E+07,      /* J = 49 */
(PID.TID 0000.0001)                 9.534814909420149E+07,      /* J = 50 */
(PID.TID 0000.0001)                 9.597343301913190E+07,      /* J = 51 */
(PID.TID 0000.0001)                 9.659842459236403E+07,      /* J = 52 */
(PID.TID 0000.0001)                 9.722312190998378E+07,      /* J = 53 */
(PID.TID 0000.0001)      . . .
(PID.TID 0000.0001)                 1.096523508263446E+08,      /* J = 73 */
(PID.TID 0000.0001)                 1.102704306306916E+08,      /* J = 74 */
(PID.TID 0000.0001)                 1.108881745321664E+08,      /* J = 75 */
(PID.TID 0000.0001)                 1.115055806490511E+08,      /* J = 76 */
(PID.TID 0000.0001)                 1.121226471005947E+08,      /* J = 77 */
(PID.TID 0000.0001)                 1.127393720071080E+08,      /* J = 78 */
(PID.TID 0000.0001)      . . .
(PID.TID 0000.0001)                 1.249992603617116E+08,      /* J = 98 */
(PID.TID 0000.0001)                 1.256083805070198E+08,      /* J = 99 */
(PID.TID 0000.0001)                 1.262171180274426E+08       /* J =100 */
(PID.TID 0000.0001)     ;
(PID.TID 0000.0001) globalArea = /* Integrated horizontal Area (m^2) */
(PID.TID 0000.0001)                 4.603029058785420E+11
(PID.TID 0000.0001)     ;
(PID.TID 0000.0001) // =======================================================
(PID.TID 0000.0001) // End of Model config. summary
(PID.TID 0000.0001) // =======================================================
(PID.TID 0000.0001) 
(PID.TID 0000.0001) == Packages configuration : Check & print summary ==
(PID.TID 0000.0001) 
(PID.TID 0000.0001) OBCS_CHECK: #define ALLOW_OBCS
(PID.TID 0000.0001) OBCS_CHECK: start summary:
(PID.TID 0000.0001) useOBCSprescribe = /* prescribe OB values */
(PID.TID 0000.0001)                   T
(PID.TID 0000.0001)     ;
(PID.TID 0000.0001) useOBCSbalance = /* balance the flow through OB */
(PID.TID 0000.0001)                   T
(PID.TID 0000.0001)     ;
(PID.TID 0000.0001) OBCSbalanceSurf = /* include surf. flux in balance */
(PID.TID 0000.0001)                   T
(PID.TID 0000.0001)     ;
(PID.TID 0000.0001) OBCS_balanceFacN = /* Northern OB Factor for balancing OB flow [-] */
(PID.TID 0000.0001)                 1.000000000000000E+00
(PID.TID 0000.0001)     ;
(PID.TID 0000.0001) OBCS_balanceFacS = /* Southern OB Factor for balancing OB flow [-] */
(PID.TID 0000.0001)                 1.000000000000000E+00
(PID.TID 0000.0001)     ;
(PID.TID 0000.0001) OBCS_balanceFacE = /* Eastern  OB Factor for balancing OB flow [-] */
(PID.TID 0000.0001)                 1.000000000000000E+00
(PID.TID 0000.0001)     ;
(PID.TID 0000.0001) OBCS_balanceFacW = /* Western  OB Factor for balancing OB flow [-] */
(PID.TID 0000.0001)                 1.000000000000000E+00
(PID.TID 0000.0001)     ;
(PID.TID 0000.0001) OBCS_uvApplyFac = /* Factor to apply to U,V 2nd column/row */
(PID.TID 0000.0001)                 1.000000000000000E+00
(PID.TID 0000.0001)     ;
(PID.TID 0000.0001) OBCS_u1_adv_T = /* Temp uses upwind adv-scheme @ OB */
(PID.TID 0000.0001)                       0
(PID.TID 0000.0001)     ;
(PID.TID 0000.0001) OBCS_u1_adv_S = /* Salt uses upwind adv-scheme @ OB */
(PID.TID 0000.0001)                       0
(PID.TID 0000.0001)     ;
(PID.TID 0000.0001) OBCS_monitorFreq = /* monitor output frequency [s] */
(PID.TID 0000.0001)                 1.800000000000000E+03
(PID.TID 0000.0001)     ;
(PID.TID 0000.0001) OBCS_monSelect = /* select group of variables to monitor */
(PID.TID 0000.0001)                       1
(PID.TID 0000.0001)     ;
(PID.TID 0000.0001) useOBCStides = /* apply tidal forcing through OB */
(PID.TID 0000.0001)                   F
(PID.TID 0000.0001)     ;
(PID.TID 0000.0001) tidalPeriod = /* (s) */
(PID.TID 0000.0001)    10 @  0.000000000000000E+00              /* I =  1: 10 */
(PID.TID 0000.0001)     ;
(PID.TID 0000.0001) OB_indexNone = /* null value for OB index (i.e. no OB) */
(PID.TID 0000.0001)                     -99
(PID.TID 0000.0001)     ;
(PID.TID 0000.0001) ======== Tile bi=   1 , bj=   1 ========
(PID.TID 0000.0001)  OB_Jn = /* Northern OB local indices */
(PID.TID 0000.0001)    31 @      -99                            /* I = -2: 28 */
(PID.TID 0000.0001)  OB_Js = /* Southern OB local indices */
(PID.TID 0000.0001)    31 @      -99                            /* I = -2: 28 */
(PID.TID 0000.0001)  OB_Ie = /* Eastern OB local indices */
(PID.TID 0000.0001)    31 @      -99                            /* J = -2: 28 */
(PID.TID 0000.0001)  OB_Iw = /* Western OB local indices */
(PID.TID 0000.0001)    31 @      -99                            /* J = -2: 28 */
(PID.TID 0000.0001) ======== Tile bi=   2 , bj=   1 ========
(PID.TID 0000.0001)  OB_Jn = /* Northern OB local indices */
(PID.TID 0000.0001)    31 @      -99                            /* I = -2: 28 */
(PID.TID 0000.0001)  OB_Js = /* Southern OB local indices */
(PID.TID 0000.0001)    31 @      -99                            /* I = -2: 28 */
(PID.TID 0000.0001)  OB_Ie = /* Eastern OB local indices */
(PID.TID 0000.0001)    31 @      -99                            /* J = -2: 28 */
(PID.TID 0000.0001)  OB_Iw = /* Western OB local indices */
(PID.TID 0000.0001)    31 @      -99                            /* J = -2: 28 */
(PID.TID 0000.0001) ======== Tile bi=   1 , bj=   2 ========
(PID.TID 0000.0001)  OB_Jn = /* Northern OB local indices */
(PID.TID 0000.0001)    31 @      -99                            /* I = -2: 28 */
(PID.TID 0000.0001)  OB_Js = /* Southern OB local indices */
(PID.TID 0000.0001)    31 @      -99                            /* I = -2: 28 */
(PID.TID 0000.0001)  OB_Ie = /* Eastern OB local indices */
(PID.TID 0000.0001)    31 @      -99                            /* J = -2: 28 */
(PID.TID 0000.0001)  OB_Iw = /* Western OB local indices */
(PID.TID 0000.0001)    31 @      -99                            /* J = -2: 28 */
(PID.TID 0000.0001) ======== Tile bi=   2 , bj=   2 ========
(PID.TID 0000.0001)  OB_Jn = /* Northern OB local indices */
(PID.TID 0000.0001)    31 @      -99                            /* I = -2: 28 */
(PID.TID 0000.0001)  OB_Js = /* Southern OB local indices */
(PID.TID 0000.0001)    31 @      -99                            /* I = -2: 28 */
(PID.TID 0000.0001)  OB_Ie = /* Eastern OB local indices */
(PID.TID 0000.0001)    31 @      -99                            /* J = -2: 28 */
(PID.TID 0000.0001)  OB_Iw = /* Western OB local indices */
(PID.TID 0000.0001)    31 @      -99                            /* J = -2: 28 */
(PID.TID 0000.0001) ======== Tile bi=   1 , bj=   3 ========
(PID.TID 0000.0001)  OB_Jn = /* Northern OB local indices */
(PID.TID 0000.0001)    31 @      -99                            /* I = -2: 28 */
(PID.TID 0000.0001)  OB_Js = /* Southern OB local indices */
(PID.TID 0000.0001)    31 @      -99                            /* I = -2: 28 */
(PID.TID 0000.0001)  OB_Ie = /* Eastern OB local indices */
(PID.TID 0000.0001)    31 @      -99                            /* J = -2: 28 */
(PID.TID 0000.0001)  OB_Iw = /* Western OB local indices */
(PID.TID 0000.0001)    31 @      -99                            /* J = -2: 28 */
(PID.TID 0000.0001) ======== Tile bi=   2 , bj=   3 ========
(PID.TID 0000.0001)  OB_Jn = /* Northern OB local indices */
(PID.TID 0000.0001)    31 @      -99                            /* I = -2: 28 */
(PID.TID 0000.0001)  OB_Js = /* Southern OB local indices */
(PID.TID 0000.0001)    31 @      -99                            /* I = -2: 28 */
(PID.TID 0000.0001)  OB_Ie = /* Eastern OB local indices */
(PID.TID 0000.0001)    31 @      -99                            /* J = -2: 28 */
(PID.TID 0000.0001)  OB_Iw = /* Western OB local indices */
(PID.TID 0000.0001)    31 @      -99                            /* J = -2: 28 */
(PID.TID 0000.0001) ======== Tile bi=   1 , bj=   4 ========
(PID.TID 0000.0001)  OB_Jn = /* Northern OB local indices */
(PID.TID 0000.0001)    31 @       25                            /* I = -2: 28 */
(PID.TID 0000.0001)  OB_Js = /* Southern OB local indices */
(PID.TID 0000.0001)    31 @      -99                            /* I = -2: 28 */
(PID.TID 0000.0001)  OB_Ie = /* Eastern OB local indices */
(PID.TID 0000.0001)    31 @      -99                            /* J = -2: 28 */
(PID.TID 0000.0001)  OB_Iw = /* Western OB local indices */
(PID.TID 0000.0001)    31 @      -99                            /* J = -2: 28 */
(PID.TID 0000.0001) ======== Tile bi=   2 , bj=   4 ========
(PID.TID 0000.0001)  OB_Jn = /* Northern OB local indices */
(PID.TID 0000.0001)    31 @       25                            /* I = -2: 28 */
(PID.TID 0000.0001)  OB_Js = /* Southern OB local indices */
(PID.TID 0000.0001)    31 @      -99                            /* I = -2: 28 */
(PID.TID 0000.0001)  OB_Ie = /* Eastern OB local indices */
(PID.TID 0000.0001)    31 @      -99                            /* J = -2: 28 */
(PID.TID 0000.0001)  OB_Iw = /* Western OB local indices */
(PID.TID 0000.0001)    31 @      -99                            /* J = -2: 28 */
(PID.TID 0000.0001) OBCS_CHECK: end summary.
(PID.TID 0000.0001) OBCS_CHECK: #define ALLOW_ORLANSKI
(PID.TID 0000.0001) OBCS_CHECK: set-up OK
(PID.TID 0000.0001) OBCS_CHECK: check Inside Mask and OB locations: OK
(PID.TID 0000.0001) GGL90_CHECK: #define ALLOW_GGL90
(PID.TID 0000.0001) SHELFICE_CHECK: #define ALLOW_SHELFICE
(PID.TID 0000.0001) 
(PID.TID 0000.0001) SHELFICE_CHECK: start of SHELFICE config. summary
(PID.TID 0000.0001) SHELFICEisOn = /* package is turned on */
(PID.TID 0000.0001)                   T
(PID.TID 0000.0001)     ;
(PID.TID 0000.0001) useISOMIPTD = /* use simple isomip thermodynamics */
(PID.TID 0000.0001)                   F
(PID.TID 0000.0001)     ;
(PID.TID 0000.0001) SHELFICEconserve = /* use a conservative form of boundary conditions */
(PID.TID 0000.0001)                   T
(PID.TID 0000.0001)     ;
(PID.TID 0000.0001) SHELFICEboundaryLayer = /* use simple boundary layer scheme to suppress noise */
(PID.TID 0000.0001)                   T
(PID.TID 0000.0001)     ;
(PID.TID 0000.0001) SHI_withBL_realFWflux = /* use real FW Flux in boundary layer scheme */
(PID.TID 0000.0001)                   F
(PID.TID 0000.0001)     ;
(PID.TID 0000.0001) SHELFICEadvDiffHeatFlux = /* use adv.-diff. instead of just diff. heat flux into the ice shelf */
(PID.TID 0000.0001)                   T
(PID.TID 0000.0001)     ;
(PID.TID 0000.0001) SHELFICEMassStepping = /* step forward ice shelf mass/thickness */
(PID.TID 0000.0001)                   T
(PID.TID 0000.0001)     ;
(PID.TID 0000.0001) no_slip_shelfice = /* use no slip boundary conditions */
(PID.TID 0000.0001)                   F
(PID.TID 0000.0001)     ;
(PID.TID 0000.0001) SHELFICEdragLinear    = /* linear drag coefficient */
(PID.TID 0000.0001)                 0.000000000000000E+00
(PID.TID 0000.0001)     ;
(PID.TID 0000.0001) SHELFICEdragQuadratic = /* quadratic drag coefficient */
(PID.TID 0000.0001)                 1.500000000000000E-03
(PID.TID 0000.0001)     ;
(PID.TID 0000.0001) SHELFICEselectDragQuadr = /* select quadratic drag option */
(PID.TID 0000.0001)                       1
(PID.TID 0000.0001)     ;
(PID.TID 0000.0001) SHELFICElatentHeat      = /* latent heat of ice */
(PID.TID 0000.0001)                 3.340000000000000E+05
(PID.TID 0000.0001)     ;
(PID.TID 0000.0001) SHELFICEheatCapacity_Cp = /* heat capacity of ice shelf */
(PID.TID 0000.0001)                 2.000000000000000E+03
(PID.TID 0000.0001)     ;
(PID.TID 0000.0001) rhoShelfice   = /* density of ice shelf */
(PID.TID 0000.0001)                 9.170000000000000E+02
(PID.TID 0000.0001)     ;
(PID.TID 0000.0001) SHELFICEkappa = /* thermal conductivity of ice shelf */
(PID.TID 0000.0001)                 1.540000000000000E-06
(PID.TID 0000.0001)     ;
(PID.TID 0000.0001) SHELFICEthetaSurface = /* surface temperature above i.s. */
(PID.TID 0000.0001)                -2.000000000000000E+01
(PID.TID 0000.0001)     ;
(PID.TID 0000.0001) SHELFICEheatTransCoeff = /* heat transfer coefficient */
(PID.TID 0000.0001)                 1.000000000000000E-04
(PID.TID 0000.0001)     ;
(PID.TID 0000.0001) SHELFICEsaltTransCoeff = /* salt transfer coefficient */
(PID.TID 0000.0001)                 5.050000000000000E-07
(PID.TID 0000.0001)     ;
(PID.TID 0000.0001) SHELFICEuseGammaFrict = /* use velocity dependent exchange coefficients */
(PID.TID 0000.0001)                   T
(PID.TID 0000.0001)     ;
(PID.TID 0000.0001) SHI_withBL_uStarTopDz = /* compute uStar from top Dz averaged uVel,vVel */
(PID.TID 0000.0001)                   F
(PID.TID 0000.0001)     ;
(PID.TID 0000.0001) shiCdrag   = /* quadr. drag coefficient for uStar */
(PID.TID 0000.0001)                 1.500000000000000E-03
(PID.TID 0000.0001)     ;
(PID.TID 0000.0001) shiZetaN   = /* parameter for gammaTurb */
(PID.TID 0000.0001)                 5.200000000000000E-02
(PID.TID 0000.0001)     ;
(PID.TID 0000.0001) shiRc      = /* parameter for gammaTurb (not used) */
(PID.TID 0000.0001)                 2.000000000000000E-01
(PID.TID 0000.0001)     ;
(PID.TID 0000.0001) shiPrandtl = /* const. Prandtl No. for gammaTurb */
(PID.TID 0000.0001)                 1.380000000000000E+01
(PID.TID 0000.0001)     ;
(PID.TID 0000.0001) shiSchmidt = /* const. Schmidt No. for gammaTurb */
(PID.TID 0000.0001)                 2.432000000000000E+03
(PID.TID 0000.0001)     ;
(PID.TID 0000.0001) shiKinVisc = /* const. kin. viscosity for gammaTurb */
(PID.TID 0000.0001)                 1.950000000000000E-06
(PID.TID 0000.0001)     ;
(PID.TID 0000.0001) SHELFICEremeshFrequency = /* Frequency (in s) of Remeshing */
(PID.TID 0000.0001)                 0.000000000000000E+00
(PID.TID 0000.0001)     ;
(PID.TID 0000.0001) SHELFICEloadAnomalyFile = /* file name of loaded loadAnomaly field */
(PID.TID 0000.0001)               ''
(PID.TID 0000.0001)     ;
(PID.TID 0000.0001) SHELFICEmassFile = /* file name of loaded mass field */
(PID.TID 0000.0001)               'iceShelf_Mass.obcs'
(PID.TID 0000.0001)     ;
(PID.TID 0000.0001) SHELFICEtopoFile = /* file name of loaded under-ice topography */
(PID.TID 0000.0001)               'icetopo.obcs'
(PID.TID 0000.0001)     ;
(PID.TID 0000.0001) SHELFICEMassDynTendFile = /* file name of loaded dynamic mass tendency field */
(PID.TID 0000.0001)               'iceShelf_MassTend.obcs'
(PID.TID 0000.0001)     ;
(PID.TID 0000.0001) SHELFICEwriteState  = /* do simple standard output */
(PID.TID 0000.0001)                   T
(PID.TID 0000.0001)     ;
(PID.TID 0000.0001) SHELFICE_dump_mdsio = /* use mdsio for snapshots */
(PID.TID 0000.0001)                   T
(PID.TID 0000.0001)     ;
(PID.TID 0000.0001) SHELFICE_tave_mdsio = /* use mdsio for time averages */
(PID.TID 0000.0001)                   T
(PID.TID 0000.0001)     ;
(PID.TID 0000.0001) SHELFICE_dump_mnc   = /* use netcdf for snapshots */
(PID.TID 0000.0001)                   F
(PID.TID 0000.0001)     ;
(PID.TID 0000.0001) SHELFICE_tave_mnc   = /* use netcdf for time averages */
(PID.TID 0000.0001)                   F
(PID.TID 0000.0001)     ;
(PID.TID 0000.0001) SHELFICE_dumpFreq = /* analoguous to dumpFreq */
(PID.TID 0000.0001)                 0.000000000000000E+00
(PID.TID 0000.0001)     ;
(PID.TID 0000.0001) SHELFICE_taveFreq = /* analoguous to taveFreq */
(PID.TID 0000.0001)                 0.000000000000000E+00
(PID.TID 0000.0001)     ;
(PID.TID 0000.0001) SHELFICE_CHECK: end of SHELFICE config. summary
(PID.TID 0000.0001) GAD_CHECK: #define ALLOW_GENERIC_ADVDIFF
(PID.TID 0000.0001) // =======================================================
(PID.TID 0000.0001) // Check Model config. (CONFIG_CHECK):
(PID.TID 0000.0001) // CONFIG_CHECK : Normal End
(PID.TID 0000.0001) // =======================================================
(PID.TID 0000.0001) 
(PID.TID 0000.0001)  MDS_WRITE_FIELD: it,rec,kS,kL,kH=      -1     1   1   1   1 file=XC
(PID.TID 0000.0001)  MDS_WRITE_FIELD: it,rec,kS,kL,kH=      -1     1   1   1   1 file=YC
(PID.TID 0000.0001)  MDS_WRITE_FIELD: it,rec,kS,kL,kH=      -1     1   1   1   1 file=XG
(PID.TID 0000.0001)  MDS_WRITE_FIELD: it,rec,kS,kL,kH=      -1     1   1   1   1 file=YG
(PID.TID 0000.0001)  MDS_WRITE_FIELD: it,rec,kS,kL,kH=      -1     1   1   1   1 file=RAC
(PID.TID 0000.0001)  MDS_WRITE_FIELD: it,rec,kS,kL,kH=      -1     1   1   1   1 file=RAW
(PID.TID 0000.0001)  MDS_WRITE_FIELD: it,rec,kS,kL,kH=      -1     1   1   1   1 file=RAS
(PID.TID 0000.0001)  MDS_WRITE_FIELD: it,rec,kS,kL,kH=      -1     1   1   1   1 file=RAZ
(PID.TID 0000.0001)  MDS_WRITE_FIELD: it,rec,kS,kL,kH=      -1     1   1   1   1 file=DXG
(PID.TID 0000.0001)  MDS_WRITE_FIELD: it,rec,kS,kL,kH=      -1     1   1   1   1 file=DYG
(PID.TID 0000.0001)  MDS_WRITE_FIELD: it,rec,kS,kL,kH=      -1     1   1   1   1 file=DXC
(PID.TID 0000.0001)  MDS_WRITE_FIELD: it,rec,kS,kL,kH=      -1     1   1   1   1 file=DYC
(PID.TID 0000.0001)  MDS_WRITE_FIELD: it,rec,kS,kL,kH=      -1     1   1   1   1 file=DXF
(PID.TID 0000.0001)  MDS_WRITE_FIELD: it,rec,kS,kL,kH=      -1     1   1   1   1 file=DYF
(PID.TID 0000.0001)  MDS_WRITE_FIELD: it,rec,kS,kL,kH=      -1     1   1   1   1 file=DXV
(PID.TID 0000.0001)  MDS_WRITE_FIELD: it,rec,kS,kL,kH=      -1     1   1   1   1 file=DYU
(PID.TID 0000.0001)  MDS_WRITE_FIELD: it,rec,kS,kL,kH=      -1     1   1   1   1 file=Depth
(PID.TID 0000.0001)  MDS_WRITE_FIELD: it,rec,kS,kL,kH=      -1     1   1   1   1 file=rLowC
(PID.TID 0000.0001)  MDS_WRITE_FIELD: it,rec,kS,kL,kH=      -1     1   1   1   1 file=rLowW
(PID.TID 0000.0001)  MDS_WRITE_FIELD: it,rec,kS,kL,kH=      -1     1   1   1   1 file=rLowS
(PID.TID 0000.0001)  MDS_WRITE_FIELD: it,rec,kS,kL,kH=      -1     1   1   1   1 file=rSurfC
(PID.TID 0000.0001)  MDS_WRITE_FIELD: it,rec,kS,kL,kH=      -1     1   1   1   1 file=rSurfW
(PID.TID 0000.0001)  MDS_WRITE_FIELD: it,rec,kS,kL,kH=      -1     1   1   1   1 file=rSurfS
(PID.TID 0000.0001)  MDS_WRITE_FIELD: it,rec,kS,kL,kH=       0     1  30   1  30 file=hFacC
(PID.TID 0000.0001)  MDS_WRITE_FIELD: it,rec,kS,kL,kH=       0     1  30   1  30 file=hFacW
(PID.TID 0000.0001)  MDS_WRITE_FIELD: it,rec,kS,kL,kH=       0     1  30   1  30 file=hFacS
(PID.TID 0000.0001)  MDS_WRITE_FIELD: it,rec,kS,kL,kH=      -1     1   1   1   1 file=maskInC
(PID.TID 0000.0001)  MDS_WRITE_FIELD: it,rec,kS,kL,kH=      -1     1   1   1   1 file=maskInW
(PID.TID 0000.0001)  MDS_WRITE_FIELD: it,rec,kS,kL,kH=      -1     1   1   1   1 file=maskInS
(PID.TID 0000.0001)  MDS_WRITEVEC_LOC: open file: RC.data
(PID.TID 0000.0001)  MDS_WRITEVEC_LOC: open file: RF.data
(PID.TID 0000.0001)  MDS_WRITEVEC_LOC: open file: DRC.data
(PID.TID 0000.0001)  MDS_WRITEVEC_LOC: open file: DRF.data
(PID.TID 0000.0001)  MDS_WRITEVEC_LOC: open file: PHrefF.data
(PID.TID 0000.0001)  MDS_WRITEVEC_LOC: open file: PHrefC.data
(PID.TID 0000.0001) // =======================================================
(PID.TID 0000.0001) // Field Initial Temperature at iteration          1
(PID.TID 0000.0001) // CMIN =         -1.900000000000000E+00
(PID.TID 0000.0001) // CMAX =         -1.900000000000000E+00
(PID.TID 0000.0001) // CINT =          0.000000000000000E+00
(PID.TID 0000.0001) // SYMBOLS (CMIN->CMAX): -abcdefghijklmnopqrstuvwxyz+
(PID.TID 0000.0001) //                  0.0: .
(PID.TID 0000.0001) // RANGE I (Lo:Hi:Step):(     1:    50:     1)
(PID.TID 0000.0001) // RANGE J (Lo:Hi:Step):(   100:     1:    -1)
(PID.TID 0000.0001) // RANGE K (Lo:Hi:Step):(   1:   1:   1)
(PID.TID 0000.0001) // =======================================================
(PID.TID 0000.0001) // =======================================================
(PID.TID 0000.0001) // END OF FIELD                                          =
(PID.TID 0000.0001) // =======================================================
(PID.TID 0000.0001) 
(PID.TID 0000.0001) // =======================================================
(PID.TID 0000.0001) // Field Initial Salinity at iteration          1
(PID.TID 0000.0001) // CMIN =          3.440000000000000E+01
(PID.TID 0000.0001) // CMAX =          3.440000000000000E+01
(PID.TID 0000.0001) // CINT =          0.000000000000000E+00
(PID.TID 0000.0001) // SYMBOLS (CMIN->CMAX): -abcdefghijklmnopqrstuvwxyz+
(PID.TID 0000.0001) //                  0.0: .
(PID.TID 0000.0001) // RANGE I (Lo:Hi:Step):(     1:    50:     1)
(PID.TID 0000.0001) // RANGE J (Lo:Hi:Step):(   100:     1:    -1)
(PID.TID 0000.0001) // RANGE K (Lo:Hi:Step):(   1:   1:   1)
(PID.TID 0000.0001) // =======================================================
(PID.TID 0000.0001) // =======================================================
(PID.TID 0000.0001) // END OF FIELD                                          =
(PID.TID 0000.0001) // =======================================================
(PID.TID 0000.0001) 
(PID.TID 0000.0001) Start initial hydrostatic pressure computation
(PID.TID 0000.0001) Pressure is predetermined for buoyancyRelation OCEANIC
(PID.TID 0000.0001) 
(PID.TID 0000.0001)  write diagnostics summary to file ioUnit:      6
Iter.Nb:         0 ; Time(s):  0.0000000000000E+00
------------------------------------------------------------------------
2D/3D diagnostics: Number of lists:     1
------------------------------------------------------------------------
listId=    1 ; file name: dynDiag
 nFlds, nActive,       freq     &     phase        , nLev               
    9  |    9  |   5184000.000000         0.000000 |  30
 levels:   1   2   3   4   5   6   7   8   9  10  11  12  13  14  15  16  17  18  19  20  21  22  23  24  25
 levels:  26  27  28  29  30
 diag# | name   |   ipt  |  iMate | kLev|   count |   mate.C|           
    30 |UVEL    |      1 |     31 |  30 |       0 |       0 |
    31 |VVEL    |     31 |      1 |  30 |       0 |       0 |
    32 |WVEL    |     61 |      0 |  30 |       0 |
    71 |PHIHYD  |     91 |      0 |  30 |       0 |
    46 |VVELMASS|    121 |    151 |  30 |       0 |       0 |
    45 |UVELMASS|    151 |    121 |  30 |       0 |       0 |
    38 |WVELSQ  |    181 |      0 |  30 |       0 |
    26 |THETA   |    211 |      0 |  30 |       0 |
    27 |SALT    |    241 |      0 |  30 |       0 |
------------------------------------------------------------------------
Global & Regional Statistics diagnostics: Number of lists:     1
------------------------------------------------------------------------
listId=   1 ; file name: dynStDiag
 nFlds, nActive,       freq     &     phase        |                    
    6  |    6  |     86400.000000         0.000000 |
 Regions:   0  1  2
 diag# | name   |   ipt  |  iMate |    Volume   |   mate-Vol. |         
    23 |ETAN    |      1 |      0 | 0.00000E+00 |
    30 |UVEL    |      2 |      0 | 0.00000E+00 |
    31 |VVEL    |     32 |      0 | 0.00000E+00 |
    32 |WVEL    |     62 |      0 | 0.00000E+00 |
    26 |THETA   |     92 |      0 | 0.00000E+00 |
    27 |SALT    |    122 |      0 | 0.00000E+00 |
------------------------------------------------------------------------
(PID.TID 0000.0001)  OBCS_FIELDS_LOAD: Reading initial data:         0  0.000000000000E+00
(PID.TID 0000.0001) OBCS_balance (it=        0 ) correct for netFreshWaterFlux:  0.00000000E+00
(PID.TID 0000.0001) OBCS_balance (it=        0 ) correct for shelfIceNetMassFlux:  3.64192118E+08
(PID.TID 0000.0001) OBCS_balance (it=        0 ) correct for inFlow:  0.00000000E+00  0.00000000E+00
(PID.TID 0000.0001) OBCS_balance correction to OBEu,OBWu:  7.06241467E-04 -7.06241467E-04
(PID.TID 0000.0001) OBCS_balance correction to OBNv,OBSv:  7.06241467E-04 -7.06241467E-04
(PID.TID 0000.0001) // =======================================================
(PID.TID 0000.0001) // Model current state
(PID.TID 0000.0001) // =======================================================
(PID.TID 0000.0001) 
(PID.TID 0000.0001) // =======================================================
(PID.TID 0000.0001) // Begin MONITOR dynamic field statistics
(PID.TID 0000.0001) // =======================================================
(PID.TID 0000.0001) %MON time_tsnumber                =                     0
(PID.TID 0000.0001) %MON time_secondsf                =   0.0000000000000E+00
(PID.TID 0000.0001) %MON dynstat_eta_max              =   0.0000000000000E+00
(PID.TID 0000.0001) %MON dynstat_eta_min              =   0.0000000000000E+00
(PID.TID 0000.0001) %MON dynstat_eta_mean             =   0.0000000000000E+00
(PID.TID 0000.0001) %MON dynstat_eta_sd               =   0.0000000000000E+00
(PID.TID 0000.0001) %MON dynstat_eta_del2             =   0.0000000000000E+00
(PID.TID 0000.0001) %MON dynstat_uvel_max             =   0.0000000000000E+00
(PID.TID 0000.0001) %MON dynstat_uvel_min             =   0.0000000000000E+00
(PID.TID 0000.0001) %MON dynstat_uvel_mean            =   0.0000000000000E+00
(PID.TID 0000.0001) %MON dynstat_uvel_sd              =   0.0000000000000E+00
(PID.TID 0000.0001) %MON dynstat_uvel_del2            =   0.0000000000000E+00
(PID.TID 0000.0001) %MON dynstat_vvel_max             =   7.0624146672441E-04
(PID.TID 0000.0001) %MON dynstat_vvel_min             =   0.0000000000000E+00
(PID.TID 0000.0001) %MON dynstat_vvel_mean            =   1.1477303311954E-05
(PID.TID 0000.0001) %MON dynstat_vvel_sd              =   8.9297362972039E-05
(PID.TID 0000.0001) %MON dynstat_vvel_del2            =   2.3788474409353E-07
(PID.TID 0000.0001) %MON dynstat_wvel_max             =   0.0000000000000E+00
(PID.TID 0000.0001) %MON dynstat_wvel_min             =  -3.8116482626444E-20
(PID.TID 0000.0001) %MON dynstat_wvel_mean            =  -3.1068016339291E-22
(PID.TID 0000.0001) %MON dynstat_wvel_sd              =   2.7933051764077E-21
(PID.TID 0000.0001) %MON dynstat_wvel_del2            =   1.6988697427023E-23
(PID.TID 0000.0001) %MON dynstat_theta_max            =  -1.9000000000000E+00
(PID.TID 0000.0001) %MON dynstat_theta_min            =  -1.9000000000000E+00
(PID.TID 0000.0001) %MON dynstat_theta_mean           =  -1.9000000000001E+00
(PID.TID 0000.0001) %MON dynstat_theta_sd             =   1.1368683772162E-13
(PID.TID 0000.0001) %MON dynstat_theta_del2           =   0.0000000000000E+00
(PID.TID 0000.0001) %MON dynstat_salt_max             =   3.5273743990000E+01
(PID.TID 0000.0001) %MON dynstat_salt_min             =   3.4400000000000E+01
(PID.TID 0000.0001) %MON dynstat_salt_mean            =   3.4758300967351E+01
(PID.TID 0000.0001) %MON dynstat_salt_sd              =   2.9908761849888E-01
(PID.TID 0000.0001) %MON dynstat_salt_del2            =   0.0000000000000E+00
(PID.TID 0000.0001) %MON trAdv_CFL_u_max              =   0.0000000000000E+00
(PID.TID 0000.0001) %MON trAdv_CFL_v_max              =   0.0000000000000E+00
(PID.TID 0000.0001) %MON trAdv_CFL_w_max              =   0.0000000000000E+00
(PID.TID 0000.0001) %MON advcfl_uvel_max              =   0.0000000000000E+00
(PID.TID 0000.0001) %MON advcfl_vvel_max              =   1.1434282519433E-04
(PID.TID 0000.0001) %MON advcfl_wvel_max              =   4.5739779151732E-18
(PID.TID 0000.0001) %MON advcfl_W_hf_max              =   2.2107559923337E-18
(PID.TID 0000.0001) %MON pe_b_mean                    =   0.0000000000000E+00
(PID.TID 0000.0001) %MON ke_max                       =   1.2499564388917E-07
(PID.TID 0000.0001) %MON ke_mean                      =   2.0326669033501E-09
(PID.TID 0000.0001) %MON ke_vol                       =   3.4145786752861E+14
(PID.TID 0000.0001) %MON vort_r_min                   =  -6.2208789959684E-08
(PID.TID 0000.0001) %MON vort_r_max                   =   6.2208789959684E-08
(PID.TID 0000.0001) %MON vort_a_mean                  =  -1.3992981969631E-04
(PID.TID 0000.0001) %MON vort_a_sd                    =   1.7365072537249E-06
(PID.TID 0000.0001) %MON vort_p_mean                  =  -1.4746660593269E-04
(PID.TID 0000.0001) %MON vort_p_sd                    =   7.7973631916445E-05
(PID.TID 0000.0001) %MON surfExpan_theta_mean         =   9.7070810045309E-22
(PID.TID 0000.0001) %MON surfExpan_salt_mean          =  -1.7574925608203E-20
(PID.TID 0000.0001) // =======================================================
(PID.TID 0000.0001) // End MONITOR dynamic field statistics
(PID.TID 0000.0001) // =======================================================
(PID.TID 0000.0001)  MDS_WRITE_FIELD: it,rec,kS,kL,kH=       0     1  30   1  30 file=U.0000000000
(PID.TID 0000.0001)  MDS_WRITE_FIELD: it,rec,kS,kL,kH=       0     1  30   1  30 file=V.0000000000
(PID.TID 0000.0001)  MDS_WRITE_FIELD: it,rec,kS,kL,kH=       0     1  30   1  30 file=T.0000000000
(PID.TID 0000.0001)  MDS_WRITE_FIELD: it,rec,kS,kL,kH=       0     1  30   1  30 file=S.0000000000
(PID.TID 0000.0001)  MDS_WRITE_FIELD: it,rec,kS,kL,kH=       0     1   1   1   1 file=Eta.0000000000
(PID.TID 0000.0001)  MDS_WRITE_FIELD: it,rec,kS,kL,kH=       0     1  30   1  30 file=W.0000000000
(PID.TID 0000.0001) // =======================================================
(PID.TID 0000.0001) // Begin OBCS MONITOR field statistics
(PID.TID 0000.0001) // =======================================================
(PID.TID 0000.0001) %MON obc_time_tsnumber            =                     0
(PID.TID 0000.0001) %MON obc_time_secondsf            =   0.0000000000000E+00
(PID.TID 0000.0001) %MON obc_N_vVel_max               =   7.0624146672441E-04
(PID.TID 0000.0001) %MON obc_N_vVel_min               =   7.0624146672441E-04
(PID.TID 0000.0001) %MON obc_N_vVel_mean              =   7.0624146672440E-04
(PID.TID 0000.0001) %MON obc_N_vVel_sd                =  -5.3998350387462E-21
(PID.TID 0000.0001) %MON obc_N_vVel_Int               =   3.5358458052541E+05
(PID.TID 0000.0001) %MON obc_N_theta_max              =  -1.9000000000000E+00
(PID.TID 0000.0001) %MON obc_N_theta_min              =  -1.9000000000000E+00
(PID.TID 0000.0001) %MON obc_N_theta_mean             =  -1.9000000000000E+00
(PID.TID 0000.0001) %MON obc_N_theta_sd               =   1.1733186057228E-07
(PID.TID 0000.0001) // =======================================================
(PID.TID 0000.0001) // End OBCS MONITOR field statistics
(PID.TID 0000.0001) // =======================================================
(PID.TID 0000.0001) OBCS_balance (it=        1 ) correct for netFreshWaterFlux:  0.00000000E+00
(PID.TID 0000.0001) OBCS_balance (it=        1 ) correct for shelfIceNetMassFlux:  3.63969872E+08
(PID.TID 0000.0001) OBCS_balance (it=        1 ) correct for inFlow:  0.00000000E+00  0.00000000E+00
(PID.TID 0000.0001) OBCS_balance correction to OBEu,OBWu:  7.05810488E-04 -7.05810488E-04
(PID.TID 0000.0001) OBCS_balance correction to OBNv,OBSv:  7.05810488E-04 -7.05810488E-04
(PID.TID 0000.0001) SOLVE_FOR_PRESSURE: putPmEinXvector =    F
(PID.TID 0000.0001) SOLVE_FOR_PRESSURE: zeroPsNH=    F , zeroMeanPnh=    F
(PID.TID 0000.0001) SOLVE_FOR_PRESSURE: oldFreeSurfTerm =    F
 cg2d: Sum(rhs),rhsMax =   1.93045792961685E+01  8.80201897128457E-03
(PID.TID 0000.0001)      cg2d_init_res =   1.10554823376463E+01
(PID.TID 0000.0001)      cg2d_iters(min,last) =      -1     215
(PID.TID 0000.0001)      cg2d_last_res =   8.65052938967349E-14
(PID.TID 0000.0001) // =======================================================
(PID.TID 0000.0001) // Begin MONITOR dynamic field statistics
(PID.TID 0000.0001) // =======================================================
(PID.TID 0000.0001) %MON time_tsnumber                =                     1
(PID.TID 0000.0001) %MON time_secondsf                =   1.8000000000000E+03
(PID.TID 0000.0001) %MON dynstat_eta_max              =   3.4925783756777E-02
(PID.TID 0000.0001) %MON dynstat_eta_min              =  -7.8899542496324E-03
(PID.TID 0000.0001) %MON dynstat_eta_mean             =  -1.3818375820761E-03
(PID.TID 0000.0001) %MON dynstat_eta_sd               =   6.5475508197627E-03
(PID.TID 0000.0001) %MON dynstat_eta_del2             =   4.6543914699666E-06
(PID.TID 0000.0001) %MON dynstat_uvel_max             =   1.7014811824019E-05
(PID.TID 0000.0001) %MON dynstat_uvel_min             =  -8.5506233163708E-05
(PID.TID 0000.0001) %MON dynstat_uvel_mean            =  -6.3228509354950E-07
(PID.TID 0000.0001) %MON dynstat_uvel_sd              =   1.0373822655853E-05
(PID.TID 0000.0001) %MON dynstat_uvel_del2            =   6.3772481849952E-08
(PID.TID 0000.0001) %MON dynstat_vvel_max             =   7.0581048788336E-04
(PID.TID 0000.0001) %MON dynstat_vvel_min             =  -3.3581031884785E-03
(PID.TID 0000.0001) %MON dynstat_vvel_mean            =  -1.7115002149808E-04
(PID.TID 0000.0001) %MON dynstat_vvel_sd              =   8.5627961117127E-04
(PID.TID 0000.0001) %MON dynstat_vvel_del2            =   5.6703299731819E-08
(PID.TID 0000.0001) %MON dynstat_wvel_max             =   2.1682322914036E-18
(PID.TID 0000.0001) %MON dynstat_wvel_min             =  -3.5186360150350E-06
(PID.TID 0000.0001) %MON dynstat_wvel_mean            =  -1.8112759360699E-07
(PID.TID 0000.0001) %MON dynstat_wvel_sd              =   5.0622226074950E-07
(PID.TID 0000.0001) %MON dynstat_wvel_del2            =   7.5731320584613E-10
(PID.TID 0000.0001) %MON dynstat_theta_max            =  -1.9000000000000E+00
(PID.TID 0000.0001) %MON dynstat_theta_min            =  -1.9000120454613E+00
(PID.TID 0000.0001) %MON dynstat_theta_mean           =  -1.9000001060874E+00
(PID.TID 0000.0001) %MON dynstat_theta_sd             =   8.1090924869834E-07
(PID.TID 0000.0001) %MON dynstat_theta_del2           =   9.6450157977788E-10
(PID.TID 0000.0001) %MON dynstat_salt_max             =   3.5273739621717E+01
(PID.TID 0000.0001) %MON dynstat_salt_min             =   3.4399998474623E+01
(PID.TID 0000.0001) %MON dynstat_salt_mean            =   3.4758300927907E+01
(PID.TID 0000.0001) %MON dynstat_salt_sd              =   2.9908715555835E-01
(PID.TID 0000.0001) %MON dynstat_salt_del2            =   7.0589046279989E-09
(PID.TID 0000.0001) %MON trAdv_CFL_u_max              =   0.0000000000000E+00
(PID.TID 0000.0001) %MON trAdv_CFL_v_max              =   1.1461919689304E-04
(PID.TID 0000.0001) %MON trAdv_CFL_w_max              =   2.2107559923337E-18
(PID.TID 0000.0001) %MON advcfl_uvel_max              =   1.3589927897176E-05
(PID.TID 0000.0001) %MON advcfl_vvel_max              =   5.4368799335107E-04
(PID.TID 0000.0001) %MON advcfl_wvel_max              =   2.1111816090210E-04
(PID.TID 0000.0001) %MON advcfl_W_hf_max              =   5.2044067852977E-04
(PID.TID 0000.0001) %MON pe_b_mean                    =  -3.1794239374500E-07
(PID.TID 0000.0001) %MON ke_max                       =   5.6085950671390E-06
(PID.TID 0000.0001) %MON ke_mean                      =   3.8044838563956E-07
(PID.TID 0000.0001) %MON ke_vol                       =   3.4145786752861E+14
(PID.TID 0000.0001) %MON vort_r_min                   =  -5.2960786481450E-07
(PID.TID 0000.0001) %MON vort_r_max                   =   5.2960762044060E-07
(PID.TID 0000.0001) %MON vort_a_mean                  =  -1.3992981969631E-04
(PID.TID 0000.0001) %MON vort_a_sd                    =   1.7366951629507E-06
(PID.TID 0000.0001) %MON vort_p_mean                  =  -1.4746660593269E-04
(PID.TID 0000.0001) %MON vort_p_sd                    =   7.7973708272776E-05
(PID.TID 0000.0001) %MON surfExpan_theta_mean         =   1.4586055063115E-06
(PID.TID 0000.0001) %MON surfExpan_salt_mean          =  -2.6452313869819E-05
(PID.TID 0000.0001) // =======================================================
(PID.TID 0000.0001) // End MONITOR dynamic field statistics
(PID.TID 0000.0001) // =======================================================
(PID.TID 0000.0001) // =======================================================
(PID.TID 0000.0001) // Begin OBCS MONITOR field statistics
(PID.TID 0000.0001) // =======================================================
(PID.TID 0000.0001) %MON obc_time_tsnumber            =                     1
(PID.TID 0000.0001) %MON obc_time_secondsf            =   1.8000000000000E+03
(PID.TID 0000.0001) %MON obc_N_vVel_max               =   7.0581048788336E-04
(PID.TID 0000.0001) %MON obc_N_vVel_min               =   7.0581048788336E-04
(PID.TID 0000.0001) %MON obc_N_vVel_mean              =   7.0581048788335E-04
(PID.TID 0000.0001) %MON obc_N_vVel_sd                =  -1.3764285392882E-21
(PID.TID 0000.0001) %MON obc_N_vVel_Int               =   3.5336880804545E+05
(PID.TID 0000.0001) %MON obc_N_theta_max              =  -1.9000000000000E+00
(PID.TID 0000.0001) %MON obc_N_theta_min              =  -1.9000000000000E+00
(PID.TID 0000.0001) %MON obc_N_theta_mean             =  -1.9000000000000E+00
(PID.TID 0000.0001) %MON obc_N_theta_sd               =   1.1733186057228E-07
(PID.TID 0000.0001) // =======================================================
(PID.TID 0000.0001) // End OBCS MONITOR field statistics
(PID.TID 0000.0001) // =======================================================
(PID.TID 0000.0001) OBCS_balance (it=        2 ) correct for netFreshWaterFlux:  0.00000000E+00
(PID.TID 0000.0001) OBCS_balance (it=        2 ) correct for shelfIceNetMassFlux:  3.63823631E+08
(PID.TID 0000.0001) OBCS_balance (it=        2 ) correct for inFlow:  0.00000000E+00  0.00000000E+00
(PID.TID 0000.0001) OBCS_balance correction to OBEu,OBWu:  7.05526897E-04 -7.05526897E-04
(PID.TID 0000.0001) OBCS_balance correction to OBNv,OBSv:  7.05526897E-04 -7.05526897E-04
 cg2d: Sum(rhs),rhsMax =   1.46974444217495E+01  2.31176430334697E-02
(PID.TID 0000.0001)      cg2d_init_res =   6.04923632756795E+00
(PID.TID 0000.0001)      cg2d_iters(min,last) =      -1     218
(PID.TID 0000.0001)      cg2d_last_res =   9.58420879630464E-14
(PID.TID 0000.0001) // =======================================================
(PID.TID 0000.0001) // Begin MONITOR dynamic field statistics
(PID.TID 0000.0001) // =======================================================
(PID.TID 0000.0001) %MON time_tsnumber                =                     2
(PID.TID 0000.0001) %MON time_secondsf                =   3.6000000000000E+03
(PID.TID 0000.0001) %MON dynstat_eta_max              =   6.4832319490915E-02
(PID.TID 0000.0001) %MON dynstat_eta_min              =  -1.7901599128474E-02
(PID.TID 0000.0001) %MON dynstat_eta_mean             =  -2.7631199484407E-03
(PID.TID 0000.0001) %MON dynstat_eta_sd               =   1.2883420587051E-02
(PID.TID 0000.0001) %MON dynstat_eta_del2             =   1.0892563119479E-05
(PID.TID 0000.0001) %MON dynstat_uvel_max             =   9.5053885069671E-04
(PID.TID 0000.0001) %MON dynstat_uvel_min             =  -5.6056198188082E-04
(PID.TID 0000.0001) %MON dynstat_uvel_mean            =   2.6639875561994E-05
(PID.TID 0000.0001) %MON dynstat_uvel_sd              =   1.7859760950432E-04
(PID.TID 0000.0001) %MON dynstat_uvel_del2            =   1.4296073927610E-07
(PID.TID 0000.0001) %MON dynstat_vvel_max             =   7.5569262369085E-04
(PID.TID 0000.0001) %MON dynstat_vvel_min             =  -3.5654234183324E-03
(PID.TID 0000.0001) %MON dynstat_vvel_mean            =  -1.6663458765527E-04
(PID.TID 0000.0001) %MON dynstat_vvel_sd              =   1.0096746318361E-03
(PID.TID 0000.0001) %MON dynstat_vvel_del2            =   4.8770740886931E-08
(PID.TID 0000.0001) %MON dynstat_wvel_max             =   1.3935410052377E-07
(PID.TID 0000.0001) %MON dynstat_wvel_min             =  -4.3231795720349E-06
(PID.TID 0000.0001) %MON dynstat_wvel_mean            =  -2.2872523998572E-07
(PID.TID 0000.0001) %MON dynstat_wvel_sd              =   5.9176728906817E-07
(PID.TID 0000.0001) %MON dynstat_wvel_del2            =   1.3983147845027E-09
(PID.TID 0000.0001) %MON dynstat_theta_max            =  -1.9000000000000E+00
(PID.TID 0000.0001) %MON dynstat_theta_min            =  -1.9000466753859E+00
(PID.TID 0000.0001) %MON dynstat_theta_mean           =  -1.9000003239046E+00
(PID.TID 0000.0001) %MON dynstat_theta_sd             =   2.8008791538371E-06
(PID.TID 0000.0001) %MON dynstat_theta_del2           =   3.4700218365892E-09
(PID.TID 0000.0001) %MON dynstat_salt_max             =   3.5273735263639E+01
(PID.TID 0000.0001) %MON dynstat_salt_min             =   3.4399996964882E+01
(PID.TID 0000.0001) %MON dynstat_salt_mean            =   3.4758300666624E+01
(PID.TID 0000.0001) %MON dynstat_salt_sd              =   2.9908657157980E-01
(PID.TID 0000.0001) %MON dynstat_salt_del2            =   1.4603829799827E-08
(PID.TID 0000.0001) %MON trAdv_CFL_u_max              =   1.3589929622062E-05
(PID.TID 0000.0001) %MON trAdv_CFL_v_max              =   5.4125830567095E-04
(PID.TID 0000.0001) %MON trAdv_CFL_w_max              =   5.2044067852977E-04
(PID.TID 0000.0001) %MON advcfl_uvel_max              =   2.7005189539627E-04
(PID.TID 0000.0001) %MON advcfl_vvel_max              =   5.7725382305431E-04
(PID.TID 0000.0001) %MON advcfl_wvel_max              =   2.5939077432209E-04
(PID.TID 0000.0001) %MON advcfl_W_hf_max              =   7.2189281553493E-04
(PID.TID 0000.0001) %MON pe_b_mean                    =  -1.3982222588503E-06
(PID.TID 0000.0001) %MON ke_max                       =   6.4584359754779E-06
(PID.TID 0000.0001) %MON ke_mean                      =   5.3915679525724E-07
(PID.TID 0000.0001) %MON ke_vol                       =   3.4145723146476E+14
(PID.TID 0000.0001) %MON vort_r_min                   =  -5.4555230011012E-07
(PID.TID 0000.0001) %MON vort_r_max                   =   5.5339324155399E-07
(PID.TID 0000.0001) %MON vort_a_mean                  =  -1.3992981969631E-04
(PID.TID 0000.0001) %MON vort_a_sd                    =   1.7367884175367E-06
(PID.TID 0000.0001) %MON vort_p_mean                  =  -1.4746688607077E-04
(PID.TID 0000.0001) %MON vort_p_sd                    =   7.7975484621874E-05
(PID.TID 0000.0001) %MON surfExpan_theta_mean         =   1.4580169361786E-06
(PID.TID 0000.0001) %MON surfExpan_salt_mean          =  -2.6396002936776E-05
(PID.TID 0000.0001) // =======================================================
(PID.TID 0000.0001) // End MONITOR dynamic field statistics
(PID.TID 0000.0001) // =======================================================
(PID.TID 0000.0001) // =======================================================
(PID.TID 0000.0001) // Begin OBCS MONITOR field statistics
(PID.TID 0000.0001) // =======================================================
(PID.TID 0000.0001) %MON obc_time_tsnumber            =                     2
(PID.TID 0000.0001) %MON obc_time_secondsf            =   3.6000000000000E+03
(PID.TID 0000.0001) %MON obc_N_vVel_max               =   7.0552689661531E-04
(PID.TID 0000.0001) %MON obc_N_vVel_min               =   7.0552689661531E-04
(PID.TID 0000.0001) %MON obc_N_vVel_mean              =   7.0552689661530E-04
(PID.TID 0000.0001) %MON obc_N_vVel_sd                =  -5.2939559203394E-21
(PID.TID 0000.0001) %MON obc_N_vVel_Int               =   3.5322682615358E+05
(PID.TID 0000.0001) %MON obc_N_theta_max              =  -1.9000000000000E+00
(PID.TID 0000.0001) %MON obc_N_theta_min              =  -1.9000000000000E+00
(PID.TID 0000.0001) %MON obc_N_theta_mean             =  -1.9000000000000E+00
(PID.TID 0000.0001) %MON obc_N_theta_sd               =   1.1733186057228E-07
(PID.TID 0000.0001) // =======================================================
(PID.TID 0000.0001) // End OBCS MONITOR field statistics
(PID.TID 0000.0001) // =======================================================
(PID.TID 0000.0001) OBCS_balance (it=        3 ) correct for netFreshWaterFlux:  0.00000000E+00
(PID.TID 0000.0001) OBCS_balance (it=        3 ) correct for shelfIceNetMassFlux:  3.63796206E+08
(PID.TID 0000.0001) OBCS_balance (it=        3 ) correct for inFlow:  0.00000000E+00  0.00000000E+00
(PID.TID 0000.0001) OBCS_balance correction to OBEu,OBWu:  7.05473715E-04 -7.05473715E-04
(PID.TID 0000.0001) OBCS_balance correction to OBNv,OBSv:  7.05473715E-04 -7.05473715E-04
 cg2d: Sum(rhs),rhsMax =   1.59741077467068E+01  3.19021555979986E-02
(PID.TID 0000.0001)      cg2d_init_res =   2.69601082019762E+00
(PID.TID 0000.0001)      cg2d_iters(min,last) =      -1     214
(PID.TID 0000.0001)      cg2d_last_res =   8.32575388869686E-14
(PID.TID 0000.0001) // =======================================================
(PID.TID 0000.0001) // Begin MONITOR dynamic field statistics
(PID.TID 0000.0001) // =======================================================
(PID.TID 0000.0001) %MON time_tsnumber                =                     3
(PID.TID 0000.0001) %MON time_secondsf                =   5.4000000000000E+03
(PID.TID 0000.0001) %MON dynstat_eta_max              =   7.9122960500545E-02
(PID.TID 0000.0001) %MON dynstat_eta_min              =  -2.3279138031147E-02
(PID.TID 0000.0001) %MON dynstat_eta_mean             =  -4.1442981949447E-03
(PID.TID 0000.0001) %MON dynstat_eta_sd               =   1.6600446607675E-02
(PID.TID 0000.0001) %MON dynstat_eta_del2             =   1.4969608851732E-05
(PID.TID 0000.0001) %MON dynstat_uvel_max             =   1.0202438584195E-03
(PID.TID 0000.0001) %MON dynstat_uvel_min             =  -1.1550440679040E-03
(PID.TID 0000.0001) %MON dynstat_uvel_mean            =   5.4962879918247E-06
(PID.TID 0000.0001) %MON dynstat_uvel_sd              =   2.0179256282241E-04
(PID.TID 0000.0001) %MON dynstat_uvel_del2            =   2.0888318018879E-07
(PID.TID 0000.0001) %MON dynstat_vvel_max             =   8.0127834455641E-04
(PID.TID 0000.0001) %MON dynstat_vvel_min             =  -2.6670410009473E-03
(PID.TID 0000.0001) %MON dynstat_vvel_mean            =  -3.0746238811146E-05
(PID.TID 0000.0001) %MON dynstat_vvel_sd              =   7.6556178685673E-04
(PID.TID 0000.0001) %MON dynstat_vvel_del2            =   3.7131750702772E-08
(PID.TID 0000.0001) %MON dynstat_wvel_max             =   1.0946034901021E-06
(PID.TID 0000.0001) %MON dynstat_wvel_min             =  -8.4714699259731E-06
(PID.TID 0000.0001) %MON dynstat_wvel_mean            =  -1.6821678838579E-07
(PID.TID 0000.0001) %MON dynstat_wvel_sd              =   4.5554774512832E-07
(PID.TID 0000.0001) %MON dynstat_wvel_del2            =   1.8307251307248E-09
(PID.TID 0000.0001) %MON dynstat_theta_max            =  -1.9000000000000E+00
(PID.TID 0000.0001) %MON dynstat_theta_min            =  -1.9000747614732E+00
(PID.TID 0000.0001) %MON dynstat_theta_mean           =  -1.9000005207646E+00
(PID.TID 0000.0001) %MON dynstat_theta_sd             =   4.5031104248549E-06
(PID.TID 0000.0001) %MON dynstat_theta_del2           =   5.5332002997734E-09
(PID.TID 0000.0001) %MON dynstat_salt_max             =   3.5273731035416E+01
(PID.TID 0000.0001) %MON dynstat_salt_min             =   3.4399995475602E+01
(PID.TID 0000.0001) %MON dynstat_salt_mean            =   3.4758300624703E+01
(PID.TID 0000.0001) %MON dynstat_salt_sd              =   2.9908610300672E-01
(PID.TID 0000.0001) %MON dynstat_salt_del2            =   2.2430172855224E-08
(PID.TID 0000.0001) %MON trAdv_CFL_u_max              =   2.7005192967224E-04
(PID.TID 0000.0001) %MON trAdv_CFL_v_max              =   5.7474533047938E-04
(PID.TID 0000.0001) %MON trAdv_CFL_w_max              =   7.2189281553493E-04
(PID.TID 0000.0001) %MON advcfl_uvel_max              =   3.5372317365681E-04
(PID.TID 0000.0001) %MON advcfl_vvel_max              =   4.3180274357414E-04
(PID.TID 0000.0001) %MON advcfl_wvel_max              =   5.0828819555838E-04
(PID.TID 0000.0001) %MON advcfl_W_hf_max              =   6.6946143969850E-04
(PID.TID 0000.0001) %MON pe_b_mean                    =  -2.9291111401454E-06
(PID.TID 0000.0001) %MON ke_max                       =   3.5463386236013E-06
(PID.TID 0000.0001) %MON ke_mean                      =   3.1234855305189E-07
(PID.TID 0000.0001) %MON ke_vol                       =   3.4145659565647E+14
(PID.TID 0000.0001) %MON vort_r_min                   =  -3.9102701720323E-07
(PID.TID 0000.0001) %MON vort_r_max                   =   3.7772018872182E-07
(PID.TID 0000.0001) %MON vort_a_mean                  =  -1.3992981969631E-04
(PID.TID 0000.0001) %MON vort_a_sd                    =   1.7366239488232E-06
(PID.TID 0000.0001) %MON vort_p_mean                  =  -1.4746716702079E-04
(PID.TID 0000.0001) %MON vort_p_sd                    =   7.7971028229217E-05
(PID.TID 0000.0001) %MON surfExpan_theta_mean         =   1.4579069957062E-06
(PID.TID 0000.0001) %MON surfExpan_salt_mean          =  -2.6460921111658E-05
(PID.TID 0000.0001) // =======================================================
(PID.TID 0000.0001) // End MONITOR dynamic field statistics
(PID.TID 0000.0001) // =======================================================
(PID.TID 0000.0001) // =======================================================
(PID.TID 0000.0001) // Begin OBCS MONITOR field statistics
(PID.TID 0000.0001) // =======================================================
(PID.TID 0000.0001) %MON obc_time_tsnumber            =                     3
(PID.TID 0000.0001) %MON obc_time_secondsf            =   5.4000000000000E+03
(PID.TID 0000.0001) %MON obc_N_vVel_max               =   7.0547371461285E-04
(PID.TID 0000.0001) %MON obc_N_vVel_min               =   7.0547371461285E-04
(PID.TID 0000.0001) %MON obc_N_vVel_mean              =   7.0547371461283E-04
(PID.TID 0000.0001) %MON obc_N_vVel_sd                =   1.7340608301766E-10
(PID.TID 0000.0001) %MON obc_N_vVel_Int               =   3.5320020022333E+05
(PID.TID 0000.0001) %MON obc_N_theta_max              =  -1.9000000000000E+00
(PID.TID 0000.0001) %MON obc_N_theta_min              =  -1.9000000000000E+00
(PID.TID 0000.0001) %MON obc_N_theta_mean             =  -1.9000000000000E+00
(PID.TID 0000.0001) %MON obc_N_theta_sd               =   1.1733186057228E-07
(PID.TID 0000.0001) // =======================================================
(PID.TID 0000.0001) // End OBCS MONITOR field statistics
(PID.TID 0000.0001) // =======================================================
(PID.TID 0000.0001) OBCS_balance (it=        4 ) correct for netFreshWaterFlux:  0.00000000E+00
(PID.TID 0000.0001) OBCS_balance (it=        4 ) correct for shelfIceNetMassFlux:  3.63906755E+08
(PID.TID 0000.0001) OBCS_balance (it=        4 ) correct for inFlow:  0.00000000E+00  0.00000000E+00
(PID.TID 0000.0001) OBCS_balance correction to OBEu,OBWu:  7.05688090E-04 -7.05688090E-04
(PID.TID 0000.0001) OBCS_balance correction to OBNv,OBSv:  7.05688090E-04 -7.05688090E-04
 cg2d: Sum(rhs),rhsMax =   1.68375165481858E+01  4.03562054830177E-02
(PID.TID 0000.0001)      cg2d_init_res =   2.11038671607048E+00
(PID.TID 0000.0001)      cg2d_iters(min,last) =      -1     215
(PID.TID 0000.0001)      cg2d_last_res =   9.54478058594034E-14
(PID.TID 0000.0001) // =======================================================
(PID.TID 0000.0001) // Begin MONITOR dynamic field statistics
(PID.TID 0000.0001) // =======================================================
(PID.TID 0000.0001) %MON time_tsnumber                =                     4
(PID.TID 0000.0001) %MON time_secondsf                =   7.2000000000000E+03
(PID.TID 0000.0001) %MON dynstat_eta_max              =   7.9075920801704E-02
(PID.TID 0000.0001) %MON dynstat_eta_min              =  -2.3586728259577E-02
(PID.TID 0000.0001) %MON dynstat_eta_mean             =  -5.5258961466395E-03
(PID.TID 0000.0001) %MON dynstat_eta_sd               =   1.7604334310328E-02
(PID.TID 0000.0001) %MON dynstat_eta_del2             =   1.9045625738938E-05
(PID.TID 0000.0001) %MON dynstat_uvel_max             =   5.8151278129098E-04
(PID.TID 0000.0001) %MON dynstat_uvel_min             =  -1.9204686490155E-03
(PID.TID 0000.0001) %MON dynstat_uvel_mean            =  -3.7756256951146E-05
(PID.TID 0000.0001) %MON dynstat_uvel_sd              =   1.5930673581220E-04
(PID.TID 0000.0001) %MON dynstat_uvel_del2            =   2.3245052330919E-07
(PID.TID 0000.0001) %MON dynstat_vvel_max             =   8.4410374907378E-04
(PID.TID 0000.0001) %MON dynstat_vvel_min             =  -1.6412599210182E-03
(PID.TID 0000.0001) %MON dynstat_vvel_mean            =   1.9321913048226E-04
(PID.TID 0000.0001) %MON dynstat_vvel_sd              =   4.5557163418947E-04
(PID.TID 0000.0001) %MON dynstat_vvel_del2            =   4.9595944472060E-08
(PID.TID 0000.0001) %MON dynstat_wvel_max             =   5.8609067858191E-06
(PID.TID 0000.0001) %MON dynstat_wvel_min             =  -1.0945425164321E-05
(PID.TID 0000.0001) %MON dynstat_wvel_mean            =  -4.7336659600418E-08
(PID.TID 0000.0001) %MON dynstat_wvel_sd              =   3.2540592067605E-07
(PID.TID 0000.0001) %MON dynstat_wvel_del2            =   1.9734572181551E-09
(PID.TID 0000.0001) %MON dynstat_theta_max            =  -1.8999999999994E+00
(PID.TID 0000.0001) %MON dynstat_theta_min            =  -1.9000880010730E+00
(PID.TID 0000.0001) %MON dynstat_theta_mean           =  -1.9000006253161E+00
(PID.TID 0000.0001) %MON dynstat_theta_sd             =   5.2484480517645E-06
(PID.TID 0000.0001) %MON dynstat_theta_del2           =   6.3508096751741E-09
(PID.TID 0000.0001) %MON dynstat_salt_max             =   3.5273726970540E+01
(PID.TID 0000.0001) %MON dynstat_salt_min             =   3.4399993504467E+01
(PID.TID 0000.0001) %MON dynstat_salt_mean            =   3.4758300781015E+01
(PID.TID 0000.0001) %MON dynstat_salt_sd              =   2.9908568543640E-01
(PID.TID 0000.0001) %MON dynstat_salt_del2            =   3.0194674658268E-08
(PID.TID 0000.0001) %MON trAdv_CFL_u_max              =   3.5372307760703E-04
(PID.TID 0000.0001) %MON trAdv_CFL_v_max              =   4.3000739982790E-04
(PID.TID 0000.0001) %MON trAdv_CFL_w_max              =   6.6946143969850E-04
(PID.TID 0000.0001) %MON advcfl_uvel_max              =   5.8812843969743E-04
(PID.TID 0000.0001) %MON advcfl_vvel_max              =   2.6572540000781E-04
(PID.TID 0000.0001) %MON advcfl_wvel_max              =   6.5672550985923E-04
(PID.TID 0000.0001) %MON advcfl_W_hf_max              =   6.5673157059275E-04
(PID.TID 0000.0001) %MON pe_b_mean                    =  -3.2818223699480E-06
(PID.TID 0000.0001) %MON ke_max                       =   1.8432538422565E-06
(PID.TID 0000.0001) %MON ke_mean                      =   1.3391504955440E-07
(PID.TID 0000.0001) %MON ke_vol                       =   3.4145595989612E+14
(PID.TID 0000.0001) %MON vort_r_min                   =  -2.2478345635845E-07
(PID.TID 0000.0001) %MON vort_r_max                   =   2.1232477933093E-07
(PID.TID 0000.0001) %MON vort_a_mean                  =  -1.3992981969631E-04
(PID.TID 0000.0001) %MON vort_a_sd                    =   1.7364376690097E-06
(PID.TID 0000.0001) %MON vort_p_mean                  =  -1.4746744247667E-04
(PID.TID 0000.0001) %MON vort_p_sd                    =   7.7965923209140E-05
(PID.TID 0000.0001) %MON surfExpan_theta_mean         =   1.4583523719883E-06
(PID.TID 0000.0001) %MON surfExpan_salt_mean          =  -2.6591100928714E-05
(PID.TID 0000.0001) // =======================================================
(PID.TID 0000.0001) // End MONITOR dynamic field statistics
(PID.TID 0000.0001) // =======================================================
(PID.TID 0000.0001) // =======================================================
(PID.TID 0000.0001) // Begin OBCS MONITOR field statistics
(PID.TID 0000.0001) // =======================================================
(PID.TID 0000.0001) %MON obc_time_tsnumber            =                     4
(PID.TID 0000.0001) %MON obc_time_secondsf            =   7.2000000000000E+03
(PID.TID 0000.0001) %MON obc_N_vVel_max               =   7.0568809025972E-04
(PID.TID 0000.0001) %MON obc_N_vVel_min               =   7.0568809025972E-04
(PID.TID 0000.0001) %MON obc_N_vVel_mean              =   7.0568809025971E-04
(PID.TID 0000.0001) %MON obc_N_vVel_sd                =   2.9103830456734E-11
(PID.TID 0000.0001) %MON obc_N_vVel_Int               =   3.5330752884499E+05
(PID.TID 0000.0001) %MON obc_N_theta_max              =  -1.9000000000000E+00
(PID.TID 0000.0001) %MON obc_N_theta_min              =  -1.9000000000000E+00
(PID.TID 0000.0001) %MON obc_N_theta_mean             =  -1.9000000000000E+00
(PID.TID 0000.0001) %MON obc_N_theta_sd               =   1.1733186057228E-07
(PID.TID 0000.0001) // =======================================================
(PID.TID 0000.0001) // End OBCS MONITOR field statistics
(PID.TID 0000.0001) // =======================================================
(PID.TID 0000.0001) OBCS_balance (it=        5 ) correct for netFreshWaterFlux:  0.00000000E+00
(PID.TID 0000.0001) OBCS_balance (it=        5 ) correct for shelfIceNetMassFlux:  3.63964034E+08
(PID.TID 0000.0001) OBCS_balance (it=        5 ) correct for inFlow:  0.00000000E+00  0.00000000E+00
(PID.TID 0000.0001) OBCS_balance correction to OBEu,OBWu:  7.05799166E-04 -7.05799166E-04
(PID.TID 0000.0001) OBCS_balance correction to OBNv,OBSv:  7.05799166E-04 -7.05799166E-04
 cg2d: Sum(rhs),rhsMax =   1.72835540195413E+01  4.91458425916428E-02
(PID.TID 0000.0001)      cg2d_init_res =   1.73718233571841E+00
(PID.TID 0000.0001)      cg2d_iters(min,last) =      -1     213
(PID.TID 0000.0001)      cg2d_last_res =   9.69535085521879E-14
(PID.TID 0000.0001) // =======================================================
(PID.TID 0000.0001) // Begin MONITOR dynamic field statistics
(PID.TID 0000.0001) // =======================================================
(PID.TID 0000.0001) %MON time_tsnumber                =                     5
(PID.TID 0000.0001) %MON time_secondsf                =   9.0000000000000E+03
(PID.TID 0000.0001) %MON dynstat_eta_max              =   6.9969872853014E-02
(PID.TID 0000.0001) %MON dynstat_eta_min              =  -2.1249033978200E-02
(PID.TID 0000.0001) %MON dynstat_eta_mean             =  -6.9077115635027E-03
(PID.TID 0000.0001) %MON dynstat_eta_sd               =   1.6670820836419E-02
(PID.TID 0000.0001) %MON dynstat_eta_del2             =   2.3142635406985E-05
(PID.TID 0000.0001) %MON dynstat_uvel_max             =   2.5682805295410E-04
(PID.TID 0000.0001) %MON dynstat_uvel_min             =  -2.2122121823790E-03
(PID.TID 0000.0001) %MON dynstat_uvel_mean            =  -7.3124452390467E-05
(PID.TID 0000.0001) %MON dynstat_uvel_sd              =   1.4485960302849E-04
(PID.TID 0000.0001) %MON dynstat_uvel_del2            =   2.2718306084626E-07
(PID.TID 0000.0001) %MON dynstat_vvel_max             =   1.4596437005499E-03
(PID.TID 0000.0001) %MON dynstat_vvel_min             =  -6.6493455900877E-04
(PID.TID 0000.0001) %MON dynstat_vvel_mean            =   4.8235278386596E-04
(PID.TID 0000.0001) %MON dynstat_vvel_sd              =   3.2215049982363E-04
(PID.TID 0000.0001) %MON dynstat_vvel_del2            =   8.0203363368209E-08
(PID.TID 0000.0001) %MON dynstat_wvel_max             =   1.2248312361828E-05
(PID.TID 0000.0001) %MON dynstat_wvel_min             =  -8.4077599332508E-06
(PID.TID 0000.0001) %MON dynstat_wvel_mean            =   9.5729552792622E-08
(PID.TID 0000.0001) %MON dynstat_wvel_sd              =   5.1420825680837E-07
(PID.TID 0000.0001) %MON dynstat_wvel_del2            =   3.4391854125982E-09
(PID.TID 0000.0001) %MON dynstat_theta_max            =  -1.8999999999980E+00
(PID.TID 0000.0001) %MON dynstat_theta_min            =  -1.9000933392929E+00
(PID.TID 0000.0001) %MON dynstat_theta_mean           =  -1.9000007177896E+00
(PID.TID 0000.0001) %MON dynstat_theta_sd             =   5.8944303570214E-06
(PID.TID 0000.0001) %MON dynstat_theta_del2           =   7.0506335787719E-09
(PID.TID 0000.0001) %MON dynstat_salt_max             =   3.5273723055556E+01
(PID.TID 0000.0001) %MON dynstat_salt_min             =   3.4399986964157E+01
(PID.TID 0000.0001) %MON dynstat_salt_mean            =   3.4758301022143E+01
(PID.TID 0000.0001) %MON dynstat_salt_sd              =   2.9908525963713E-01
(PID.TID 0000.0001) %MON dynstat_salt_del2            =   3.7340140532901E-08
(PID.TID 0000.0001) %MON trAdv_CFL_u_max              =   5.8812809687189E-04
(PID.TID 0000.0001) %MON trAdv_CFL_v_max              =   2.6159908801873E-04
(PID.TID 0000.0001) %MON trAdv_CFL_w_max              =   6.5673157059275E-04
(PID.TID 0000.0001) %MON advcfl_uvel_max              =   6.7747260532954E-04
(PID.TID 0000.0001) %MON advcfl_vvel_max              =   2.3632113428863E-04
(PID.TID 0000.0001) %MON advcfl_wvel_max              =   7.3489874170968E-04
(PID.TID 0000.0001) %MON advcfl_W_hf_max              =   7.3490636232688E-04
(PID.TID 0000.0001) %MON pe_b_mean                    =  -6.5619846365774E-07
(PID.TID 0000.0001) %MON ke_max                       =   2.4591704328694E-06
(PID.TID 0000.0001) %MON ke_mean                      =   1.7960663863593E-07
(PID.TID 0000.0001) %MON ke_vol                       =   3.4145532394256E+14
(PID.TID 0000.0001) %MON vort_r_min                   =  -2.0322018086191E-07
(PID.TID 0000.0001) %MON vort_r_max                   =   2.2933367447070E-07
(PID.TID 0000.0001) %MON vort_a_mean                  =  -1.3992981969631E-04
(PID.TID 0000.0001) %MON vort_a_sd                    =   1.7363529854435E-06
(PID.TID 0000.0001) %MON vort_p_mean                  =  -1.4746771388996E-04
(PID.TID 0000.0001) %MON vort_p_sd                    =   7.7965041617235E-05
(PID.TID 0000.0001) %MON surfExpan_theta_mean         =   1.4585848516904E-06
(PID.TID 0000.0001) %MON surfExpan_salt_mean          =  -2.6731103304270E-05
(PID.TID 0000.0001) // =======================================================
(PID.TID 0000.0001) // End MONITOR dynamic field statistics
(PID.TID 0000.0001) // =======================================================
(PID.TID 0000.0001) // =======================================================
(PID.TID 0000.0001) // Begin OBCS MONITOR field statistics
(PID.TID 0000.0001) // =======================================================
(PID.TID 0000.0001) %MON obc_time_tsnumber            =                     5
(PID.TID 0000.0001) %MON obc_time_secondsf            =   9.0000000000000E+03
(PID.TID 0000.0001) %MON obc_N_vVel_max               =   7.0579916640829E-04
(PID.TID 0000.0001) %MON obc_N_vVel_min               =   7.0579916640829E-04
(PID.TID 0000.0001) %MON obc_N_vVel_mean              =   7.0579916640828E-04
(PID.TID 0000.0001) %MON obc_N_vVel_sd                =   1.0840932682732E-10
(PID.TID 0000.0001) %MON obc_N_vVel_Int               =   3.5336313987216E+05
(PID.TID 0000.0001) %MON obc_N_theta_max              =  -1.9000000000000E+00
(PID.TID 0000.0001) %MON obc_N_theta_min              =  -1.9000000000000E+00
(PID.TID 0000.0001) %MON obc_N_theta_mean             =  -1.9000000000000E+00
(PID.TID 0000.0001) %MON obc_N_theta_sd               =   1.1733186057228E-07
(PID.TID 0000.0001) // =======================================================
(PID.TID 0000.0001) // End OBCS MONITOR field statistics
(PID.TID 0000.0001) // =======================================================
(PID.TID 0000.0001) OBCS_balance (it=        6 ) correct for netFreshWaterFlux:  0.00000000E+00
(PID.TID 0000.0001) OBCS_balance (it=        6 ) correct for shelfIceNetMassFlux:  3.63960731E+08
(PID.TID 0000.0001) OBCS_balance (it=        6 ) correct for inFlow:  0.00000000E+00  0.00000000E+00
(PID.TID 0000.0001) OBCS_balance correction to OBEu,OBWu:  7.05792762E-04 -7.05792762E-04
(PID.TID 0000.0001) OBCS_balance correction to OBNv,OBSv:  7.05792762E-04 -7.05792762E-04
 cg2d: Sum(rhs),rhsMax =   1.75720243959671E+01  5.80086737886261E-02
(PID.TID 0000.0001)      cg2d_init_res =   1.47409098063522E+00
(PID.TID 0000.0001)      cg2d_iters(min,last) =      -1     212
(PID.TID 0000.0001)      cg2d_last_res =   8.18099695317561E-14
(PID.TID 0000.0001) // =======================================================
(PID.TID 0000.0001) // Begin MONITOR dynamic field statistics
(PID.TID 0000.0001) // =======================================================
(PID.TID 0000.0001) %MON time_tsnumber                =                     6
(PID.TID 0000.0001) %MON time_secondsf                =   1.0800000000000E+04
(PID.TID 0000.0001) %MON dynstat_eta_max              =   6.1163371248955E-02
(PID.TID 0000.0001) %MON dynstat_eta_min              =  -2.3443113578937E-02
(PID.TID 0000.0001) %MON dynstat_eta_mean             =  -8.2895144411175E-03
(PID.TID 0000.0001) %MON dynstat_eta_sd               =   1.4650351210008E-02
(PID.TID 0000.0001) %MON dynstat_eta_del2             =   2.7248851242566E-05
(PID.TID 0000.0001) %MON dynstat_uvel_max             =   2.3902045233059E-04
(PID.TID 0000.0001) %MON dynstat_uvel_min             =  -1.9384540661909E-03
(PID.TID 0000.0001) %MON dynstat_uvel_mean            =  -8.8902827336918E-05
(PID.TID 0000.0001) %MON dynstat_uvel_sd              =   1.3389385086700E-04
(PID.TID 0000.0001) %MON dynstat_uvel_del2            =   2.0777702618175E-07
(PID.TID 0000.0001) %MON dynstat_vvel_max             =   2.3254392175248E-03
(PID.TID 0000.0001) %MON dynstat_vvel_min             =  -2.9561366748133E-04
(PID.TID 0000.0001) %MON dynstat_vvel_mean            =   8.0653643457478E-04
(PID.TID 0000.0001) %MON dynstat_vvel_sd              =   4.2326223936666E-04
(PID.TID 0000.0001) %MON dynstat_vvel_del2            =   1.2275781299366E-07
(PID.TID 0000.0001) %MON dynstat_wvel_max             =   1.8940351737246E-05
(PID.TID 0000.0001) %MON dynstat_wvel_min             =  -9.3511607203945E-07
(PID.TID 0000.0001) %MON dynstat_wvel_mean            =   2.3205381308411E-07
(PID.TID 0000.0001) %MON dynstat_wvel_sd              =   9.5297243057780E-07
(PID.TID 0000.0001) %MON dynstat_wvel_del2            =   6.3727337888503E-09
(PID.TID 0000.0001) %MON dynstat_theta_max            =  -1.8999999999997E+00
(PID.TID 0000.0001) %MON dynstat_theta_min            =  -1.9001052930898E+00
(PID.TID 0000.0001) %MON dynstat_theta_mean           =  -1.9000008291967E+00
(PID.TID 0000.0001) %MON dynstat_theta_sd             =   6.7448852062886E-06
(PID.TID 0000.0001) %MON dynstat_theta_del2           =   8.0081669754909E-09
(PID.TID 0000.0001) %MON dynstat_salt_max             =   3.5273719293217E+01
(PID.TID 0000.0001) %MON dynstat_salt_min             =   3.4399984481757E+01
(PID.TID 0000.0001) %MON dynstat_salt_mean            =   3.4758301276210E+01
(PID.TID 0000.0001) %MON dynstat_salt_sd              =   2.9908481378016E-01
(PID.TID 0000.0001) %MON dynstat_salt_del2            =   4.4657336608174E-08
(PID.TID 0000.0001) %MON trAdv_CFL_u_max              =   6.7747225333489E-04
(PID.TID 0000.0001) %MON trAdv_CFL_v_max              =   2.3725479429886E-04
(PID.TID 0000.0001) %MON trAdv_CFL_w_max              =   7.3490636232688E-04
(PID.TID 0000.0001) %MON advcfl_uvel_max              =   5.9363633244337E-04
(PID.TID 0000.0001) %MON advcfl_vvel_max              =   3.7649628700325E-04
(PID.TID 0000.0001) %MON advcfl_wvel_max              =   1.1364211042347E-03
(PID.TID 0000.0001) %MON advcfl_W_hf_max              =   1.1364344737572E-03
(PID.TID 0000.0001) %MON pe_b_mean                    =   5.8734828817066E-06
(PID.TID 0000.0001) %MON ke_max                       =   2.7002934077696E-06
(PID.TID 0000.0001) %MON ke_mean                      =   4.2672318016622E-07
(PID.TID 0000.0001) %MON ke_vol                       =   3.4145468788891E+14
(PID.TID 0000.0001) %MON vort_r_min                   =  -3.2858063598210E-07
(PID.TID 0000.0001) %MON vort_r_max                   =   2.8991385427498E-07
(PID.TID 0000.0001) %MON vort_a_mean                  =  -1.3992981969631E-04
(PID.TID 0000.0001) %MON vort_a_sd                    =   1.7363839651023E-06
(PID.TID 0000.0001) %MON vort_p_mean                  =  -1.4746798298081E-04
(PID.TID 0000.0001) %MON vort_p_sd                    =   7.7969455594808E-05
(PID.TID 0000.0001) %MON surfExpan_theta_mean         =   1.4585746722417E-06
(PID.TID 0000.0001) %MON surfExpan_salt_mean          =  -2.6853884063180E-05
(PID.TID 0000.0001) // =======================================================
(PID.TID 0000.0001) // End MONITOR dynamic field statistics
(PID.TID 0000.0001) // =======================================================
(PID.TID 0000.0001) // =======================================================
(PID.TID 0000.0001) // Begin OBCS MONITOR field statistics
(PID.TID 0000.0001) // =======================================================
(PID.TID 0000.0001) %MON obc_time_tsnumber            =                     6
(PID.TID 0000.0001) %MON obc_time_secondsf            =   1.0800000000000E+04
(PID.TID 0000.0001) %MON obc_N_vVel_max               =   7.0579276165196E-04
(PID.TID 0000.0001) %MON obc_N_vVel_min               =   7.0579276165196E-04
(PID.TID 0000.0001) %MON obc_N_vVel_mean              =   7.0579276165194E-04
(PID.TID 0000.0001) %MON obc_N_vVel_sd                =   1.5434636905845E-10
(PID.TID 0000.0001) %MON obc_N_vVel_Int               =   3.5335993328746E+05
(PID.TID 0000.0001) %MON obc_N_theta_max              =  -1.9000000000000E+00
(PID.TID 0000.0001) %MON obc_N_theta_min              =  -1.9000000000000E+00
(PID.TID 0000.0001) %MON obc_N_theta_mean             =  -1.9000000000000E+00
(PID.TID 0000.0001) %MON obc_N_theta_sd               =   1.1733186057228E-07
(PID.TID 0000.0001) // =======================================================
(PID.TID 0000.0001) // End OBCS MONITOR field statistics
(PID.TID 0000.0001) // =======================================================
(PID.TID 0000.0001) OBCS_balance (it=        7 ) correct for netFreshWaterFlux:  0.00000000E+00
(PID.TID 0000.0001) OBCS_balance (it=        7 ) correct for shelfIceNetMassFlux:  3.63927062E+08
(PID.TID 0000.0001) OBCS_balance (it=        7 ) correct for inFlow:  0.00000000E+00  0.00000000E+00
(PID.TID 0000.0001) OBCS_balance correction to OBEu,OBWu:  7.05727469E-04 -7.05727469E-04
(PID.TID 0000.0001) OBCS_balance correction to OBNv,OBSv:  7.05727469E-04 -7.05727469E-04
 cg2d: Sum(rhs),rhsMax =   1.75403399174964E+01  6.77996620124825E-02
(PID.TID 0000.0001)      cg2d_init_res =   1.26210485864251E+00
(PID.TID 0000.0001)      cg2d_iters(min,last) =      -1     211
(PID.TID 0000.0001)      cg2d_last_res =   9.32449466184182E-14
(PID.TID 0000.0001) // =======================================================
(PID.TID 0000.0001) // Begin MONITOR dynamic field statistics
(PID.TID 0000.0001) // =======================================================
(PID.TID 0000.0001) %MON time_tsnumber                =                     7
(PID.TID 0000.0001) %MON time_secondsf                =   1.2600000000000E+04
(PID.TID 0000.0001) %MON dynstat_eta_max              =   5.1539402885196E-02
(PID.TID 0000.0001) %MON dynstat_eta_min              =  -2.8779722851590E-02
(PID.TID 0000.0001) %MON dynstat_eta_mean             =  -9.6711894890683E-03
(PID.TID 0000.0001) %MON dynstat_eta_sd               =   1.2336224863419E-02
(PID.TID 0000.0001) %MON dynstat_eta_del2             =   3.1359914552931E-05
(PID.TID 0000.0001) %MON dynstat_uvel_max             =   4.3177136713018E-04
(PID.TID 0000.0001) %MON dynstat_uvel_min             =  -1.3388730985779E-03
(PID.TID 0000.0001) %MON dynstat_uvel_mean            =  -8.7210191469557E-05
(PID.TID 0000.0001) %MON dynstat_uvel_sd              =   1.2384404055793E-04
(PID.TID 0000.0001) %MON dynstat_uvel_del2            =   1.8749444461948E-07
(PID.TID 0000.0001) %MON dynstat_vvel_max             =   2.9133334910641E-03
(PID.TID 0000.0001) %MON dynstat_vvel_min             =  -8.2169873189377E-05
(PID.TID 0000.0001) %MON dynstat_vvel_mean            =   1.1201001383802E-03
(PID.TID 0000.0001) %MON dynstat_vvel_sd              =   5.4300468911353E-04
(PID.TID 0000.0001) %MON dynstat_vvel_del2            =   1.6752356718036E-07
(PID.TID 0000.0001) %MON dynstat_wvel_max             =   2.4681663256709E-05
(PID.TID 0000.0001) %MON dynstat_wvel_min             =  -1.2747307699288E-06
(PID.TID 0000.0001) %MON dynstat_wvel_mean            =   3.4264211861422E-07
(PID.TID 0000.0001) %MON dynstat_wvel_sd              =   1.4139856871407E-06
(PID.TID 0000.0001) %MON dynstat_wvel_del2            =   9.4769200874556E-09
(PID.TID 0000.0001) %MON dynstat_theta_max            =  -1.8999999999785E+00
(PID.TID 0000.0001) %MON dynstat_theta_min            =  -1.9001256449502E+00
(PID.TID 0000.0001) %MON dynstat_theta_mean           =  -1.9000009653698E+00
(PID.TID 0000.0001) %MON dynstat_theta_sd             =   7.7640909024272E-06
(PID.TID 0000.0001) %MON dynstat_theta_del2           =   9.2039909654170E-09
(PID.TID 0000.0001) %MON dynstat_salt_max             =   3.5273716281609E+01
(PID.TID 0000.0001) %MON dynstat_salt_min             =   3.4399988623300E+01
(PID.TID 0000.0001) %MON dynstat_salt_mean            =   3.4758301502476E+01
(PID.TID 0000.0001) %MON dynstat_salt_sd              =   2.9908435711152E-01
(PID.TID 0000.0001) %MON dynstat_salt_del2            =   5.5368476647610E-08
(PID.TID 0000.0001) %MON trAdv_CFL_u_max              =   5.9363626989967E-04
(PID.TID 0000.0001) %MON trAdv_CFL_v_max              =   3.7799611872264E-04
(PID.TID 0000.0001) %MON trAdv_CFL_w_max              =   1.1364344737572E-03
(PID.TID 0000.0001) %MON advcfl_uvel_max              =   4.1001937044020E-04
(PID.TID 0000.0001) %MON advcfl_vvel_max              =   4.7167831088502E-04
(PID.TID 0000.0001) %MON advcfl_wvel_max              =   1.4808997954026E-03
(PID.TID 0000.0001) %MON advcfl_W_hf_max              =   1.4809174167903E-03
(PID.TID 0000.0001) %MON pe_b_mean                    =   1.6170963110061E-05
(PID.TID 0000.0001) %MON ke_max                       =   4.2417035716599E-06
(PID.TID 0000.0001) %MON ke_mean                      =   7.8632859627277E-07
(PID.TID 0000.0001) %MON ke_vol                       =   3.4145405184103E+14
(PID.TID 0000.0001) %MON vort_r_min                   =  -4.1476341722845E-07
(PID.TID 0000.0001) %MON vort_r_max                   =   3.1616489873725E-07
(PID.TID 0000.0001) %MON vort_a_mean                  =  -1.3992981969631E-04
(PID.TID 0000.0001) %MON vort_a_sd                    =   1.7364983101872E-06
(PID.TID 0000.0001) %MON vort_p_mean                  =  -1.4746825122877E-04
(PID.TID 0000.0001) %MON vort_p_sd                    =   7.7977536550406E-05
(PID.TID 0000.0001) %MON surfExpan_theta_mean         =   1.4584426748803E-06
(PID.TID 0000.0001) %MON surfExpan_salt_mean          =  -2.6947172992002E-05
(PID.TID 0000.0001) // =======================================================
(PID.TID 0000.0001) // End MONITOR dynamic field statistics
(PID.TID 0000.0001) // =======================================================
(PID.TID 0000.0001) // =======================================================
(PID.TID 0000.0001) // Begin OBCS MONITOR field statistics
(PID.TID 0000.0001) // =======================================================
(PID.TID 0000.0001) %MON obc_time_tsnumber            =                     7
(PID.TID 0000.0001) %MON obc_time_secondsf            =   1.2600000000000E+04
(PID.TID 0000.0001) %MON obc_N_vVel_max               =   7.0572746923359E-04
(PID.TID 0000.0001) %MON obc_N_vVel_min               =   7.0572746923359E-04
(PID.TID 0000.0001) %MON obc_N_vVel_mean              =   7.0572746923358E-04
(PID.TID 0000.0001) %MON obc_N_vVel_sd                =  -2.5410988417629E-21
(PID.TID 0000.0001) %MON obc_N_vVel_Int               =   3.5332724419535E+05
(PID.TID 0000.0001) %MON obc_N_theta_max              =  -1.9000000000000E+00
(PID.TID 0000.0001) %MON obc_N_theta_min              =  -1.9000000000000E+00
(PID.TID 0000.0001) %MON obc_N_theta_mean             =  -1.9000000000000E+00
(PID.TID 0000.0001) %MON obc_N_theta_sd               =   1.1733186057228E-07
(PID.TID 0000.0001) // =======================================================
(PID.TID 0000.0001) // End OBCS MONITOR field statistics
(PID.TID 0000.0001) // =======================================================
(PID.TID 0000.0001) OBCS_balance (it=        8 ) correct for netFreshWaterFlux:  0.00000000E+00
(PID.TID 0000.0001) OBCS_balance (it=        8 ) correct for shelfIceNetMassFlux:  3.63869528E+08
(PID.TID 0000.0001) OBCS_balance (it=        8 ) correct for inFlow:  0.00000000E+00  0.00000000E+00
(PID.TID 0000.0001) OBCS_balance correction to OBEu,OBWu:  7.05615899E-04 -7.05615899E-04
(PID.TID 0000.0001) OBCS_balance correction to OBNv,OBSv:  7.05615899E-04 -7.05615899E-04
 cg2d: Sum(rhs),rhsMax =   1.75622654930924E+01  7.73875981901544E-02
(PID.TID 0000.0001)      cg2d_init_res =   1.10586437943000E+00
(PID.TID 0000.0001)      cg2d_iters(min,last) =      -1     210
(PID.TID 0000.0001)      cg2d_last_res =   9.26908984931015E-14
(PID.TID 0000.0001) // =======================================================
(PID.TID 0000.0001) // Begin MONITOR dynamic field statistics
(PID.TID 0000.0001) // =======================================================
(PID.TID 0000.0001) %MON time_tsnumber                =                     8
(PID.TID 0000.0001) %MON time_secondsf                =   1.4400000000000E+04
(PID.TID 0000.0001) %MON dynstat_eta_max              =   3.9465611538251E-02
(PID.TID 0000.0001) %MON dynstat_eta_min              =  -3.4792379542587E-02
(PID.TID 0000.0001) %MON dynstat_eta_mean             =  -1.1052646105387E-02
(PID.TID 0000.0001) %MON dynstat_eta_sd               =   1.0732738508545E-02
(PID.TID 0000.0001) %MON dynstat_eta_del2             =   3.5473618135821E-05
(PID.TID 0000.0001) %MON dynstat_uvel_max             =   7.8364115671538E-04
(PID.TID 0000.0001) %MON dynstat_uvel_min             =  -7.2187007601749E-04
(PID.TID 0000.0001) %MON dynstat_uvel_mean            =  -7.3917364318694E-05
(PID.TID 0000.0001) %MON dynstat_uvel_sd              =   1.3243113552294E-04
(PID.TID 0000.0001) %MON dynstat_uvel_del2            =   1.7849527470203E-07
(PID.TID 0000.0001) %MON dynstat_vvel_max             =   3.2658310592713E-03
(PID.TID 0000.0001) %MON dynstat_vvel_min             =   9.0150324728672E-05
(PID.TID 0000.0001) %MON dynstat_vvel_mean            =   1.3715701418698E-03
(PID.TID 0000.0001) %MON dynstat_vvel_sd              =   6.1134582665568E-04
(PID.TID 0000.0001) %MON dynstat_vvel_del2            =   2.0481033109301E-07
(PID.TID 0000.0001) %MON dynstat_wvel_max             =   2.8907721167380E-05
(PID.TID 0000.0001) %MON dynstat_wvel_min             =  -1.3364792944102E-06
(PID.TID 0000.0001) %MON dynstat_wvel_mean            =   4.1727354229886E-07
(PID.TID 0000.0001) %MON dynstat_wvel_sd              =   1.7726284534948E-06
(PID.TID 0000.0001) %MON dynstat_wvel_del2            =   1.1828558443654E-08
(PID.TID 0000.0001) %MON dynstat_theta_max            =  -1.8999999999340E+00
(PID.TID 0000.0001) %MON dynstat_theta_min            =  -1.9001368960711E+00
(PID.TID 0000.0001) %MON dynstat_theta_mean           =  -1.9000011358339E+00
(PID.TID 0000.0001) %MON dynstat_theta_sd             =   9.0009035855445E-06
(PID.TID 0000.0001) %MON dynstat_theta_del2           =   1.0686814511781E-08
(PID.TID 0000.0001) %MON dynstat_salt_max             =   3.5273713402151E+01
(PID.TID 0000.0001) %MON dynstat_salt_min             =   3.4399985539803E+01
(PID.TID 0000.0001) %MON dynstat_salt_mean            =   3.4758301676324E+01
(PID.TID 0000.0001) %MON dynstat_salt_sd              =   2.9908389999345E-01
(PID.TID 0000.0001) %MON dynstat_salt_del2            =   7.2023789467187E-08
(PID.TID 0000.0001) %MON trAdv_CFL_u_max              =   4.1001950224341E-04
(PID.TID 0000.0001) %MON trAdv_CFL_v_max              =   4.7357327736862E-04
(PID.TID 0000.0001) %MON trAdv_CFL_w_max              =   1.4809174167903E-03
(PID.TID 0000.0001) %MON advcfl_uvel_max              =   2.2106704094861E-04
(PID.TID 0000.0001) %MON advcfl_vvel_max              =   5.2874883098615E-04
(PID.TID 0000.0001) %MON advcfl_wvel_max              =   1.7344632700428E-03
(PID.TID 0000.0001) %MON advcfl_W_hf_max              =   1.7344828435060E-03
(PID.TID 0000.0001) %MON pe_b_mean                    =   2.9351875165991E-05
(PID.TID 0000.0001) %MON ke_max                       =   5.3270619762483E-06
(PID.TID 0000.0001) %MON ke_mean                      =   1.1401774946189E-06
(PID.TID 0000.0001) %MON ke_vol                       =   3.4145341585199E+14
(PID.TID 0000.0001) %MON vort_r_min                   =  -4.6738221140773E-07
(PID.TID 0000.0001) %MON vort_r_max                   =   3.0785085374765E-07
(PID.TID 0000.0001) %MON vort_a_mean                  =  -1.3992981969631E-04
(PID.TID 0000.0001) %MON vort_a_sd                    =   1.7366498257183E-06
(PID.TID 0000.0001) %MON vort_p_mean                  =  -1.4746851965137E-04
(PID.TID 0000.0001) %MON vort_p_sd                    =   7.7987036386617E-05
(PID.TID 0000.0001) %MON surfExpan_theta_mean         =   1.4582147223658E-06
(PID.TID 0000.0001) %MON surfExpan_salt_mean          =  -2.7005190192087E-05
(PID.TID 0000.0001) // =======================================================
(PID.TID 0000.0001) // End MONITOR dynamic field statistics
(PID.TID 0000.0001) // =======================================================
(PID.TID 0000.0001) // =======================================================
(PID.TID 0000.0001) // Begin OBCS MONITOR field statistics
(PID.TID 0000.0001) // =======================================================
(PID.TID 0000.0001) %MON obc_time_tsnumber            =                     8
(PID.TID 0000.0001) %MON obc_time_secondsf            =   1.4400000000000E+04
(PID.TID 0000.0001) %MON obc_N_vVel_max               =   7.0561589943771E-04
(PID.TID 0000.0001) %MON obc_N_vVel_min               =   7.0561589943771E-04
(PID.TID 0000.0001) %MON obc_N_vVel_mean              =   7.0561589943770E-04
(PID.TID 0000.0001) %MON obc_N_vVel_sd                =   6.4259517722005E-11
(PID.TID 0000.0001) %MON obc_N_vVel_Int               =   3.5327138602030E+05
(PID.TID 0000.0001) %MON obc_N_theta_max              =  -1.9000000000000E+00
(PID.TID 0000.0001) %MON obc_N_theta_min              =  -1.9000000000000E+00
(PID.TID 0000.0001) %MON obc_N_theta_mean             =  -1.9000000000000E+00
(PID.TID 0000.0001) %MON obc_N_theta_sd               =   1.1733186057228E-07
(PID.TID 0000.0001) // =======================================================
(PID.TID 0000.0001) // End OBCS MONITOR field statistics
(PID.TID 0000.0001) // =======================================================
(PID.TID 0000.0001) OBCS_balance (it=        9 ) correct for netFreshWaterFlux:  0.00000000E+00
(PID.TID 0000.0001) OBCS_balance (it=        9 ) correct for shelfIceNetMassFlux:  3.63824741E+08
(PID.TID 0000.0001) OBCS_balance (it=        9 ) correct for inFlow:  0.00000000E+00  0.00000000E+00
(PID.TID 0000.0001) OBCS_balance correction to OBEu,OBWu:  7.05529048E-04 -7.05529048E-04
(PID.TID 0000.0001) OBCS_balance correction to OBNv,OBSv:  7.05529048E-04 -7.05529048E-04
 cg2d: Sum(rhs),rhsMax =   1.76510370660791E+01  8.66211462831617E-02
(PID.TID 0000.0001)      cg2d_init_res =   9.87707810742503E-01
(PID.TID 0000.0001)      cg2d_iters(min,last) =      -1     210
(PID.TID 0000.0001)      cg2d_last_res =   7.92403015936482E-14
(PID.TID 0000.0001) // =======================================================
(PID.TID 0000.0001) // Begin MONITOR dynamic field statistics
(PID.TID 0000.0001) // =======================================================
(PID.TID 0000.0001) %MON time_tsnumber                =                     9
(PID.TID 0000.0001) %MON time_secondsf                =   1.6200000000000E+04
(PID.TID 0000.0001) %MON dynstat_eta_max              =   2.6367796345392E-02
(PID.TID 0000.0001) %MON dynstat_eta_min              =  -4.1347751353457E-02
(PID.TID 0000.0001) %MON dynstat_eta_mean             =  -1.2433932684401E-02
(PID.TID 0000.0001) %MON dynstat_eta_sd               =   1.0958083719842E-02
(PID.TID 0000.0001) %MON dynstat_eta_del2             =   3.9588970114782E-05
(PID.TID 0000.0001) %MON dynstat_uvel_max             =   1.1645191714964E-03
(PID.TID 0000.0001) %MON dynstat_uvel_min             =  -3.6134253055097E-04
(PID.TID 0000.0001) %MON dynstat_uvel_mean            =  -5.3240049105644E-05
(PID.TID 0000.0001) %MON dynstat_uvel_sd              =   1.4987008317112E-04
(PID.TID 0000.0001) %MON dynstat_uvel_del2            =   1.9119322529982E-07
(PID.TID 0000.0001) %MON dynstat_vvel_max             =   3.4311360403651E-03
(PID.TID 0000.0001) %MON dynstat_vvel_min             =   2.3234228169332E-04
(PID.TID 0000.0001) %MON dynstat_vvel_mean            =   1.5208466872620E-03
(PID.TID 0000.0001) %MON dynstat_vvel_sd              =   6.2897483614494E-04
(PID.TID 0000.0001) %MON dynstat_vvel_del2            =   2.3005960428318E-07
(PID.TID 0000.0001) %MON dynstat_wvel_max             =   3.5351896268881E-05
(PID.TID 0000.0001) %MON dynstat_wvel_min             =  -1.2528127967464E-06
(PID.TID 0000.0001) %MON dynstat_wvel_mean            =   4.5276902776335E-07
(PID.TID 0000.0001) %MON dynstat_wvel_sd              =   1.9635551625992E-06
(PID.TID 0000.0001) %MON dynstat_wvel_del2            =   1.2948053164576E-08
(PID.TID 0000.0001) %MON dynstat_theta_max            =  -1.8999999998620E+00
(PID.TID 0000.0001) %MON dynstat_theta_min            =  -1.9001482458109E+00
(PID.TID 0000.0001) %MON dynstat_theta_mean           =  -1.9000013240220E+00
(PID.TID 0000.0001) %MON dynstat_theta_sd             =   1.0347178047262E-05
(PID.TID 0000.0001) %MON dynstat_theta_del2           =   1.2306684304236E-08
(PID.TID 0000.0001) %MON dynstat_salt_max             =   3.5273710539182E+01
(PID.TID 0000.0001) %MON dynstat_salt_min             =   3.4399982267433E+01
(PID.TID 0000.0001) %MON dynstat_salt_mean            =   3.4758301794780E+01
(PID.TID 0000.0001) %MON dynstat_salt_sd              =   2.9908344358789E-01
(PID.TID 0000.0001) %MON dynstat_salt_del2            =   9.3491669316503E-08
(PID.TID 0000.0001) %MON trAdv_CFL_u_max              =   2.2106714813332E-04
(PID.TID 0000.0001) %MON trAdv_CFL_v_max              =   5.3089102480448E-04
(PID.TID 0000.0001) %MON trAdv_CFL_w_max              =   1.7344828435060E-03
(PID.TID 0000.0001) %MON advcfl_uvel_max              =   2.7884594149732E-04
(PID.TID 0000.0001) %MON advcfl_vvel_max              =   5.5551225319727E-04
(PID.TID 0000.0001) %MON advcfl_wvel_max              =   2.1211137761329E-03
(PID.TID 0000.0001) %MON advcfl_W_hf_max              =   2.1211186125672E-03
(PID.TID 0000.0001) %MON pe_b_mean                    =   4.4159492843823E-05
(PID.TID 0000.0001) %MON ke_max                       =   5.8719139250201E-06
(PID.TID 0000.0001) %MON ke_mean                      =   1.3688166593462E-06
(PID.TID 0000.0001) %MON ke_vol                       =   3.4145277996350E+14
(PID.TID 0000.0001) %MON vort_r_min                   =  -4.9357113706071E-07
(PID.TID 0000.0001) %MON vort_r_max                   =   2.6801395926965E-07
(PID.TID 0000.0001) %MON vort_a_mean                  =  -1.3992981969631E-04
(PID.TID 0000.0001) %MON vort_a_sd                    =   1.7367956600096E-06
(PID.TID 0000.0001) %MON vort_p_mean                  =  -1.4746878875608E-04
(PID.TID 0000.0001) %MON vort_p_sd                    =   7.7996279505259E-05
(PID.TID 0000.0001) %MON surfExpan_theta_mean         =   1.4580372960103E-06
(PID.TID 0000.0001) %MON surfExpan_salt_mean          =  -2.7029829236995E-05
(PID.TID 0000.0001) // =======================================================
(PID.TID 0000.0001) // End MONITOR dynamic field statistics
(PID.TID 0000.0001) // =======================================================
(PID.TID 0000.0001) // =======================================================
(PID.TID 0000.0001) // Begin OBCS MONITOR field statistics
(PID.TID 0000.0001) // =======================================================
(PID.TID 0000.0001) %MON obc_time_tsnumber            =                     9
(PID.TID 0000.0001) %MON obc_time_secondsf            =   1.6200000000000E+04
(PID.TID 0000.0001) %MON obc_N_vVel_max               =   7.0552904833870E-04
(PID.TID 0000.0001) %MON obc_N_vVel_min               =   7.0552904833870E-04
(PID.TID 0000.0001) %MON obc_N_vVel_mean              =   7.0552904833869E-04
(PID.TID 0000.0001) %MON obc_N_vVel_sd                =  -1.0587911840679E-22
(PID.TID 0000.0001) %MON obc_N_vVel_Int               =   3.5322790342850E+05
(PID.TID 0000.0001) %MON obc_N_theta_max              =  -1.9000000000000E+00
(PID.TID 0000.0001) %MON obc_N_theta_min              =  -1.9000000000000E+00
(PID.TID 0000.0001) %MON obc_N_theta_mean             =  -1.9000000000000E+00
(PID.TID 0000.0001) %MON obc_N_theta_sd               =   1.1733186057228E-07
(PID.TID 0000.0001) // =======================================================
(PID.TID 0000.0001) // End OBCS MONITOR field statistics
(PID.TID 0000.0001) // =======================================================
(PID.TID 0000.0001) OBCS_balance (it=       10 ) correct for netFreshWaterFlux:  0.00000000E+00
(PID.TID 0000.0001) OBCS_balance (it=       10 ) correct for shelfIceNetMassFlux:  3.63805024E+08
(PID.TID 0000.0001) OBCS_balance (it=       10 ) correct for inFlow:  0.00000000E+00  0.00000000E+00
(PID.TID 0000.0001) OBCS_balance correction to OBEu,OBWu:  7.05490814E-04 -7.05490814E-04
(PID.TID 0000.0001) OBCS_balance correction to OBNv,OBSv:  7.05490814E-04 -7.05490814E-04
 cg2d: Sum(rhs),rhsMax =   1.77831483175741E+01  9.55283815512101E-02
(PID.TID 0000.0001)      cg2d_init_res =   8.94943252173135E-01
(PID.TID 0000.0001)      cg2d_iters(min,last) =      -1     209
(PID.TID 0000.0001)      cg2d_last_res =   8.49098098020161E-14
(PID.TID 0000.0001) // =======================================================
(PID.TID 0000.0001) // Begin MONITOR dynamic field statistics
(PID.TID 0000.0001) // =======================================================
(PID.TID 0000.0001) %MON time_tsnumber                =                    10
(PID.TID 0000.0001) %MON time_secondsf                =   1.8000000000000E+04
(PID.TID 0000.0001) %MON dynstat_eta_max              =   1.3560898268930E-02
(PID.TID 0000.0001) %MON dynstat_eta_min              =  -4.7835699878479E-02
(PID.TID 0000.0001) %MON dynstat_eta_mean             =  -1.3815144409091E-02
(PID.TID 0000.0001) %MON dynstat_eta_sd               =   1.3063187404642E-02
(PID.TID 0000.0001) %MON dynstat_eta_del2             =   4.3705528918767E-05
(PID.TID 0000.0001) %MON dynstat_uvel_max             =   1.5330126094288E-03
(PID.TID 0000.0001) %MON dynstat_uvel_min             =  -3.3109311320337E-04
(PID.TID 0000.0001) %MON dynstat_uvel_mean            =  -2.8096798897792E-05
(PID.TID 0000.0001) %MON dynstat_uvel_sd              =   1.6774646782802E-04
(PID.TID 0000.0001) %MON dynstat_uvel_del2            =   2.2798149581484E-07
(PID.TID 0000.0001) %MON dynstat_vvel_max             =   3.4490014059721E-03
(PID.TID 0000.0001) %MON dynstat_vvel_min             =   2.1918618931632E-04
(PID.TID 0000.0001) %MON dynstat_vvel_mean            =   1.5518254606185E-03
(PID.TID 0000.0001) %MON dynstat_vvel_sd              =   6.0605790677379E-04
(PID.TID 0000.0001) %MON dynstat_vvel_del2            =   2.4529065813404E-07
(PID.TID 0000.0001) %MON dynstat_wvel_max             =   4.3686022142272E-05
(PID.TID 0000.0001) %MON dynstat_wvel_min             =  -1.5093230932320E-06
(PID.TID 0000.0001) %MON dynstat_wvel_mean            =   4.5154598048451E-07
(PID.TID 0000.0001) %MON dynstat_wvel_sd              =   1.9749856658008E-06
(PID.TID 0000.0001) %MON dynstat_wvel_del2            =   1.2780187473713E-08
(PID.TID 0000.0001) %MON dynstat_theta_max            =  -1.8999999997593E+00
(PID.TID 0000.0001) %MON dynstat_theta_min            =  -1.9001693842699E+00
(PID.TID 0000.0001) %MON dynstat_theta_mean           =  -1.9000015144403E+00
(PID.TID 0000.0001) %MON dynstat_theta_sd             =   1.1713413717658E-05
(PID.TID 0000.0001) %MON dynstat_theta_del2           =   1.3954376639967E-08
(PID.TID 0000.0001) %MON dynstat_salt_max             =   3.5273707501918E+01
(PID.TID 0000.0001) %MON dynstat_salt_min             =   3.4399978992324E+01
(PID.TID 0000.0001) %MON dynstat_salt_mean            =   3.4758301862443E+01
(PID.TID 0000.0001) %MON dynstat_salt_sd              =   2.9908298680175E-01
(PID.TID 0000.0001) %MON dynstat_salt_del2            =   1.1632848508974E-07
(PID.TID 0000.0001) %MON trAdv_CFL_u_max              =   2.7884588588950E-04
(PID.TID 0000.0001) %MON trAdv_CFL_v_max              =   5.5776304433267E-04
(PID.TID 0000.0001) %MON trAdv_CFL_w_max              =   2.1211186125672E-03
(PID.TID 0000.0001) %MON advcfl_uvel_max              =   3.7984468629523E-04
(PID.TID 0000.0001) %MON advcfl_vvel_max              =   5.5840471487347E-04
(PID.TID 0000.0001) %MON advcfl_wvel_max              =   2.6211613285363E-03
(PID.TID 0000.0001) %MON advcfl_W_hf_max              =   2.6211624396797E-03
(PID.TID 0000.0001) %MON pe_b_mean                    =   5.9247332153922E-05
(PID.TID 0000.0001) %MON ke_max                       =   5.9099350429516E-06
(PID.TID 0000.0001) %MON ke_mean                      =   1.4041412901631E-06
(PID.TID 0000.0001) %MON ke_vol                       =   3.4145214415327E+14
(PID.TID 0000.0001) %MON vort_r_min                   =  -5.0117780592889E-07
(PID.TID 0000.0001) %MON vort_r_max                   =   2.8794939382434E-07
(PID.TID 0000.0001) %MON vort_a_mean                  =  -1.3992981969631E-04
(PID.TID 0000.0001) %MON vort_a_sd                    =   1.7369072797941E-06
(PID.TID 0000.0001) %MON vort_p_mean                  =  -1.4746905863377E-04
(PID.TID 0000.0001) %MON vort_p_sd                    =   7.8004339077047E-05
(PID.TID 0000.0001) %MON surfExpan_theta_mean         =   1.4579595240841E-06
(PID.TID 0000.0001) %MON surfExpan_salt_mean          =  -2.7025177353799E-05
(PID.TID 0000.0001) // =======================================================
(PID.TID 0000.0001) // End MONITOR dynamic field statistics
(PID.TID 0000.0001) // =======================================================
(PID.TID 0000.0001) // =======================================================
(PID.TID 0000.0001) // Begin OBCS MONITOR field statistics
(PID.TID 0000.0001) // =======================================================
(PID.TID 0000.0001) %MON obc_time_tsnumber            =                    10
(PID.TID 0000.0001) %MON obc_time_secondsf            =   1.8000000000000E+04
(PID.TID 0000.0001) %MON obc_N_vVel_max               =   7.0549081449134E-04
(PID.TID 0000.0001) %MON obc_N_vVel_min               =   7.0549081449134E-04
(PID.TID 0000.0001) %MON obc_N_vVel_mean              =   7.0549081449132E-04
(PID.TID 0000.0001) %MON obc_N_vVel_sd                =  -2.1175823681358E-21
(PID.TID 0000.0001) %MON obc_N_vVel_Int               =   3.5320876139348E+05
(PID.TID 0000.0001) %MON obc_N_theta_max              =  -1.9000000000000E+00
(PID.TID 0000.0001) %MON obc_N_theta_min              =  -1.9000000000000E+00
(PID.TID 0000.0001) %MON obc_N_theta_mean             =  -1.9000000000000E+00
(PID.TID 0000.0001) %MON obc_N_theta_sd               =   1.1733186057228E-07
(PID.TID 0000.0001) // =======================================================
(PID.TID 0000.0001) // End OBCS MONITOR field statistics
(PID.TID 0000.0001) // =======================================================
(PID.TID 0000.0001) OBCS_balance (it=       11 ) correct for netFreshWaterFlux:  0.00000000E+00
(PID.TID 0000.0001) OBCS_balance (it=       11 ) correct for shelfIceNetMassFlux:  3.63807598E+08
(PID.TID 0000.0001) OBCS_balance (it=       11 ) correct for inFlow:  0.00000000E+00  0.00000000E+00
(PID.TID 0000.0001) OBCS_balance correction to OBEu,OBWu:  7.05495805E-04 -7.05495805E-04
(PID.TID 0000.0001) OBCS_balance correction to OBNv,OBSv:  7.05495805E-04 -7.05495805E-04
 cg2d: Sum(rhs),rhsMax =   1.79337985098079E+01  1.04196492009387E-01
(PID.TID 0000.0001)      cg2d_init_res =   8.19603298190342E-01
(PID.TID 0000.0001)      cg2d_iters(min,last) =      -1     208
(PID.TID 0000.0001)      cg2d_last_res =   8.26451633411094E-14
(PID.TID 0000.0001) // =======================================================
(PID.TID 0000.0001) // Begin MONITOR dynamic field statistics
(PID.TID 0000.0001) // =======================================================
(PID.TID 0000.0001) %MON time_tsnumber                =                    11
(PID.TID 0000.0001) %MON time_secondsf                =   1.9800000000000E+04
(PID.TID 0000.0001) %MON dynstat_eta_max              =   1.8786495958675E-03
(PID.TID 0000.0001) %MON dynstat_eta_min              =  -5.4017301472911E-02
(PID.TID 0000.0001) %MON dynstat_eta_mean             =  -1.5196365905164E-02
(PID.TID 0000.0001) %MON dynstat_eta_sd               =   1.6011857336355E-02
(PID.TID 0000.0001) %MON dynstat_eta_del2             =   4.7823040248551E-05
(PID.TID 0000.0001) %MON dynstat_uvel_max             =   1.8953602198736E-03
(PID.TID 0000.0001) %MON dynstat_uvel_min             =  -3.8362071382985E-04
(PID.TID 0000.0001) %MON dynstat_uvel_mean            =  -2.0953442646625E-06
(PID.TID 0000.0001) %MON dynstat_uvel_sd              =   1.8831847513752E-04
(PID.TID 0000.0001) %MON dynstat_uvel_del2            =   2.8099526903697E-07
(PID.TID 0000.0001) %MON dynstat_vvel_max             =   3.4286612995263E-03
(PID.TID 0000.0001) %MON dynstat_vvel_min             =   7.0537149096141E-05
(PID.TID 0000.0001) %MON dynstat_vvel_mean            =   1.4747568759292E-03
(PID.TID 0000.0001) %MON dynstat_vvel_sd              =   5.5361599304441E-04
(PID.TID 0000.0001) %MON dynstat_vvel_del2            =   2.5779029353563E-07
(PID.TID 0000.0001) %MON dynstat_wvel_max             =   4.8856490885839E-05
(PID.TID 0000.0001) %MON dynstat_wvel_min             =  -2.5685423355334E-06
(PID.TID 0000.0001) %MON dynstat_wvel_mean            =   4.2025893267842E-07
(PID.TID 0000.0001) %MON dynstat_wvel_sd              =   1.8395440426967E-06
(PID.TID 0000.0001) %MON dynstat_wvel_del2            =   1.1628961593420E-08
(PID.TID 0000.0001) %MON dynstat_theta_max            =  -1.8999999996302E+00
(PID.TID 0000.0001) %MON dynstat_theta_min            =  -1.9001914852493E+00
(PID.TID 0000.0001) %MON dynstat_theta_mean           =  -1.9000016972466E+00
(PID.TID 0000.0001) %MON dynstat_theta_sd             =   1.3034574239422E-05
(PID.TID 0000.0001) %MON dynstat_theta_del2           =   1.5519049743510E-08
(PID.TID 0000.0001) %MON dynstat_salt_max             =   3.5273704480116E+01
(PID.TID 0000.0001) %MON dynstat_salt_min             =   3.4399975874442E+01
(PID.TID 0000.0001) %MON dynstat_salt_mean            =   3.4758301887607E+01
(PID.TID 0000.0001) %MON dynstat_salt_sd              =   2.9908252889074E-01
(PID.TID 0000.0001) %MON dynstat_salt_del2            =   1.3705964038220E-07
(PID.TID 0000.0001) %MON trAdv_CFL_u_max              =   3.7984460462366E-04
(PID.TID 0000.0001) %MON trAdv_CFL_v_max              =   5.6070621106089E-04
(PID.TID 0000.0001) %MON trAdv_CFL_w_max              =   2.6211624396797E-03
(PID.TID 0000.0001) %MON advcfl_uvel_max              =   4.7074254727933E-04
(PID.TID 0000.0001) %MON advcfl_vvel_max              =   5.5511158448486E-04
(PID.TID 0000.0001) %MON advcfl_wvel_max              =   2.9313894531503E-03
(PID.TID 0000.0001) %MON advcfl_W_hf_max              =   2.9313891482321E-03
(PID.TID 0000.0001) %MON pe_b_mean                    =   7.3397844666523E-05
(PID.TID 0000.0001) %MON ke_max                       =   5.5484680088037E-06
(PID.TID 0000.0001) %MON ke_mean                      =   1.2598575172161E-06
(PID.TID 0000.0001) %MON ke_vol                       =   3.4145150837750E+14
(PID.TID 0000.0001) %MON vort_r_min                   =  -4.9209130444676E-07
(PID.TID 0000.0001) %MON vort_r_max                   =   2.9758892203635E-07
(PID.TID 0000.0001) %MON vort_a_mean                  =  -1.3992981969631E-04
(PID.TID 0000.0001) %MON vort_a_sd                    =   1.7369734216795E-06
(PID.TID 0000.0001) %MON vort_p_mean                  =  -1.4746932908032E-04
(PID.TID 0000.0001) %MON vort_p_sd                    =   7.8010868817355E-05
(PID.TID 0000.0001) %MON surfExpan_theta_mean         =   1.4579701165775E-06
(PID.TID 0000.0001) %MON surfExpan_salt_mean          =  -2.6997144942100E-05
(PID.TID 0000.0001) // =======================================================
(PID.TID 0000.0001) // End MONITOR dynamic field statistics
(PID.TID 0000.0001) // =======================================================
(PID.TID 0000.0001) // =======================================================
(PID.TID 0000.0001) // Begin OBCS MONITOR field statistics
(PID.TID 0000.0001) // =======================================================
(PID.TID 0000.0001) %MON obc_time_tsnumber            =                    11
(PID.TID 0000.0001) %MON obc_time_secondsf            =   1.9800000000000E+04
(PID.TID 0000.0001) %MON obc_N_vVel_max               =   7.0549580548654E-04
(PID.TID 0000.0001) %MON obc_N_vVel_min               =   7.0549580548654E-04
(PID.TID 0000.0001) %MON obc_N_vVel_mean              =   7.0549580548654E-04
(PID.TID 0000.0001) %MON obc_N_vVel_sd                =   6.8254532522746E-11
(PID.TID 0000.0001) %MON obc_N_vVel_Int               =   3.5321126016909E+05
(PID.TID 0000.0001) %MON obc_N_theta_max              =  -1.9000000000000E+00
(PID.TID 0000.0001) %MON obc_N_theta_min              =  -1.9000000000000E+00
(PID.TID 0000.0001) %MON obc_N_theta_mean             =  -1.9000000000000E+00
(PID.TID 0000.0001) %MON obc_N_theta_sd               =   1.1733186057228E-07
(PID.TID 0000.0001) // =======================================================
(PID.TID 0000.0001) // End OBCS MONITOR field statistics
(PID.TID 0000.0001) // =======================================================
(PID.TID 0000.0001) OBCS_balance (it=       12 ) correct for netFreshWaterFlux:  0.00000000E+00
(PID.TID 0000.0001) OBCS_balance (it=       12 ) correct for shelfIceNetMassFlux:  3.63825743E+08
(PID.TID 0000.0001) OBCS_balance (it=       12 ) correct for inFlow:  0.00000000E+00  0.00000000E+00
(PID.TID 0000.0001) OBCS_balance correction to OBEu,OBWu:  7.05530992E-04 -7.05530992E-04
(PID.TID 0000.0001) OBCS_balance correction to OBNv,OBSv:  7.05530992E-04 -7.05530992E-04
 cg2d: Sum(rhs),rhsMax =   1.80848302935001E+01  1.12718275283433E-01
(PID.TID 0000.0001)      cg2d_init_res =   7.56773064729920E-01
(PID.TID 0000.0001)      cg2d_iters(min,last) =      -1     208
(PID.TID 0000.0001)      cg2d_last_res =   9.87468409337718E-14
(PID.TID 0000.0001) // =======================================================
(PID.TID 0000.0001) // Begin MONITOR dynamic field statistics
(PID.TID 0000.0001) // =======================================================
(PID.TID 0000.0001) %MON time_tsnumber                =                    12
(PID.TID 0000.0001) %MON time_secondsf                =   2.1600000000000E+04
(PID.TID 0000.0001) %MON dynstat_eta_max              =   1.0730295024585E-03
(PID.TID 0000.0001) %MON dynstat_eta_min              =  -5.9300613958926E-02
(PID.TID 0000.0001) %MON dynstat_eta_mean             =  -1.6577656289206E-02
(PID.TID 0000.0001) %MON dynstat_eta_sd               =   1.8911711620334E-02
(PID.TID 0000.0001) %MON dynstat_eta_del2             =   5.1941303229482E-05
(PID.TID 0000.0001) %MON dynstat_uvel_max             =   2.1978327116470E-03
(PID.TID 0000.0001) %MON dynstat_uvel_min             =  -4.5740506227166E-04
(PID.TID 0000.0001) %MON dynstat_uvel_mean            =   2.0143451698640E-05
(PID.TID 0000.0001) %MON dynstat_uvel_sd              =   2.1207376287156E-04
(PID.TID 0000.0001) %MON dynstat_uvel_del2            =   3.3965324324813E-07
(PID.TID 0000.0001) %MON dynstat_vvel_max             =   3.4120284608410E-03
(PID.TID 0000.0001) %MON dynstat_vvel_min             =  -8.4273090154314E-05
(PID.TID 0000.0001) %MON dynstat_vvel_mean            =   1.3197706558783E-03
(PID.TID 0000.0001) %MON dynstat_vvel_sd              =   4.8464905137139E-04
(PID.TID 0000.0001) %MON dynstat_vvel_del2            =   2.7620791872965E-07
(PID.TID 0000.0001) %MON dynstat_wvel_max             =   5.1208203584603E-05
(PID.TID 0000.0001) %MON dynstat_wvel_min             =  -7.0342350765910E-06
(PID.TID 0000.0001) %MON dynstat_wvel_mean            =   3.6833197585395E-07
(PID.TID 0000.0001) %MON dynstat_wvel_sd              =   1.6206537035202E-06
(PID.TID 0000.0001) %MON dynstat_wvel_del2            =   1.0066951407053E-08
(PID.TID 0000.0001) %MON dynstat_theta_max            =  -1.8999999993698E+00
(PID.TID 0000.0001) %MON dynstat_theta_min            =  -1.9002134356674E+00
(PID.TID 0000.0001) %MON dynstat_theta_mean           =  -1.9000018669340E+00
(PID.TID 0000.0001) %MON dynstat_theta_sd             =   1.4279095330914E-05
(PID.TID 0000.0001) %MON dynstat_theta_del2           =   1.6967815913188E-08
(PID.TID 0000.0001) %MON dynstat_salt_max             =   3.5273702678331E+01
(PID.TID 0000.0001) %MON dynstat_salt_min             =   3.4399973047189E+01
(PID.TID 0000.0001) %MON dynstat_salt_mean            =   3.4758301881216E+01
(PID.TID 0000.0001) %MON dynstat_salt_sd              =   2.9908206872704E-01
(PID.TID 0000.0001) %MON dynstat_salt_del2            =   1.5328061502827E-07
(PID.TID 0000.0001) %MON trAdv_CFL_u_max              =   4.7074244547375E-04
(PID.TID 0000.0001) %MON trAdv_CFL_v_max              =   5.5728758449561E-04
(PID.TID 0000.0001) %MON trAdv_CFL_w_max              =   2.9313891482321E-03
(PID.TID 0000.0001) %MON advcfl_uvel_max              =   5.4636872613526E-04
(PID.TID 0000.0001) %MON advcfl_vvel_max              =   5.5241867298662E-04
(PID.TID 0000.0001) %MON advcfl_wvel_max              =   3.0724922150762E-03
(PID.TID 0000.0001) %MON advcfl_W_hf_max              =   3.0724932363962E-03
(PID.TID 0000.0001) %MON pe_b_mean                    =   8.5705246524952E-05
(PID.TID 0000.0001) %MON ke_max                       =   5.2494515119725E-06
(PID.TID 0000.0001) %MON ke_mean                      =   1.0115771111254E-06
(PID.TID 0000.0001) %MON ke_vol                       =   3.4145087259723E+14
(PID.TID 0000.0001) %MON vort_r_min                   =  -4.7316432726470E-07
(PID.TID 0000.0001) %MON vort_r_max                   =   2.9684770107615E-07
(PID.TID 0000.0001) %MON vort_a_mean                  =  -1.3992981969631E-04
(PID.TID 0000.0001) %MON vort_a_sd                    =   1.7369960506236E-06
(PID.TID 0000.0001) %MON vort_p_mean                  =  -1.4746959976838E-04
(PID.TID 0000.0001) %MON vort_p_sd                    =   7.8015801909034E-05
(PID.TID 0000.0001) %MON surfExpan_theta_mean         =   1.4580421928268E-06
(PID.TID 0000.0001) %MON surfExpan_salt_mean          =  -2.6953241731000E-05
(PID.TID 0000.0001) // =======================================================
(PID.TID 0000.0001) // End MONITOR dynamic field statistics
(PID.TID 0000.0001) // =======================================================
(PID.TID 0000.0001)  MDS_WRITE_FIELD: it,rec,kS,kL,kH=      12     1  30   1  30 file=U.0000000012
(PID.TID 0000.0001)  MDS_WRITE_FIELD: it,rec,kS,kL,kH=      12     1  30   1  30 file=V.0000000012
(PID.TID 0000.0001)  MDS_WRITE_FIELD: it,rec,kS,kL,kH=      12     1  30   1  30 file=T.0000000012
(PID.TID 0000.0001)  MDS_WRITE_FIELD: it,rec,kS,kL,kH=      12     1  30   1  30 file=S.0000000012
(PID.TID 0000.0001)  MDS_WRITE_FIELD: it,rec,kS,kL,kH=      12     1   1   1   1 file=Eta.0000000012
(PID.TID 0000.0001)  MDS_WRITE_FIELD: it,rec,kS,kL,kH=      12     1  30   1  30 file=W.0000000012
(PID.TID 0000.0001)  MDS_WRITE_FIELD: it,rec,kS,kL,kH=      12     1  30   1  30 file=PH.0000000012
(PID.TID 0000.0001)  MDS_WRITE_FIELD: it,rec,kS,kL,kH=      12     1   1   1   1 file=PHL.0000000012
(PID.TID 0000.0001) // =======================================================
(PID.TID 0000.0001) // Begin OBCS MONITOR field statistics
(PID.TID 0000.0001) // =======================================================
(PID.TID 0000.0001) %MON obc_time_tsnumber            =                    12
(PID.TID 0000.0001) %MON obc_time_secondsf            =   2.1600000000000E+04
(PID.TID 0000.0001) %MON obc_N_vVel_max               =   7.0553099185818E-04
(PID.TID 0000.0001) %MON obc_N_vVel_min               =   7.0553099185818E-04
(PID.TID 0000.0001) %MON obc_N_vVel_mean              =   7.0553099185817E-04
(PID.TID 0000.0001) %MON obc_N_vVel_sd                =   2.3008598219664E-11
(PID.TID 0000.0001) %MON obc_N_vVel_Int               =   3.5322887646470E+05
(PID.TID 0000.0001) %MON obc_N_theta_max              =  -1.9000000000000E+00
(PID.TID 0000.0001) %MON obc_N_theta_min              =  -1.9000000000000E+00
(PID.TID 0000.0001) %MON obc_N_theta_mean             =  -1.9000000000000E+00
(PID.TID 0000.0001) %MON obc_N_theta_sd               =   1.1733186057228E-07
(PID.TID 0000.0001) // =======================================================
(PID.TID 0000.0001) // End OBCS MONITOR field statistics
(PID.TID 0000.0001) // =======================================================
(PID.TID 0000.0001) DIAGSTATS_CLOSE_IO: close file: dynStDiag.0000000000.txt , unit=     9
(PID.TID 0000.0001)  MDS_WRITE_FIELD: it,rec,kS,kL,kH=      12     1  30   1  30 file=pickup_ggl90.ckptA
(PID.TID 0000.0001)  MDS_WRITE_FIELD: it,rec,kS,kL,kH=      12    -1   1   1   1 file=pickup_shelfice.ckptA
(PID.TID 0000.0001)  MDS_WRITE_FIELD: it,rec,kS,kL,kH=      12    -1  30   1  30 file=pickup.ckptA
(PID.TID 0000.0001)  MDS_WRITE_FIELD: it,rec,kS,kL,kH=      12    -2  30   1  30 file=pickup.ckptA
(PID.TID 0000.0001)  MDS_WRITE_FIELD: it,rec,kS,kL,kH=      12    -3  30   1  30 file=pickup.ckptA
(PID.TID 0000.0001)  MDS_WRITE_FIELD: it,rec,kS,kL,kH=      12    -4  30   1  30 file=pickup.ckptA
(PID.TID 0000.0001)  MDS_WRITE_FIELD: it,rec,kS,kL,kH=      12    -5  30   1  30 file=pickup.ckptA
(PID.TID 0000.0001)  MDS_WRITE_FIELD: it,rec,kS,kL,kH=      12    -6  30   1  30 file=pickup.ckptA
(PID.TID 0000.0001)  MDS_WRITE_FIELD: it,rec,kS,kL,kH=      12    -7  30   1  30 file=pickup.ckptA
(PID.TID 0000.0001)  MDS_WRITE_FIELD: it,rec,kS,kL,kH=      12    -8  30   1  30 file=pickup.ckptA
(PID.TID 0000.0001)  MDS_WRITE_FIELD: it,rec,kS,kL,kH=      12  -241   1   1   1 file=pickup.ckptA
(PID.TID 0000.0001)  MDS_WRITE_FIELD: it,rec,kS,kL,kH=      12  -242   1   1   1 file=pickup.ckptA
(PID.TID 0000.0001)  MDS_WRITE_FIELD: it,rec,kS,kL,kH=      12  -243   1   1   1 file=pickup.ckptA
(PID.TID 0000.0001) %CHECKPOINT        12 ckptA
(PID.TID 0000.0001)   Seconds in section "ALL                    [THE_MODEL_MAIN]":
(PID.TID 0000.0001)           User time:   20.873685845173895
(PID.TID 0000.0001)         System time:  0.26669100346043706
(PID.TID 0000.0001)     Wall clock time:   21.181776046752930
(PID.TID 0000.0001)          No. starts:           1
(PID.TID 0000.0001)           No. stops:           1
(PID.TID 0000.0001)   Seconds in section "INITIALISE_FIXED       [THE_MODEL_MAIN]":
(PID.TID 0000.0001)           User time:  0.20412700064480305
(PID.TID 0000.0001)         System time:   9.8087998107075691E-002
(PID.TID 0000.0001)     Wall clock time:  0.33739399909973145
(PID.TID 0000.0001)          No. starts:           1
(PID.TID 0000.0001)           No. stops:           1
(PID.TID 0000.0001)   Seconds in section "THE_MAIN_LOOP          [THE_MODEL_MAIN]":
(PID.TID 0000.0001)           User time:   20.669483214616776
(PID.TID 0000.0001)         System time:  0.16857000440359116
(PID.TID 0000.0001)     Wall clock time:   20.844292879104614
(PID.TID 0000.0001)          No. starts:           1
(PID.TID 0000.0001)           No. stops:           1
(PID.TID 0000.0001)   Seconds in section "INITIALISE_VARIA    [THE_MAIN_LOOP]":
(PID.TID 0000.0001)           User time:  0.43763701617717743
(PID.TID 0000.0001)         System time:   7.6712995767593384E-002
(PID.TID 0000.0001)     Wall clock time:  0.51443290710449219
(PID.TID 0000.0001)          No. starts:           1
(PID.TID 0000.0001)           No. stops:           1
(PID.TID 0000.0001)   Seconds in section "MAIN LOOP           [THE_MAIN_LOOP]":
(PID.TID 0000.0001)           User time:   20.231826484203339
(PID.TID 0000.0001)         System time:   9.1851010918617249E-002
(PID.TID 0000.0001)     Wall clock time:   20.329835891723633
(PID.TID 0000.0001)          No. starts:           1
(PID.TID 0000.0001)           No. stops:           1
(PID.TID 0000.0001)   Seconds in section "MAIN_DO_LOOP        [THE_MAIN_LOOP]":
(PID.TID 0000.0001)           User time:   20.231727719306946
(PID.TID 0000.0001)         System time:   9.1849997639656067E-002
(PID.TID 0000.0001)     Wall clock time:   20.329734802246094
(PID.TID 0000.0001)          No. starts:          12
(PID.TID 0000.0001)           No. stops:          12
(PID.TID 0000.0001)   Seconds in section "FORWARD_STEP        [MAIN_DO_LOOP]":
(PID.TID 0000.0001)           User time:   20.231541097164154
(PID.TID 0000.0001)         System time:   9.1844990849494934E-002
(PID.TID 0000.0001)     Wall clock time:   20.329555988311768
(PID.TID 0000.0001)          No. starts:          12
(PID.TID 0000.0001)           No. stops:          12
(PID.TID 0000.0001)   Seconds in section "DO_STATEVARS_DIAGS  [FORWARD_STEP]":
(PID.TID 0000.0001)           User time:   1.7354953289031982
(PID.TID 0000.0001)         System time:   3.6340206861495972E-003
(PID.TID 0000.0001)     Wall clock time:   1.7395174503326416
(PID.TID 0000.0001)          No. starts:          24
(PID.TID 0000.0001)           No. stops:          24
(PID.TID 0000.0001)   Seconds in section "LOAD_FIELDS_DRIVER  [FORWARD_STEP]":
(PID.TID 0000.0001)           User time:   3.2109022140502930E-004
(PID.TID 0000.0001)         System time:   9.9986791610717773E-006
(PID.TID 0000.0001)     Wall clock time:   3.3187866210937500E-004
(PID.TID 0000.0001)          No. starts:          12
(PID.TID 0000.0001)           No. stops:          12
(PID.TID 0000.0001)   Seconds in section "EXTERNAL_FLDS_LOAD [LOAD_FLDS_DRIVER]":
(PID.TID 0000.0001)           User time:   1.2338161468505859E-004
(PID.TID 0000.0001)         System time:   6.0051679611206055E-006
(PID.TID 0000.0001)     Wall clock time:   1.3017654418945312E-004
(PID.TID 0000.0001)          No. starts:          12
(PID.TID 0000.0001)           No. stops:          12
(PID.TID 0000.0001)   Seconds in section "DO_ATMOSPHERIC_PHYS [FORWARD_STEP]":
(PID.TID 0000.0001)           User time:   1.0156631469726562E-004
(PID.TID 0000.0001)         System time:   9.9837779998779297E-007
(PID.TID 0000.0001)     Wall clock time:   1.0347366333007812E-004
(PID.TID 0000.0001)          No. starts:          12
(PID.TID 0000.0001)           No. stops:          12
(PID.TID 0000.0001)   Seconds in section "DO_OCEANIC_PHYS     [FORWARD_STEP]":
(PID.TID 0000.0001)           User time:   2.6951601505279541
(PID.TID 0000.0001)         System time:   1.2731000781059265E-002
(PID.TID 0000.0001)     Wall clock time:   2.7106590270996094
(PID.TID 0000.0001)          No. starts:          12
(PID.TID 0000.0001)           No. stops:          12
(PID.TID 0000.0001)   Seconds in section "SHELFICE_THERMODYNAMICS [DO_OCEANIC_PHYS]":
(PID.TID 0000.0001)           User time:   4.5795857906341553E-002
(PID.TID 0000.0001)         System time:   0.0000000000000000
(PID.TID 0000.0001)     Wall clock time:   4.5806646347045898E-002
(PID.TID 0000.0001)          No. starts:          12
(PID.TID 0000.0001)           No. stops:          12
(PID.TID 0000.0001)   Seconds in section "GGL90_CALC [DO_OCEANIC_PHYS]":
(PID.TID 0000.0001)           User time:   1.9859244823455811
(PID.TID 0000.0001)         System time:   8.3120018243789673E-003
(PID.TID 0000.0001)     Wall clock time:   1.9970452785491943
(PID.TID 0000.0001)          No. starts:          96
(PID.TID 0000.0001)           No. stops:          96
(PID.TID 0000.0001)   Seconds in section "THERMODYNAMICS      [FORWARD_STEP]":
(PID.TID 0000.0001)           User time:   3.7184264659881592
(PID.TID 0000.0001)         System time:   7.7300071716308594E-003
(PID.TID 0000.0001)     Wall clock time:   3.7267570495605469
(PID.TID 0000.0001)          No. starts:          12
(PID.TID 0000.0001)           No. stops:          12
(PID.TID 0000.0001)   Seconds in section "DYNAMICS            [FORWARD_STEP]":
(PID.TID 0000.0001)           User time:   5.4779529571533203
(PID.TID 0000.0001)         System time:   1.1818006634712219E-002
(PID.TID 0000.0001)     Wall clock time:   5.4914071559906006
(PID.TID 0000.0001)          No. starts:          12
(PID.TID 0000.0001)           No. stops:          12
(PID.TID 0000.0001)   Seconds in section "UPDATE_R_STAR       [FORWARD_STEP]":
(PID.TID 0000.0001)           User time:  0.31623017787933350
(PID.TID 0000.0001)         System time:   1.9997358322143555E-005
(PID.TID 0000.0001)     Wall clock time:  0.31628513336181641
(PID.TID 0000.0001)          No. starts:          12
(PID.TID 0000.0001)           No. stops:          12
(PID.TID 0000.0001)   Seconds in section "UPDATE_CG2D         [FORWARD_STEP]":
(PID.TID 0000.0001)           User time:  0.10934615135192871
(PID.TID 0000.0001)         System time:   4.8995018005371094E-005
(PID.TID 0000.0001)     Wall clock time:  0.10944008827209473
(PID.TID 0000.0001)          No. starts:          12
(PID.TID 0000.0001)           No. stops:          12
(PID.TID 0000.0001)   Seconds in section "SOLVE_FOR_PRESSURE  [FORWARD_STEP]":
(PID.TID 0000.0001)           User time:   3.2725037336349487
(PID.TID 0000.0001)         System time:   1.8000602722167969E-004
(PID.TID 0000.0001)     Wall clock time:   3.2734017372131348
(PID.TID 0000.0001)          No. starts:          12
(PID.TID 0000.0001)           No. stops:          12
(PID.TID 0000.0001)   Seconds in section "MOM_CORRECTION_STEP [FORWARD_STEP]":
(PID.TID 0000.0001)           User time:  0.21287178993225098
(PID.TID 0000.0001)         System time:   4.0084123611450195E-006
(PID.TID 0000.0001)     Wall clock time:  0.21290922164916992
(PID.TID 0000.0001)          No. starts:          12
(PID.TID 0000.0001)           No. stops:          12
(PID.TID 0000.0001)   Seconds in section "INTEGR_CONTINUITY   [FORWARD_STEP]":
(PID.TID 0000.0001)           User time:  0.39862012863159180
(PID.TID 0000.0001)         System time:   0.0000000000000000
(PID.TID 0000.0001)     Wall clock time:  0.39866971969604492
(PID.TID 0000.0001)          No. starts:          12
(PID.TID 0000.0001)           No. stops:          12
(PID.TID 0000.0001)   Seconds in section "CALC_R_STAR         [FORWARD_STEP]":
(PID.TID 0000.0001)           User time:   2.6459217071533203E-002
(PID.TID 0000.0001)         System time:   0.0000000000000000
(PID.TID 0000.0001)     Wall clock time:   2.6467084884643555E-002
(PID.TID 0000.0001)          No. starts:          12
(PID.TID 0000.0001)           No. stops:          12
(PID.TID 0000.0001)   Seconds in section "TRC_CORRECTION_STEP [FORWARD_STEP]":
(PID.TID 0000.0001)           User time:   9.7513198852539062E-005
(PID.TID 0000.0001)         System time:   0.0000000000000000
(PID.TID 0000.0001)     Wall clock time:   9.4413757324218750E-005
(PID.TID 0000.0001)          No. starts:          12
(PID.TID 0000.0001)           No. stops:          12
(PID.TID 0000.0001)   Seconds in section "BLOCKING_EXCHANGES  [FORWARD_STEP]":
(PID.TID 0000.0001)           User time:  0.16728043556213379
(PID.TID 0000.0001)         System time:   7.7119916677474976E-003
(PID.TID 0000.0001)     Wall clock time:  0.17503499984741211
(PID.TID 0000.0001)          No. starts:          12
(PID.TID 0000.0001)           No. stops:          12
(PID.TID 0000.0001)   Seconds in section "MONITOR             [FORWARD_STEP]":
(PID.TID 0000.0001)           User time:   1.9810819625854492
(PID.TID 0000.0001)         System time:   4.0929913520812988E-003
(PID.TID 0000.0001)     Wall clock time:   1.9853446483612061
(PID.TID 0000.0001)          No. starts:          12
(PID.TID 0000.0001)           No. stops:          12
(PID.TID 0000.0001)   Seconds in section "DO_THE_MODEL_IO     [FORWARD_STEP]":
(PID.TID 0000.0001)           User time:   5.0364732742309570E-002
(PID.TID 0000.0001)         System time:   7.8570097684860229E-003
(PID.TID 0000.0001)     Wall clock time:   5.8233499526977539E-002
(PID.TID 0000.0001)          No. starts:          12
(PID.TID 0000.0001)           No. stops:          12
(PID.TID 0000.0001)   Seconds in section "DO_WRITE_PICKUP     [FORWARD_STEP]":
(PID.TID 0000.0001)           User time:   6.6985845565795898E-002
(PID.TID 0000.0001)         System time:   3.5982981324195862E-002
(PID.TID 0000.0001)     Wall clock time:  0.10299015045166016
(PID.TID 0000.0001)          No. starts:          12
(PID.TID 0000.0001)           No. stops:          12
(PID.TID 0000.0001) // ======================================================
(PID.TID 0000.0001) // Tile <-> Tile communication statistics
(PID.TID 0000.0001) // ======================================================
(PID.TID 0000.0001) // o Tile number: 000001
(PID.TID 0000.0001) //         No. X exchanges =              0
(PID.TID 0000.0001) //            Max. X spins =              0
(PID.TID 0000.0001) //            Min. X spins =     1000000000
(PID.TID 0000.0001) //          Total. X spins =              0
(PID.TID 0000.0001) //            Avg. X spins =       0.00E+00
(PID.TID 0000.0001) //         No. Y exchanges =              0
(PID.TID 0000.0001) //            Max. Y spins =              0
(PID.TID 0000.0001) //            Min. Y spins =     1000000000
(PID.TID 0000.0001) //          Total. Y spins =              0
(PID.TID 0000.0001) //            Avg. Y spins =       0.00E+00
(PID.TID 0000.0001) // o Tile number: 000002
(PID.TID 0000.0001) //         No. X exchanges =              0
(PID.TID 0000.0001) //            Max. X spins =              0
(PID.TID 0000.0001) //            Min. X spins =     1000000000
(PID.TID 0000.0001) //          Total. X spins =              0
(PID.TID 0000.0001) //            Avg. X spins =       0.00E+00
(PID.TID 0000.0001) //         No. Y exchanges =              0
(PID.TID 0000.0001) //            Max. Y spins =              0
(PID.TID 0000.0001) //            Min. Y spins =     1000000000
(PID.TID 0000.0001) //          Total. Y spins =              0
(PID.TID 0000.0001) //            Avg. Y spins =       0.00E+00
(PID.TID 0000.0001) // o Tile number: 000003
(PID.TID 0000.0001) //         No. X exchanges =              0
(PID.TID 0000.0001) //            Max. X spins =              0
(PID.TID 0000.0001) //            Min. X spins =     1000000000
(PID.TID 0000.0001) //          Total. X spins =              0
(PID.TID 0000.0001) //            Avg. X spins =       0.00E+00
(PID.TID 0000.0001) //         No. Y exchanges =              0
(PID.TID 0000.0001) //            Max. Y spins =              0
(PID.TID 0000.0001) //            Min. Y spins =     1000000000
(PID.TID 0000.0001) //          Total. Y spins =              0
(PID.TID 0000.0001) //            Avg. Y spins =       0.00E+00
(PID.TID 0000.0001) // o Tile number: 000004
(PID.TID 0000.0001) //         No. X exchanges =              0
(PID.TID 0000.0001) //            Max. X spins =              0
(PID.TID 0000.0001) //            Min. X spins =     1000000000
(PID.TID 0000.0001) //          Total. X spins =              0
(PID.TID 0000.0001) //            Avg. X spins =       0.00E+00
(PID.TID 0000.0001) //         No. Y exchanges =              0
(PID.TID 0000.0001) //            Max. Y spins =              0
(PID.TID 0000.0001) //            Min. Y spins =     1000000000
(PID.TID 0000.0001) //          Total. Y spins =              0
(PID.TID 0000.0001) //            Avg. Y spins =       0.00E+00
(PID.TID 0000.0001) // o Tile number: 000005
(PID.TID 0000.0001) //         No. X exchanges =              0
(PID.TID 0000.0001) //            Max. X spins =              0
(PID.TID 0000.0001) //            Min. X spins =     1000000000
(PID.TID 0000.0001) //          Total. X spins =              0
(PID.TID 0000.0001) //            Avg. X spins =       0.00E+00
(PID.TID 0000.0001) //         No. Y exchanges =              0
(PID.TID 0000.0001) //            Max. Y spins =              0
(PID.TID 0000.0001) //            Min. Y spins =     1000000000
(PID.TID 0000.0001) //          Total. Y spins =              0
(PID.TID 0000.0001) //            Avg. Y spins =       0.00E+00
(PID.TID 0000.0001) // o Tile number: 000006
(PID.TID 0000.0001) //         No. X exchanges =              0
(PID.TID 0000.0001) //            Max. X spins =              0
(PID.TID 0000.0001) //            Min. X spins =     1000000000
(PID.TID 0000.0001) //          Total. X spins =              0
(PID.TID 0000.0001) //            Avg. X spins =       0.00E+00
(PID.TID 0000.0001) //         No. Y exchanges =              0
(PID.TID 0000.0001) //            Max. Y spins =              0
(PID.TID 0000.0001) //            Min. Y spins =     1000000000
(PID.TID 0000.0001) //          Total. Y spins =              0
(PID.TID 0000.0001) //            Avg. Y spins =       0.00E+00
(PID.TID 0000.0001) // o Tile number: 000007
(PID.TID 0000.0001) //         No. X exchanges =              0
(PID.TID 0000.0001) //            Max. X spins =              0
(PID.TID 0000.0001) //            Min. X spins =     1000000000
(PID.TID 0000.0001) //          Total. X spins =              0
(PID.TID 0000.0001) //            Avg. X spins =       0.00E+00
(PID.TID 0000.0001) //         No. Y exchanges =              0
(PID.TID 0000.0001) //            Max. Y spins =              0
(PID.TID 0000.0001) //            Min. Y spins =     1000000000
(PID.TID 0000.0001) //          Total. Y spins =              0
(PID.TID 0000.0001) //            Avg. Y spins =       0.00E+00
(PID.TID 0000.0001) // o Tile number: 000008
(PID.TID 0000.0001) //         No. X exchanges =              0
(PID.TID 0000.0001) //            Max. X spins =              0
(PID.TID 0000.0001) //            Min. X spins =     1000000000
(PID.TID 0000.0001) //          Total. X spins =              0
(PID.TID 0000.0001) //            Avg. X spins =       0.00E+00
(PID.TID 0000.0001) //         No. Y exchanges =              0
(PID.TID 0000.0001) //            Max. Y spins =              0
(PID.TID 0000.0001) //            Min. Y spins =     1000000000
(PID.TID 0000.0001) //          Total. Y spins =              0
(PID.TID 0000.0001) //            Avg. Y spins =       0.00E+00
(PID.TID 0000.0001) // o Thread number: 000001
(PID.TID 0000.0001) //            No. barriers =          19662
(PID.TID 0000.0001) //      Max. barrier spins =              1
(PID.TID 0000.0001) //      Min. barrier spins =              1
(PID.TID 0000.0001) //     Total barrier spins =          19662
(PID.TID 0000.0001) //      Avg. barrier spins =       1.00E+00
PROGRAM MAIN: Execution ended Normally
