(PID.TID 0000.0001) 
(PID.TID 0000.0001) // ======================================================
(PID.TID 0000.0001) //                      MITgcm UV
(PID.TID 0000.0001) //                      =========
(PID.TID 0000.0001) // ======================================================
(PID.TID 0000.0001) // execution environment starting up...
(PID.TID 0000.0001) 
(PID.TID 0000.0001) // MITgcmUV version:  checkpoint67x
(PID.TID 0000.0001) // Build user:        jm_c
(PID.TID 0000.0001) // Build host:        villon
(PID.TID 0000.0001) // Build date:        Wed Apr 14 18:06:14 EDT 2021
(PID.TID 0000.0001) 
(PID.TID 0000.0001) // =======================================================
(PID.TID 0000.0001) // Execution Environment parameter file "eedata"
(PID.TID 0000.0001) // =======================================================
(PID.TID 0000.0001) ># Example "eedata" file
(PID.TID 0000.0001) ># Lines beginning "#" are comments
(PID.TID 0000.0001) ># nTx - No. threads per process in X
(PID.TID 0000.0001) ># nTy - No. threads per process in Y
(PID.TID 0000.0001) > &EEPARMS
(PID.TID 0000.0001) > /
(PID.TID 0000.0001) ># Note: Some systems use & as the
(PID.TID 0000.0001) ># namelist terminator. Other systems
(PID.TID 0000.0001) ># use a / character (as shown here).
(PID.TID 0000.0001) 
(PID.TID 0000.0001) // =======================================================
(PID.TID 0000.0001) // Computational Grid Specification ( see files "SIZE.h" )
(PID.TID 0000.0001) //                                  ( and "eedata"       )
(PID.TID 0000.0001) // =======================================================
(PID.TID 0000.0001)      nPx =    1 ; /* No. processes in X */
(PID.TID 0000.0001)      nPy =    1 ; /* No. processes in Y */
(PID.TID 0000.0001)      nSx =    2 ; /* No. tiles in X per process */
(PID.TID 0000.0001)      nSy =    4 ; /* No. tiles in Y per process */
(PID.TID 0000.0001)      sNx =   25 ; /* Tile size in X */
(PID.TID 0000.0001)      sNy =   25 ; /* Tile size in Y */
(PID.TID 0000.0001)      OLx =    3 ; /* Tile overlap distance in X */
(PID.TID 0000.0001)      OLy =    3 ; /* Tile overlap distance in Y */
(PID.TID 0000.0001)      nTx =    1 ; /* No. threads in X per process */
(PID.TID 0000.0001)      nTy =    1 ; /* No. threads in Y per process */
(PID.TID 0000.0001)       Nr =   30 ; /* No. levels in the vertical   */
(PID.TID 0000.0001)       Nx =   50 ; /* Total domain size in X ( = nPx*nSx*sNx ) */
(PID.TID 0000.0001)       Ny =  100 ; /* Total domain size in Y ( = nPy*nSy*sNy ) */
(PID.TID 0000.0001)   nTiles =    8 ; /* Total no. tiles per process ( = nSx*nSy ) */
(PID.TID 0000.0001)   nProcs =    1 ; /* Total no. processes ( = nPx*nPy ) */
(PID.TID 0000.0001) nThreads =    1 ; /* Total no. threads per process ( = nTx*nTy ) */
(PID.TID 0000.0001) usingMPI =    F ; /* Flag used to control whether MPI is in use */
(PID.TID 0000.0001)                   /*  note: To execute a program with MPI calls */
(PID.TID 0000.0001)                   /*  it must be launched appropriately e.g     */
(PID.TID 0000.0001)                   /*  "mpirun -np 64 ......"                    */
(PID.TID 0000.0001) useCoupler=   F ; /* Flag used to control communications with   */
(PID.TID 0000.0001)                   /*  other model components, through a coupler */
(PID.TID 0000.0001) useNest2W_parent =    F ;/* Control 2-W Nesting comm */
(PID.TID 0000.0001) useNest2W_child  =    F ;/* Control 2-W Nesting comm */
(PID.TID 0000.0001) debugMode =    F ; /* print debug msg. (sequence of S/R calls)  */
(PID.TID 0000.0001) printMapIncludesZeros=    F ; /* print zeros in Std.Output maps */
(PID.TID 0000.0001) maxLengthPrt1D=   65 /* maxLength of 1D array printed to StdOut */
(PID.TID 0000.0001) 
(PID.TID 0000.0001) // ======================================================
(PID.TID 0000.0001) // Mapping of tiles to threads
(PID.TID 0000.0001) // ======================================================
(PID.TID 0000.0001) // -o- Thread   1, tiles (   1:   2,   1:   4)
(PID.TID 0000.0001) 
(PID.TID 0000.0001) // ======================================================
(PID.TID 0000.0001) // Tile <-> Tile connectvity table
(PID.TID 0000.0001) // ======================================================
(PID.TID 0000.0001) // Tile number: 000001 (process no. = 000000)
(PID.TID 0000.0001) //        WEST: Tile = 000002, Process = 000000, Comm = put
(PID.TID 0000.0001) //                bi = 000002, bj = 000001
(PID.TID 0000.0001) //        EAST: Tile = 000002, Process = 000000, Comm = put
(PID.TID 0000.0001) //                bi = 000002, bj = 000001
(PID.TID 0000.0001) //       SOUTH: Tile = 000007, Process = 000000, Comm = put
(PID.TID 0000.0001) //                bi = 000001, bj = 000004
(PID.TID 0000.0001) //       NORTH: Tile = 000003, Process = 000000, Comm = put
(PID.TID 0000.0001) //                bi = 000001, bj = 000002
(PID.TID 0000.0001) // Tile number: 000002 (process no. = 000000)
(PID.TID 0000.0001) //        WEST: Tile = 000001, Process = 000000, Comm = put
(PID.TID 0000.0001) //                bi = 000001, bj = 000001
(PID.TID 0000.0001) //        EAST: Tile = 000001, Process = 000000, Comm = put
(PID.TID 0000.0001) //                bi = 000001, bj = 000001
(PID.TID 0000.0001) //       SOUTH: Tile = 000008, Process = 000000, Comm = put
(PID.TID 0000.0001) //                bi = 000002, bj = 000004
(PID.TID 0000.0001) //       NORTH: Tile = 000004, Process = 000000, Comm = put
(PID.TID 0000.0001) //                bi = 000002, bj = 000002
(PID.TID 0000.0001) // Tile number: 000003 (process no. = 000000)
(PID.TID 0000.0001) //        WEST: Tile = 000004, Process = 000000, Comm = put
(PID.TID 0000.0001) //                bi = 000002, bj = 000002
(PID.TID 0000.0001) //        EAST: Tile = 000004, Process = 000000, Comm = put
(PID.TID 0000.0001) //                bi = 000002, bj = 000002
(PID.TID 0000.0001) //       SOUTH: Tile = 000001, Process = 000000, Comm = put
(PID.TID 0000.0001) //                bi = 000001, bj = 000001
(PID.TID 0000.0001) //       NORTH: Tile = 000005, Process = 000000, Comm = put
(PID.TID 0000.0001) //                bi = 000001, bj = 000003
(PID.TID 0000.0001) // Tile number: 000004 (process no. = 000000)
(PID.TID 0000.0001) //        WEST: Tile = 000003, Process = 000000, Comm = put
(PID.TID 0000.0001) //                bi = 000001, bj = 000002
(PID.TID 0000.0001) //        EAST: Tile = 000003, Process = 000000, Comm = put
(PID.TID 0000.0001) //                bi = 000001, bj = 000002
(PID.TID 0000.0001) //       SOUTH: Tile = 000002, Process = 000000, Comm = put
(PID.TID 0000.0001) //                bi = 000002, bj = 000001
(PID.TID 0000.0001) //       NORTH: Tile = 000006, Process = 000000, Comm = put
(PID.TID 0000.0001) //                bi = 000002, bj = 000003
(PID.TID 0000.0001) // Tile number: 000005 (process no. = 000000)
(PID.TID 0000.0001) //        WEST: Tile = 000006, Process = 000000, Comm = put
(PID.TID 0000.0001) //                bi = 000002, bj = 000003
(PID.TID 0000.0001) //        EAST: Tile = 000006, Process = 000000, Comm = put
(PID.TID 0000.0001) //                bi = 000002, bj = 000003
(PID.TID 0000.0001) //       SOUTH: Tile = 000003, Process = 000000, Comm = put
(PID.TID 0000.0001) //                bi = 000001, bj = 000002
(PID.TID 0000.0001) //       NORTH: Tile = 000007, Process = 000000, Comm = put
(PID.TID 0000.0001) //                bi = 000001, bj = 000004
(PID.TID 0000.0001) // Tile number: 000006 (process no. = 000000)
(PID.TID 0000.0001) //        WEST: Tile = 000005, Process = 000000, Comm = put
(PID.TID 0000.0001) //                bi = 000001, bj = 000003
(PID.TID 0000.0001) //        EAST: Tile = 000005, Process = 000000, Comm = put
(PID.TID 0000.0001) //                bi = 000001, bj = 000003
(PID.TID 0000.0001) //       SOUTH: Tile = 000004, Process = 000000, Comm = put
(PID.TID 0000.0001) //                bi = 000002, bj = 000002
(PID.TID 0000.0001) //       NORTH: Tile = 000008, Process = 000000, Comm = put
(PID.TID 0000.0001) //                bi = 000002, bj = 000004
(PID.TID 0000.0001) // Tile number: 000007 (process no. = 000000)
(PID.TID 0000.0001) //        WEST: Tile = 000008, Process = 000000, Comm = put
(PID.TID 0000.0001) //                bi = 000002, bj = 000004
(PID.TID 0000.0001) //        EAST: Tile = 000008, Process = 000000, Comm = put
(PID.TID 0000.0001) //                bi = 000002, bj = 000004
(PID.TID 0000.0001) //       SOUTH: Tile = 000005, Process = 000000, Comm = put
(PID.TID 0000.0001) //                bi = 000001, bj = 000003
(PID.TID 0000.0001) //       NORTH: Tile = 000001, Process = 000000, Comm = put
(PID.TID 0000.0001) //                bi = 000001, bj = 000001
(PID.TID 0000.0001) // Tile number: 000008 (process no. = 000000)
(PID.TID 0000.0001) //        WEST: Tile = 000007, Process = 000000, Comm = put
(PID.TID 0000.0001) //                bi = 000001, bj = 000004
(PID.TID 0000.0001) //        EAST: Tile = 000007, Process = 000000, Comm = put
(PID.TID 0000.0001) //                bi = 000001, bj = 000004
(PID.TID 0000.0001) //       SOUTH: Tile = 000006, Process = 000000, Comm = put
(PID.TID 0000.0001) //                bi = 000002, bj = 000003
(PID.TID 0000.0001) //       NORTH: Tile = 000002, Process = 000000, Comm = put
(PID.TID 0000.0001) //                bi = 000002, bj = 000001
(PID.TID 0000.0001) 
(PID.TID 0000.0001)  INI_PARMS: opening model parameter file "data"
(PID.TID 0000.0001)  OPEN_COPY_DATA_FILE: opening file data
(PID.TID 0000.0001) // =======================================================
(PID.TID 0000.0001) // Parameter file "data"
(PID.TID 0000.0001) // =======================================================
(PID.TID 0000.0001) ># ====================
(PID.TID 0000.0001) ># | Model parameters |
(PID.TID 0000.0001) ># ====================
(PID.TID 0000.0001) >#
(PID.TID 0000.0001) ># Continuous equation parameters
(PID.TID 0000.0001) > &PARM01
(PID.TID 0000.0001) > Tref = 30*-1.9,
(PID.TID 0000.0001) > Sref = 30*34.4,
(PID.TID 0000.0001) > viscAz=1.E-3,
(PID.TID 0000.0001) > viscAh=1000.,
(PID.TID 0000.0001) > no_slip_sides=.FALSE.,
(PID.TID 0000.0001) > no_slip_bottom=.FALSE.,
(PID.TID 0000.0001) > diffKhT=100.0,
(PID.TID 0000.0001) > diffKzT=5.E-5,
(PID.TID 0000.0001) > diffKhS=100.0,
(PID.TID 0000.0001) > diffKzS=5.E-5,
(PID.TID 0000.0001) > ivdc_kappa=1.,
(PID.TID 0000.0001) > implicitDiffusion=.TRUE.,
(PID.TID 0000.0001) > implicitViscosity=.TRUE.,
(PID.TID 0000.0001) > bottomDragQuadratic=2.5E-3,
(PID.TID 0000.0001) >#selectBotDragQuadr=2,
(PID.TID 0000.0001) >#useCDScheme = .TRUE.,
(PID.TID 0000.0001) > useJamartWetPoints=.TRUE.,
(PID.TID 0000.0001) >#--
(PID.TID 0000.0001) > eosType='JMD95Z',
(PID.TID 0000.0001) > HeatCapacity_Cp = 3974.,
(PID.TID 0000.0001) > rhoConst=1030.,
(PID.TID 0000.0001) > gravity=9.81,
(PID.TID 0000.0001) > convertFW2Salt = 33.4,
(PID.TID 0000.0001) > implicitFreeSurface=.TRUE.,
(PID.TID 0000.0001) > exactConserv=.TRUE.,
(PID.TID 0000.0001) >#select_rStar=2,
(PID.TID 0000.0001) > nonlinFreeSurf=4,
(PID.TID 0000.0001) > hFacInf=0.02,
(PID.TID 0000.0001) > hFacSup=2.0,
(PID.TID 0000.0001) >#useRealFreshWaterFlux=.TRUE.,
(PID.TID 0000.0001) > hFacMin=0.05,
(PID.TID 0000.0001) >#--
(PID.TID 0000.0001) > readBinaryPrec=64,
(PID.TID 0000.0001) >#writeBinaryPrec=64,
(PID.TID 0000.0001) >#globalFiles=.TRUE.,
(PID.TID 0000.0001) >#debugLevel=3,
(PID.TID 0000.0001) > plotLevel =0,
(PID.TID 0000.0001) > /
(PID.TID 0000.0001) >
(PID.TID 0000.0001) ># Elliptic solver parameters
(PID.TID 0000.0001) > &PARM02
(PID.TID 0000.0001) > cg2dMaxIters=1000,
(PID.TID 0000.0001) > cg2dTargetResidual=1.E-13,
(PID.TID 0000.0001) > cg3dMaxIters=400,
(PID.TID 0000.0001) > cg3dTargetResidual=1.E-13,
(PID.TID 0000.0001) > /
(PID.TID 0000.0001) >
(PID.TID 0000.0001) ># Time stepping parameters
(PID.TID 0000.0001) > &PARM03
(PID.TID 0000.0001) > nIter0 = 8640,
(PID.TID 0000.0001) > nTimeSteps=20,
(PID.TID 0000.0001) > deltaT=1800.,
(PID.TID 0000.0001) > abEps=0.1,
(PID.TID 0000.0001) > momDissip_In_AB=.FALSE.,
(PID.TID 0000.0001) >#cAdjFreq = -1.,
(PID.TID 0000.0001) >#tauCD = 400000.,
(PID.TID 0000.0001) > pChkptFreq= 0.,
(PID.TID 0000.0001) > chkptFreq=  0.,
(PID.TID 0000.0001) > dumpFreq=   0.,
(PID.TID 0000.0001) > monitorSelect=2,
(PID.TID 0000.0001) > monitorFreq=1.,
(PID.TID 0000.0001) > /
(PID.TID 0000.0001) >
(PID.TID 0000.0001) ># Gridding parameters
(PID.TID 0000.0001) > &PARM04
(PID.TID 0000.0001) > usingSphericalPolarGrid=.TRUE.,
(PID.TID 0000.0001) > ygOrigin = -80.0,
(PID.TID 0000.0001) > delX=50*0.3,
(PID.TID 0000.0001) > delY=100*0.1,
(PID.TID 0000.0001) > delZ=30*30.0,
(PID.TID 0000.0001) >#-
(PID.TID 0000.0001) > pCellMix_select= 20,
(PID.TID 0000.0001) > pCellMix_delR  = 20.,
(PID.TID 0000.0001) ># interViscAr_pCell = .TRUE.,
(PID.TID 0000.0001) ># interDiffKr_pCell = .TRUE.,
(PID.TID 0000.0001) > pCellMix_viscAr = 30*4.e-4,
(PID.TID 0000.0001) > pCellMix_diffKr = 30*2.e-4,
(PID.TID 0000.0001) ># current default: diffKzT=5.E-5, viscAz=1.E-3,
(PID.TID 0000.0001) > /
(PID.TID 0000.0001) >
(PID.TID 0000.0001) ># Input datasets
(PID.TID 0000.0001) > &PARM05
(PID.TID 0000.0001) > bathyFile='bathy.box',
(PID.TID 0000.0001) > /
(PID.TID 0000.0001) 
(PID.TID 0000.0001)  INI_PARMS ; starts to read PARM01
(PID.TID 0000.0001)  INI_PARMS ; read PARM01 : OK
(PID.TID 0000.0001)  INI_PARMS ; starts to read PARM02
(PID.TID 0000.0001)  INI_PARMS ; read PARM02 : OK
(PID.TID 0000.0001)  INI_PARMS ; starts to read PARM03
(PID.TID 0000.0001)  INI_PARMS ; read PARM03 : OK
(PID.TID 0000.0001)  INI_PARMS ; starts to read PARM04
(PID.TID 0000.0001)  INI_PARMS ; read PARM04 : OK
(PID.TID 0000.0001)  INI_PARMS ; starts to read PARM05
(PID.TID 0000.0001)  INI_PARMS ; read PARM05 : OK
(PID.TID 0000.0001)  INI_PARMS: finished reading file "data"
(PID.TID 0000.0001)  PACKAGES_BOOT: opening data.pkg
(PID.TID 0000.0001)  OPEN_COPY_DATA_FILE: opening file data.pkg
(PID.TID 0000.0001) // =======================================================
(PID.TID 0000.0001) // Parameter file "data.pkg"
(PID.TID 0000.0001) // =======================================================
(PID.TID 0000.0001) ># Packages
(PID.TID 0000.0001) > &PACKAGES
(PID.TID 0000.0001) > useShelfIce=.TRUE.,
(PID.TID 0000.0001) > useDiagnostics=.TRUE.,
(PID.TID 0000.0001) > useMNC=.TRUE.,
(PID.TID 0000.0001) > /
(PID.TID 0000.0001) 
(PID.TID 0000.0001)  PACKAGES_BOOT: finished reading data.pkg
(PID.TID 0000.0001)  PACKAGES_BOOT: On/Off package Summary
 --------  pkgs with a standard "usePKG" On/Off switch in "data.pkg":  --------
 pkg/obcs                 compiled but not used ( useOBCS                  = F )
 pkg/shelfice             compiled   and   used ( useShelfIce              = T )
 pkg/icefront             compiled but not used ( useICEFRONT              = F )
 pkg/diagnostics          compiled   and   used ( useDiagnostics           = T )
 pkg/mnc                  compiled   and   used ( useMNC                   = T )
 -------- pkgs without standard "usePKG" On/Off switch in "data.pkg":  --------
 pkg/generic_advdiff      compiled   and   used ( useGAD                   = T )
 pkg/mom_common           compiled   and   used ( momStepping              = T )
 pkg/mom_vecinv           compiled but not used ( +vectorInvariantMomentum = F )
 pkg/mom_fluxform         compiled   and   used ( & not vectorInvariantMom = T )
 pkg/cd_code              compiled but not used ( useCDscheme              = F )
 pkg/monitor              compiled   and   used ( monitorFreq > 0.         = T )
 pkg/debug                compiled but not used ( debugMode                = F )
 pkg/rw                   compiled   and   used
 pkg/mdsio                compiled   and   used
(PID.TID 0000.0001)  PACKAGES_BOOT: End of package Summary
(PID.TID 0000.0001) 
(PID.TID 0000.0001)  MNC_READPARMS: opening file 'data.mnc'
(PID.TID 0000.0001)  OPEN_COPY_DATA_FILE: opening file data.mnc
(PID.TID 0000.0001) // =======================================================
(PID.TID 0000.0001) // Parameter file "data.mnc"
(PID.TID 0000.0001) // =======================================================
(PID.TID 0000.0001) ># Example "data.mnc" file
(PID.TID 0000.0001) ># Lines beginning "#" are comments
(PID.TID 0000.0001) > &MNC_01
(PID.TID 0000.0001) ># mnc_echo_gvtypes=.FALSE.,
(PID.TID 0000.0001) ># mnc_use_indir=.FALSE.,
(PID.TID 0000.0001) > mnc_use_outdir=.TRUE.,
(PID.TID 0000.0001) > mnc_outdir_str='mnc_test_',
(PID.TID 0000.0001) >#mnc_outdir_date=.TRUE.,
(PID.TID 0000.0001) > monitor_mnc=.FALSE.,
(PID.TID 0000.0001) >#snapshot_mnc=.FALSE.,
(PID.TID 0000.0001) >#timeave_mnc=.FALSE.,
(PID.TID 0000.0001) > pickup_read_mnc=.FALSE.,
(PID.TID 0000.0001) > pickup_write_mnc=.FALSE.,
(PID.TID 0000.0001) > /
(PID.TID 0000.0001) ># Note: Some systems use & as the
(PID.TID 0000.0001) ># namelist terminator. Other systems
(PID.TID 0000.0001) ># use a / character (as shown here).
(PID.TID 0000.0001) 
(PID.TID 0000.0001)  MNC_READPARMS: finished reading data.mnc
(PID.TID 0000.0001)  SHELFICE_READPARMS: opening data.shelfice
(PID.TID 0000.0001)  OPEN_COPY_DATA_FILE: opening file data.shelfice
(PID.TID 0000.0001) // =======================================================
(PID.TID 0000.0001) // Parameter file "data.shelfice"
(PID.TID 0000.0001) // =======================================================
(PID.TID 0000.0001) ># ===================================
(PID.TID 0000.0001) ># | Parameters for SHELFICE package |
(PID.TID 0000.0001) ># ===================================
(PID.TID 0000.0001) > &SHELFICE_PARM01
(PID.TID 0000.0001) > SHELFICEconserve = .TRUE.,
(PID.TID 0000.0001) >#SHELFICEboundaryLayer = .TRUE.,
(PID.TID 0000.0001) > SHELFICEtopoFile='icetopo.exp1',
(PID.TID 0000.0001) >#SHELFICEloadAnomalyFile = 'phi0surf.exp1.jmd95z',
(PID.TID 0000.0001) > SHELFICEmassFile='iceShelf_Mass.bin',
(PID.TID 0000.0001) > SHELFICEadvDiffHeatFlux = .TRUE.,
(PID.TID 0000.0001) >#no_slip_shelfice = .FALSE.,   <- the default is: =no_slip_bottom (=F here), free-slip BC
(PID.TID 0000.0001) > SHELFICEuseGammaFrict = .TRUE.,
(PID.TID 0000.0001) > SHELFICEselectDragQuadr=1,
(PID.TID 0000.0001) >#SHELFICE_oldCalcUStar=.TRUE., <- the default is: =F
(PID.TID 0000.0001) >#----
(PID.TID 0000.0001) > SHELFICEwriteState = .TRUE.,
(PID.TID 0000.0001) > /
(PID.TID 0000.0001) 
(PID.TID 0000.0001)  SHELFICE_READPARMS: finished reading data.shelfice
(PID.TID 0000.0001)  DIAGNOSTICS_READPARMS: opening data.diagnostics
(PID.TID 0000.0001)  OPEN_COPY_DATA_FILE: opening file data.diagnostics
(PID.TID 0000.0001) // =======================================================
(PID.TID 0000.0001) // Parameter file "data.diagnostics"
(PID.TID 0000.0001) // =======================================================
(PID.TID 0000.0001) ># Diagnostic Package Choices
(PID.TID 0000.0001) >#--------------------
(PID.TID 0000.0001) >#  dumpAtLast (logical): always write output at the end of simulation (default=F)
(PID.TID 0000.0001) >#  diag_mnc   (logical): write to NetCDF files (default=useMNC)
(PID.TID 0000.0001) >#--for each output-stream:
(PID.TID 0000.0001) >#  fileName(n) : prefix of the output file name (max 80c long) for outp.stream n
(PID.TID 0000.0001) >#  frequency(n):< 0 : write snap-shot output every |frequency| seconds
(PID.TID 0000.0001) >#               > 0 : write time-average output every frequency seconds
(PID.TID 0000.0001) >#  timePhase(n)     : write at time = timePhase + multiple of |frequency|
(PID.TID 0000.0001) >#    averagingFreq  : frequency (in s) for periodic averaging interval
(PID.TID 0000.0001) >#    averagingPhase : phase     (in s) for periodic averaging interval
(PID.TID 0000.0001) >#    repeatCycle    : number of averaging intervals in 1 cycle
(PID.TID 0000.0001) >#  levels(:,n) : list of levels to write to file (Notes: declared as REAL)
(PID.TID 0000.0001) >#                when this entry is missing, select all common levels of this list
(PID.TID 0000.0001) >#  fields(:,n) : list of selected diagnostics fields (8.c) in outp.stream n
(PID.TID 0000.0001) >#                (see "available_diagnostics.log" file for the full list of diags)
(PID.TID 0000.0001) >#  missing_value(n) : missing value for real-type fields in output file "n"
(PID.TID 0000.0001) >#  fileFlags(n)     : specific code (8c string) for output file "n"
(PID.TID 0000.0001) >#--------------------
(PID.TID 0000.0001) > &DIAGNOSTICS_LIST
(PID.TID 0000.0001) ># diag_mnc     = .FALSE.,
(PID.TID 0000.0001) >#--
(PID.TID 0000.0001) >  fields(1:14,1) = 'ETAN    ','ETANSQ  ','DETADT2 ',
(PID.TID 0000.0001) >                   'SHIuStar','SHIgammT','SHIgammS',
(PID.TID 0000.0001) >                   'SHIfwFlx','SHIhtFlx','SHIForcT','SHIForcS',
(PID.TID 0000.0001) >                   'TFLUX   ','SFLUX   ',
(PID.TID 0000.0001) >                   'SHI_TauX','SHI_TauY',
(PID.TID 0000.0001) >#                  'oceTAUX ','oceTAUY ',
(PID.TID 0000.0001) >#                  'TRELAX  ','SRELAX  ','oceFreez',
(PID.TID 0000.0001) >   fileName(1) = 'surfDiag',
(PID.TID 0000.0001) >  frequency(1) =  5184000.,
(PID.TID 0000.0001) >
(PID.TID 0000.0001) >  fields(1:9,2)  = 'UVEL    ','VVEL    ','WVEL    ','PHIHYD  ',
(PID.TID 0000.0001) >                   'VVELMASS','UVELMASS','WVELSQ  ',
(PID.TID 0000.0001) >                   'THETA   ','SALT    ',
(PID.TID 0000.0001) ># do not specify levels => all levels are selected
(PID.TID 0000.0001) >   fileName(2) = 'dynDiag',
(PID.TID 0000.0001) >  frequency(2) =  5184000.,
(PID.TID 0000.0001) >
(PID.TID 0000.0001) >  fields(1:7,4) =  'ADVx_TH ','ADVy_TH ','ADVr_TH ',
(PID.TID 0000.0001) >                   'DFxE_TH ','DFyE_TH ','DFrE_TH ',
(PID.TID 0000.0001) >                   'DFrI_TH ',
(PID.TID 0000.0001) >#                  'ADVx_SLT',
(PID.TID 0000.0001) >#  fileName(4) = 'flxDiag',
(PID.TID 0000.0001) >  frequency(4) = 1728000.,
(PID.TID 0000.0001) > /
(PID.TID 0000.0001) >
(PID.TID 0000.0001) >#--------------------
(PID.TID 0000.0001) ># Parameter for Diagnostics of per level statistics:
(PID.TID 0000.0001) >#--------------------
(PID.TID 0000.0001) >#  diagSt_mnc (logical): write stat-diags to NetCDF files (default=diag_mnc)
(PID.TID 0000.0001) >#  diagSt_regMaskFile : file containing the region-mask to read-in
(PID.TID 0000.0001) >#  nSetRegMskFile   : number of region-mask sets within the region-mask file
(PID.TID 0000.0001) >#  set_regMask(i)   : region-mask set-index that identifies the region "i"
(PID.TID 0000.0001) >#  val_regMask(i)   : region "i" identifier value in the region mask
(PID.TID 0000.0001) >#--for each output-stream:
(PID.TID 0000.0001) >#  stat_fName(n) : prefix of the output file name (max 80c long) for outp.stream n
(PID.TID 0000.0001) >#  stat_freq(n):< 0 : write snap-shot output every |stat_freq| seconds
(PID.TID 0000.0001) >#               > 0 : write time-average output every stat_freq seconds
(PID.TID 0000.0001) >#  stat_phase(n)    : write at time = stat_phase + multiple of |stat_freq|
(PID.TID 0000.0001) >#  stat_region(:,n) : list of "regions" (default: 1 region only=global)
(PID.TID 0000.0001) >#  stat_fields(:,n) : list of selected diagnostics fields (8.c) in outp.stream n
(PID.TID 0000.0001) >#                (see "available_diagnostics.log" file for the full list of diags)
(PID.TID 0000.0001) >#--------------------
(PID.TID 0000.0001) > &DIAG_STATIS_PARMS
(PID.TID 0000.0001) ># an example just to check the agreement with MONITOR output:
(PID.TID 0000.0001) > stat_fields(1:6,1)  = 'ETAN    ','UVEL    ','VVEL    ','WVEL    ',
(PID.TID 0000.0001) >                       'THETA   ','SALT    ',
(PID.TID 0000.0001) >  stat_fName(1) = 'dynStDiag',
(PID.TID 0000.0001) >   stat_freq(1) = 86400.,
(PID.TID 0000.0001) ># stat_phase(1) = 0.,
(PID.TID 0000.0001) > /
(PID.TID 0000.0001) >
(PID.TID 0000.0001) 
(PID.TID 0000.0001) S/R DIAGNOSTICS_READPARMS, read namelist "diagnostics_list": start
(PID.TID 0000.0001) S/R DIAGNOSTICS_READPARMS, read namelist "diagnostics_list": OK
(PID.TID 0000.0001) S/R DIAGNOSTICS_READPARMS, read namelist "DIAG_STATIS_PARMS": start
(PID.TID 0000.0001) S/R DIAGNOSTICS_READPARMS, read namelist "DIAG_STATIS_PARMS": OK
(PID.TID 0000.0001)  DIAGNOSTICS_READPARMS: global parameter summary:
(PID.TID 0000.0001)  dumpAtLast = /* always write time-ave diags at the end */
(PID.TID 0000.0001)                   F
(PID.TID 0000.0001)     ;
(PID.TID 0000.0001)  diag_mnc =   /* write NetCDF output files */
(PID.TID 0000.0001)                   T
(PID.TID 0000.0001)     ;
(PID.TID 0000.0001)  useMissingValue = /* put MissingValue where mask = 0 */
(PID.TID 0000.0001)                   F
(PID.TID 0000.0001)     ;
(PID.TID 0000.0001)  diagCG_maxIters = /* max number of iters in diag_cg2d */
(PID.TID 0000.0001)                    1000
(PID.TID 0000.0001)     ;
(PID.TID 0000.0001)  diagCG_resTarget = /* residual target for diag_cg2d */
(PID.TID 0000.0001)                 1.000000000000000E-13
(PID.TID 0000.0001)     ;
(PID.TID 0000.0001)  diagCG_pcOffDFac = /* preconditioner off-diagonal factor */
(PID.TID 0000.0001)                 9.611687812379854E-01
(PID.TID 0000.0001)     ;
(PID.TID 0000.0001) -----------------------------------------------------
(PID.TID 0000.0001)  DIAGNOSTICS_READPARMS: active diagnostics summary:
(PID.TID 0000.0001) -----------------------------------------------------
(PID.TID 0000.0001) Creating Output Stream: surfDiag
(PID.TID 0000.0001) Output Frequency:    5184000.000000 ; Phase:           0.000000
(PID.TID 0000.0001)  Averaging Freq.:    5184000.000000 , Phase:           0.000000 , Cycle:   1
(PID.TID 0000.0001)  missing value: -9.990000000000E+02
(PID.TID 0000.0001)  Levels:    will be set later
(PID.TID 0000.0001)  Fields:    ETAN     ETANSQ   DETADT2  SHIuStar SHIgammT SHIgammS SHIfwFlx SHIhtFlx SHIForcT SHIForcS
(PID.TID 0000.0001)  Fields:    TFLUX    SFLUX    SHI_TauX SHI_TauY
(PID.TID 0000.0001) Creating Output Stream: dynDiag
(PID.TID 0000.0001) Output Frequency:    5184000.000000 ; Phase:           0.000000
(PID.TID 0000.0001)  Averaging Freq.:    5184000.000000 , Phase:           0.000000 , Cycle:   1
(PID.TID 0000.0001)  missing value: -9.990000000000E+02
(PID.TID 0000.0001)  Levels:    will be set later
(PID.TID 0000.0001)  Fields:    UVEL     VVEL     WVEL     PHIHYD   VVELMASS UVELMASS WVELSQ   THETA    SALT
(PID.TID 0000.0001) -----------------------------------------------------
(PID.TID 0000.0001)  DIAGNOSTICS_READPARMS: statistics diags. summary:
(PID.TID 0000.0001) Creating Stats. Output Stream: dynStDiag
(PID.TID 0000.0001) Output Frequency:      86400.000000 ; Phase:           0.000000
(PID.TID 0000.0001)  Regions:   0
(PID.TID 0000.0001)  Fields:    ETAN     UVEL     VVEL     WVEL     THETA    SALT
(PID.TID 0000.0001) -----------------------------------------------------
(PID.TID 0000.0001) 
(PID.TID 0000.0001) SET_PARMS: done
(PID.TID 0000.0001) Enter INI_VERTICAL_GRID: setInterFDr=    T ; setCenterDr=    F
(PID.TID 0000.0001) %MON XC_max                       =   1.4850000000000E+01
(PID.TID 0000.0001) %MON XC_min                       =   1.5000000000000E-01
(PID.TID 0000.0001) %MON XC_mean                      =   7.5000000000000E+00
(PID.TID 0000.0001) %MON XC_sd                        =   4.3292609068985E+00
(PID.TID 0000.0001) %MON XG_max                       =   1.4700000000000E+01
(PID.TID 0000.0001) %MON XG_min                       =   1.1102230246252E-16
(PID.TID 0000.0001) %MON XG_mean                      =   7.3500000000000E+00
(PID.TID 0000.0001) %MON XG_sd                        =   4.3292609068985E+00
(PID.TID 0000.0001) %MON DXC_max                      =   1.1380125394806E+04
(PID.TID 0000.0001) %MON DXC_min                      =   5.8203914905589E+03
(PID.TID 0000.0001) %MON DXC_mean                     =   8.6215028627207E+03
(PID.TID 0000.0001) %MON DXC_sd                       =   1.6219001271572E+03
(PID.TID 0000.0001) %MON DXF_max                      =   1.1380125394806E+04
(PID.TID 0000.0001) %MON DXF_min                      =   5.8203914905589E+03
(PID.TID 0000.0001) %MON DXF_mean                     =   8.6215028627207E+03
(PID.TID 0000.0001) %MON DXF_sd                       =   1.6219001271572E+03
(PID.TID 0000.0001) %MON DXG_max                      =   1.1352761512017E+04
(PID.TID 0000.0001) %MON DXG_min                      =   5.7917296935586E+03
(PID.TID 0000.0001) %MON DXG_mean                     =   8.5934208253080E+03
(PID.TID 0000.0001) %MON DXG_sd                       =   1.6222785520817E+03
(PID.TID 0000.0001) %MON DXV_max                      =   1.1352761512017E+04
(PID.TID 0000.0001) %MON DXV_min                      =   5.7917296935586E+03
(PID.TID 0000.0001) %MON DXV_mean                     =   8.5934208253080E+03
(PID.TID 0000.0001) %MON DXV_sd                       =   1.6222785520817E+03
(PID.TID 0000.0001) %MON YC_max                       =  -7.0050000000001E+01
(PID.TID 0000.0001) %MON YC_min                       =  -7.9950000000000E+01
(PID.TID 0000.0001) %MON YC_mean                      =  -7.5000000000000E+01
(PID.TID 0000.0001) %MON YC_sd                        =   2.8866070047720E+00
(PID.TID 0000.0001) %MON YG_max                       =  -7.0100000000001E+01
(PID.TID 0000.0001) %MON YG_min                       =  -8.0000000000000E+01
(PID.TID 0000.0001) %MON YG_mean                      =  -7.5050000000000E+01
(PID.TID 0000.0001) %MON YG_sd                        =   2.8866070047721E+00
(PID.TID 0000.0001) %MON DYC_max                      =   1.1117747335204E+04
(PID.TID 0000.0001) %MON DYC_min                      =   1.1117747335204E+04
(PID.TID 0000.0001) %MON DYC_mean                     =   1.1117747335204E+04
(PID.TID 0000.0001) %MON DYC_sd                       =   4.1836756281555E-11
(PID.TID 0000.0001) %MON DYF_max                      =   1.1117747335204E+04
(PID.TID 0000.0001) %MON DYF_min                      =   1.1117747335204E+04
(PID.TID 0000.0001) %MON DYF_mean                     =   1.1117747335204E+04
(PID.TID 0000.0001) %MON DYF_sd                       =   4.1836756281555E-11
(PID.TID 0000.0001) %MON DYG_max                      =   1.1117747335204E+04
(PID.TID 0000.0001) %MON DYG_min                      =   1.1117747335204E+04
(PID.TID 0000.0001) %MON DYG_mean                     =   1.1117747335204E+04
(PID.TID 0000.0001) %MON DYG_sd                       =   4.1836756281555E-11
(PID.TID 0000.0001) %MON DYU_max                      =   1.1117747335204E+04
(PID.TID 0000.0001) %MON DYU_min                      =   1.1117747335204E+04
(PID.TID 0000.0001) %MON DYU_mean                     =   1.1117747335204E+04
(PID.TID 0000.0001) %MON DYU_sd                       =   4.1836756281555E-11
(PID.TID 0000.0001) %MON RA_max                       =   1.2652134272379E+08
(PID.TID 0000.0001) %MON RA_min                       =   6.4709633770803E+07
(PID.TID 0000.0001) %MON RA_mean                      =   9.5851678311587E+07
(PID.TID 0000.0001) %MON RA_sd                        =   1.8031873527992E+07
(PID.TID 0000.0001) %MON RAW_max                      =   1.2652134272379E+08
(PID.TID 0000.0001) %MON RAW_min                      =   6.4709633770803E+07
(PID.TID 0000.0001) %MON RAW_mean                     =   9.5851678311587E+07
(PID.TID 0000.0001) %MON RAW_sd                       =   1.8031873527992E+07
(PID.TID 0000.0001) %MON RAS_max                      =   1.2621711802744E+08
(PID.TID 0000.0001) %MON RAS_min                      =   6.4390979194019E+07
(PID.TID 0000.0001) %MON RAS_mean                     =   9.5539469354603E+07
(PID.TID 0000.0001) %MON RAS_sd                       =   1.8036080760153E+07
(PID.TID 0000.0001) %MON RAZ_max                      =   1.2621711802744E+08
(PID.TID 0000.0001) %MON RAZ_min                      =   6.4390979194019E+07
(PID.TID 0000.0001) %MON RAZ_mean                     =   9.5539469354603E+07
(PID.TID 0000.0001) %MON RAZ_sd                       =   1.8036080760153E+07
(PID.TID 0000.0001) %MON AngleCS_max                  =   1.0000000000000E+00
(PID.TID 0000.0001) %MON AngleCS_min                  =   1.0000000000000E+00
(PID.TID 0000.0001) %MON AngleCS_mean                 =   1.0000000000000E+00
(PID.TID 0000.0001) %MON AngleCS_sd                   =   0.0000000000000E+00
(PID.TID 0000.0001) %MON AngleSN_max                  =   0.0000000000000E+00
(PID.TID 0000.0001) %MON AngleSN_min                  =   0.0000000000000E+00
(PID.TID 0000.0001) %MON AngleSN_mean                 =   0.0000000000000E+00
(PID.TID 0000.0001) %MON AngleSN_sd                   =   0.0000000000000E+00
(PID.TID 0000.0001)  MDS_READ_FIELD: opening global file: bathy.box
(PID.TID 0000.0001)  MDS_READ_FIELD: opening global file: icetopo.exp1
(PID.TID 0000.0001) GAD_INIT_FIXED: GAD_OlMinSize=  1  0  1
(PID.TID 0000.0001) 
(PID.TID 0000.0001) // ===================================
(PID.TID 0000.0001) // GAD parameters :
(PID.TID 0000.0001) // ===================================
(PID.TID 0000.0001) tempAdvScheme =   /* Temp. Horiz.Advection scheme selector */
(PID.TID 0000.0001)                       2
(PID.TID 0000.0001)     ;
(PID.TID 0000.0001) tempVertAdvScheme =   /* Temp. Vert. Advection scheme selector */
(PID.TID 0000.0001)                       2
(PID.TID 0000.0001)     ;
(PID.TID 0000.0001) tempMultiDimAdvec =   /* use Muti-Dim Advec method for Temp */
(PID.TID 0000.0001)                   F
(PID.TID 0000.0001)     ;
(PID.TID 0000.0001) tempSOM_Advection = /* use 2nd Order Moment Advection for Temp */
(PID.TID 0000.0001)                   F
(PID.TID 0000.0001)     ;
(PID.TID 0000.0001) AdamsBashforthGt = /* apply Adams-Bashforth extrapolation on Gt */
(PID.TID 0000.0001)                   T
(PID.TID 0000.0001)     ;
(PID.TID 0000.0001) AdamsBashforth_T = /* apply Adams-Bashforth extrapolation on Temp */
(PID.TID 0000.0001)                   F
(PID.TID 0000.0001)     ;
(PID.TID 0000.0001) saltAdvScheme =   /* Salt. Horiz.advection scheme selector */
(PID.TID 0000.0001)                       2
(PID.TID 0000.0001)     ;
(PID.TID 0000.0001) saltVertAdvScheme =   /* Salt. Vert. Advection scheme selector */
(PID.TID 0000.0001)                       2
(PID.TID 0000.0001)     ;
(PID.TID 0000.0001) saltMultiDimAdvec =   /* use Muti-Dim Advec method for Salt */
(PID.TID 0000.0001)                   F
(PID.TID 0000.0001)     ;
(PID.TID 0000.0001) saltSOM_Advection = /* use 2nd Order Moment Advection for Salt */
(PID.TID 0000.0001)                   F
(PID.TID 0000.0001)     ;
(PID.TID 0000.0001) AdamsBashforthGs = /* apply Adams-Bashforth extrapolation on Gs */
(PID.TID 0000.0001)                   T
(PID.TID 0000.0001)     ;
(PID.TID 0000.0001) AdamsBashforth_S = /* apply Adams-Bashforth extrapolation on Salt */
(PID.TID 0000.0001)                   F
(PID.TID 0000.0001)     ;
(PID.TID 0000.0001) // ===================================
(PID.TID 0000.0001)  MDS_READ_FIELD: opening global file: iceShelf_Mass.bin
(PID.TID 0000.0001) ------------------------------------------------------------
(PID.TID 0000.0001) DIAGNOSTICS_SET_LEVELS: done
(PID.TID 0000.0001)  Total Nb of available Diagnostics: ndiagt=   208
(PID.TID 0000.0001)  write list of available Diagnostics to file: available_diagnostics.log
(PID.TID 0000.0001) SETDIAG: Allocate  1 x  1 Levels for Diagnostic #    23 ETAN
(PID.TID 0000.0001) SETDIAG: Allocate  1 x  1 Levels for Diagnostic #    24 ETANSQ
(PID.TID 0000.0001) SETDIAG: Allocate  1 x  1 Levels for Diagnostic #    25 DETADT2
(PID.TID 0000.0001) SETDIAG: Allocate  1 x  1 Levels for Diagnostic #   207 SHIuStar
(PID.TID 0000.0001) SETDIAG: Allocate  1 x  1 Levels for Diagnostic #   205 SHIgammT
(PID.TID 0000.0001) SETDIAG: Allocate  1 x  1 Levels for Diagnostic #   206 SHIgammS
(PID.TID 0000.0001) SETDIAG: Allocate  1 x  1 Levels for Diagnostic #   199 SHIfwFlx
(PID.TID 0000.0001) SETDIAG: Allocate  1 x  1 Levels for Diagnostic #   200 SHIhtFlx
(PID.TID 0000.0001) SETDIAG: Allocate  1 x  1 Levels for Diagnostic #   203 SHIForcT
(PID.TID 0000.0001) SETDIAG: Allocate  1 x  1 Levels for Diagnostic #   204 SHIForcS
(PID.TID 0000.0001) SETDIAG: Allocate  1 x  1 Levels for Diagnostic #    94 TFLUX
(PID.TID 0000.0001) SETDIAG: Allocate  1 x  1 Levels for Diagnostic #    95 SFLUX
(PID.TID 0000.0001) SETDIAG: Allocate  1 x  1 Levels for Diagnostic #   201 SHI_TauX
(PID.TID 0000.0001) SETDIAG: Allocate  1 x  1 Levels for Diagnostic #   202 SHI_TauY
(PID.TID 0000.0001) SETDIAG: Allocate 30 x  1 Levels for Diagnostic #    30 UVEL
(PID.TID 0000.0001) SETDIAG: Allocate 30 x  1 Levels for Diagnostic #    31 VVEL
(PID.TID 0000.0001) SETDIAG: Allocate 30 x  1 Levels for Diagnostic #    32 WVEL
(PID.TID 0000.0001) SETDIAG: Allocate 30 x  1 Levels for Diagnostic #    71 PHIHYD
(PID.TID 0000.0001) SETDIAG: Allocate 30 x  1 Levels for Diagnostic #    46 VVELMASS
(PID.TID 0000.0001) SETDIAG: Allocate 30 x  1 Levels for Diagnostic #    45 UVELMASS
(PID.TID 0000.0001) SETDIAG: Allocate 30 x  1 Levels for Diagnostic #    38 WVELSQ
(PID.TID 0000.0001) SETDIAG: Allocate 30 x  1 Levels for Diagnostic #    26 THETA
(PID.TID 0000.0001) SETDIAG: Allocate 30 x  1 Levels for Diagnostic #    27 SALT
(PID.TID 0000.0001)   space allocated for all diagnostics:     284 levels
(PID.TID 0000.0001)   set mate pointer for diag #   201  SHI_TauX , Parms: UU      L1 , mate:   202
(PID.TID 0000.0001)   set mate pointer for diag #   202  SHI_TauY , Parms: VV      L1 , mate:   201
(PID.TID 0000.0001)   set mate pointer for diag #    30  UVEL     , Parms: UUR     MR , mate:    31
(PID.TID 0000.0001)   set mate pointer for diag #    31  VVEL     , Parms: VVR     MR , mate:    30
(PID.TID 0000.0001)   set mate pointer for diag #    46  VVELMASS , Parms: VVr     MR , mate:    45
(PID.TID 0000.0001)   set mate pointer for diag #    45  UVELMASS , Parms: UUr     MR , mate:    46
(PID.TID 0000.0001) DIAGNOSTICS_SET_POINTERS: Set levels for Outp.Stream: surfDiag
(PID.TID 0000.0001)  Levels:       1.
(PID.TID 0000.0001) DIAGNOSTICS_SET_POINTERS: Set levels for Outp.Stream: dynDiag
(PID.TID 0000.0001)  Levels:       1.   2.   3.   4.   5.   6.   7.   8.   9.  10.  11.  12.  13.  14.  15.  16.  17.  18.  19.  20.
(PID.TID 0000.0001)  Levels:      21.  22.  23.  24.  25.  26.  27.  28.  29.  30.
(PID.TID 0000.0001) DIAGNOSTICS_SET_POINTERS: done
(PID.TID 0000.0001) ------------------------------------------------------------
(PID.TID 0000.0001) DIAGSTATS_SET_REGIONS: define   0 regions:
(PID.TID 0000.0001) ------------------------------------------------------------
(PID.TID 0000.0001) SETDIAG: Allocate  1 Levels for Stats-Diag #    23 ETAN
(PID.TID 0000.0001) SETDIAG: Allocate 30 Levels for Stats-Diag #    30 UVEL
(PID.TID 0000.0001) SETDIAG: Allocate 30 Levels for Stats-Diag #    31 VVEL
(PID.TID 0000.0001) SETDIAG: Allocate 30 Levels for Stats-Diag #    32 WVEL
(PID.TID 0000.0001) SETDIAG: Allocate 30 Levels for Stats-Diag #    26 THETA
(PID.TID 0000.0001) SETDIAG: Allocate 30 Levels for Stats-Diag #    27 SALT
(PID.TID 0000.0001)   space allocated for all stats-diags:     151 levels
(PID.TID 0000.0001) DIAGSTATS_SET_POINTERS: done
(PID.TID 0000.0001) ------------------------------------------------------------
(PID.TID 0000.0001) %MON fCori_max                    =  -1.3709057042516E-04
(PID.TID 0000.0001) %MON fCori_min                    =  -1.4360464034757E-04
(PID.TID 0000.0001) %MON fCori_mean                   =  -1.4069429304698E-04
(PID.TID 0000.0001) %MON fCori_sd                     =   1.9069739624987E-06
(PID.TID 0000.0001) %MON fCoriG_max                   =  -1.3713394327439E-04
(PID.TID 0000.0001) %MON fCoriG_min                   =  -1.4362679550910E-04
(PID.TID 0000.0001) %MON fCoriG_mean                  =  -1.4072713798624E-04
(PID.TID 0000.0001) %MON fCoriG_sd                    =   1.9008093726821E-06
(PID.TID 0000.0001) %MON fCoriCos_max                 =   4.9761447480159E-05
(PID.TID 0000.0001) %MON fCoriCos_min                 =   2.5450607565678E-05
(PID.TID 0000.0001) %MON fCoriCos_mean                =   3.7698922201606E-05
(PID.TID 0000.0001) %MON fCoriCos_sd                  =   7.0920218535055E-06
(PID.TID 0000.0001) INI_CG2D: CG2D normalisation factor =  1.0404366262810520E-03
(PID.TID 0000.0001) 
(PID.TID 0000.0001) // =======================================================
(PID.TID 0000.0001) // Model configuration
(PID.TID 0000.0001) // =======================================================
(PID.TID 0000.0001) //
(PID.TID 0000.0001) // "Physical" paramters ( PARM01 in namelist )
(PID.TID 0000.0001) //
(PID.TID 0000.0001) buoyancyRelation = /* Type of relation to get Buoyancy */
(PID.TID 0000.0001)               'OCEANIC'
(PID.TID 0000.0001)     ;
(PID.TID 0000.0001) fluidIsAir   =  /* fluid major constituent is Air */
(PID.TID 0000.0001)                   F
(PID.TID 0000.0001)     ;
(PID.TID 0000.0001) fluidIsWater =  /* fluid major constituent is Water */
(PID.TID 0000.0001)                   T
(PID.TID 0000.0001)     ;
(PID.TID 0000.0001) usingPCoords =  /* use p (or p*) vertical coordinate */
(PID.TID 0000.0001)                   F
(PID.TID 0000.0001)     ;
(PID.TID 0000.0001) usingZCoords =  /* use z (or z*) vertical coordinate */
(PID.TID 0000.0001)                   T
(PID.TID 0000.0001)     ;
(PID.TID 0000.0001) tRef =   /* Reference temperature profile ( oC or K ) */
(PID.TID 0000.0001)    30 @ -1.900000000000000E+00              /* K =  1: 30 */
(PID.TID 0000.0001)     ;
(PID.TID 0000.0001) sRef =   /* Reference salinity profile ( g/kg ) */
(PID.TID 0000.0001)    30 @  3.440000000000000E+01              /* K =  1: 30 */
(PID.TID 0000.0001)     ;
(PID.TID 0000.0001) useStrainTensionVisc= /* Use StrainTension Form of Viscous Operator */
(PID.TID 0000.0001)                   F
(PID.TID 0000.0001)     ;
(PID.TID 0000.0001) useVariableVisc = /* Use variable horizontal viscosity */
(PID.TID 0000.0001)                   F
(PID.TID 0000.0001)     ;
(PID.TID 0000.0001) useHarmonicVisc = /* Use harmonic horizontal viscosity */
(PID.TID 0000.0001)                   T
(PID.TID 0000.0001)     ;
(PID.TID 0000.0001) useBiharmonicVisc= /* Use biharmonic horiz.  viscosity */
(PID.TID 0000.0001)                   F
(PID.TID 0000.0001)     ;
(PID.TID 0000.0001) useSmag3D = /* Use isotropic 3-D Smagorinsky viscosity */
(PID.TID 0000.0001)                   F
(PID.TID 0000.0001)     ;
(PID.TID 0000.0001) viscAh  =   /* Lateral harmonic viscosity ( m^2/s ) */
(PID.TID 0000.0001)                 1.000000000000000E+03
(PID.TID 0000.0001)     ;
(PID.TID 0000.0001) viscA4  =   /* Lateral biharmonic viscosity ( m^4/s ) */
(PID.TID 0000.0001)                 0.000000000000000E+00
(PID.TID 0000.0001)     ;
(PID.TID 0000.0001) no_slip_sides =  /* Viscous BCs: No-slip sides */
(PID.TID 0000.0001)                   F
(PID.TID 0000.0001)     ;
(PID.TID 0000.0001) sideDragFactor = /* side-drag scaling factor (non-dim) */
(PID.TID 0000.0001)                 2.000000000000000E+00
(PID.TID 0000.0001)     ;
(PID.TID 0000.0001) viscArNr = /* vertical profile of vertical viscosity ( m^2/s )*/
(PID.TID 0000.0001)    30 @  1.000000000000000E-03              /* K =  1: 30 */
(PID.TID 0000.0001)     ;
(PID.TID 0000.0001) no_slip_bottom =  /* Viscous BCs: No-slip bottom */
(PID.TID 0000.0001)                   F
(PID.TID 0000.0001)     ;
(PID.TID 0000.0001) bottomVisc_pCell = /* Partial-cell in bottom Visc. BC */
(PID.TID 0000.0001)                   F
(PID.TID 0000.0001)     ;
(PID.TID 0000.0001) bottomDragLinear = /* linear bottom-drag coefficient ( m/s ) */
(PID.TID 0000.0001)                 0.000000000000000E+00
(PID.TID 0000.0001)     ;
(PID.TID 0000.0001) bottomDragQuadratic = /* quadratic bottom-drag coefficient (-) */
(PID.TID 0000.0001)                 2.500000000000000E-03
(PID.TID 0000.0001)     ;
(PID.TID 0000.0001) selectBotDragQuadr = /* select quadratic bottom drag options */
(PID.TID 0000.0001)                       0
(PID.TID 0000.0001)     ;
(PID.TID 0000.0001) diffKhT =   /* Laplacian diffusion of heat laterally ( m^2/s ) */
(PID.TID 0000.0001)                 1.000000000000000E+02
(PID.TID 0000.0001)     ;
(PID.TID 0000.0001) diffK4T =   /* Biharmonic diffusion of heat laterally ( m^4/s ) */
(PID.TID 0000.0001)                 0.000000000000000E+00
(PID.TID 0000.0001)     ;
(PID.TID 0000.0001) diffKhS =   /* Laplacian diffusion of salt laterally ( m^2/s ) */
(PID.TID 0000.0001)                 1.000000000000000E+02
(PID.TID 0000.0001)     ;
(PID.TID 0000.0001) diffK4S =   /* Biharmonic diffusion of salt laterally ( m^4/s ) */
(PID.TID 0000.0001)                 0.000000000000000E+00
(PID.TID 0000.0001)     ;
(PID.TID 0000.0001) diffKrNrT = /* vertical profile of vertical diffusion of Temp ( m^2/s )*/
(PID.TID 0000.0001)    30 @  5.000000000000000E-05              /* K =  1: 30 */
(PID.TID 0000.0001)     ;
(PID.TID 0000.0001) diffKrNrS = /* vertical profile of vertical diffusion of Salt ( m^2/s )*/
(PID.TID 0000.0001)    30 @  5.000000000000000E-05              /* K =  1: 30 */
(PID.TID 0000.0001)     ;
(PID.TID 0000.0001) diffKrBL79surf = /* Surface diffusion for Bryan and Lewis 79 ( m^2/s ) */
(PID.TID 0000.0001)                 0.000000000000000E+00
(PID.TID 0000.0001)     ;
(PID.TID 0000.0001) diffKrBL79deep = /* Deep diffusion for Bryan and Lewis 1979 ( m^2/s ) */
(PID.TID 0000.0001)                 0.000000000000000E+00
(PID.TID 0000.0001)     ;
(PID.TID 0000.0001) diffKrBL79scl = /* Depth scale for Bryan and Lewis 1979 ( m ) */
(PID.TID 0000.0001)                 2.000000000000000E+02
(PID.TID 0000.0001)     ;
(PID.TID 0000.0001) diffKrBL79Ho = /* Turning depth for Bryan and Lewis 1979 ( m ) */
(PID.TID 0000.0001)                -2.000000000000000E+03
(PID.TID 0000.0001)     ;
(PID.TID 0000.0001) ivdc_kappa = /* Implicit Vertical Diffusivity for Convection ( m^2/s) */
(PID.TID 0000.0001)                 1.000000000000000E+00
(PID.TID 0000.0001)     ;
(PID.TID 0000.0001) hMixCriteria=  /* Criteria for mixed-layer diagnostic */
(PID.TID 0000.0001)                -8.000000000000000E-01
(PID.TID 0000.0001)     ;
(PID.TID 0000.0001) dRhoSmall =  /* Parameter for mixed-layer diagnostic */
(PID.TID 0000.0001)                 1.000000000000000E-06
(PID.TID 0000.0001)     ;
(PID.TID 0000.0001) hMixSmooth=  /* Smoothing parameter for mixed-layer diagnostic */
(PID.TID 0000.0001)                 0.000000000000000E+00
(PID.TID 0000.0001)     ;
(PID.TID 0000.0001) eosType =  /* Type of Equation of State */
(PID.TID 0000.0001)               'JMD95Z'
(PID.TID 0000.0001)     ;
(PID.TID 0000.0001) eosRefP0 = /* Reference atmospheric pressure for EOS ( Pa ) */
(PID.TID 0000.0001)                 1.013250000000000E+05
(PID.TID 0000.0001)     ;
(PID.TID 0000.0001) selectP_inEOS_Zc = /* select pressure to use in EOS (0,1,2,3) */
(PID.TID 0000.0001)                       0
(PID.TID 0000.0001)     0= -g*rhoConst*z ; 1= pRef (from tRef,sRef); 2= Hyd P ; 3= Hyd+NH P
(PID.TID 0000.0001)     ;
(PID.TID 0000.0001) surf_pRef = /* Surface reference pressure ( Pa ) */
(PID.TID 0000.0001)                 1.013250000000000E+05
(PID.TID 0000.0001)     ;
(PID.TID 0000.0001) HeatCapacity_Cp =  /* Specific heat capacity ( J/kg/K ) */
(PID.TID 0000.0001)                 3.974000000000000E+03
(PID.TID 0000.0001)     ;
(PID.TID 0000.0001) celsius2K = /* 0 degree Celsius converted to Kelvin ( K ) */
(PID.TID 0000.0001)                 2.731500000000000E+02
(PID.TID 0000.0001)     ;
(PID.TID 0000.0001) rhoConst  = /* Reference density (Boussinesq)  ( kg/m^3 ) */
(PID.TID 0000.0001)                 1.030000000000000E+03
(PID.TID 0000.0001)     ;
(PID.TID 0000.0001) rhoFacC = /* normalized Reference density @ cell-Center (-) */
(PID.TID 0000.0001)    30 @  1.000000000000000E+00              /* K =  1: 30 */
(PID.TID 0000.0001)     ;
(PID.TID 0000.0001) rhoFacF = /* normalized Reference density @ W-Interface (-) */
(PID.TID 0000.0001)    31 @  1.000000000000000E+00              /* K =  1: 31 */
(PID.TID 0000.0001)     ;
(PID.TID 0000.0001) rhoConstFresh = /* Fresh-water reference density ( kg/m^3 ) */
(PID.TID 0000.0001)                 1.030000000000000E+03
(PID.TID 0000.0001)     ;
(PID.TID 0000.0001) gravity =   /* Gravitational acceleration ( m/s^2 ) */
(PID.TID 0000.0001)                 9.810000000000000E+00
(PID.TID 0000.0001)     ;
(PID.TID 0000.0001) gBaro =   /* Barotropic gravity ( m/s^2 ) */
(PID.TID 0000.0001)                 9.810000000000000E+00
(PID.TID 0000.0001)     ;
(PID.TID 0000.0001) gravFacC = /* gravity factor (vs surf.) @ cell-Center (-) */
(PID.TID 0000.0001)    30 @  1.000000000000000E+00              /* K =  1: 30 */
(PID.TID 0000.0001)     ;
(PID.TID 0000.0001) gravFacF = /* gravity factor (vs surf.) @ W-Interface (-) */
(PID.TID 0000.0001)    31 @  1.000000000000000E+00              /* K =  1: 31 */
(PID.TID 0000.0001)     ;
(PID.TID 0000.0001) rotationPeriod =   /* Rotation Period ( s ) */
(PID.TID 0000.0001)                 8.616400000000000E+04
(PID.TID 0000.0001)     ;
(PID.TID 0000.0001) omega =   /* Angular velocity ( rad/s ) */
(PID.TID 0000.0001)                 7.292123516990375E-05
(PID.TID 0000.0001)     ;
(PID.TID 0000.0001) f0 =   /* Reference coriolis parameter ( 1/s ) */
(PID.TID 0000.0001)                 1.000000000000000E-04
(PID.TID 0000.0001)     ;
(PID.TID 0000.0001) beta =   /* Beta ( 1/(m.s) ) */
(PID.TID 0000.0001)                 9.999999999999999E-12
(PID.TID 0000.0001)     ;
(PID.TID 0000.0001) fPrime =   /* Second coriolis parameter ( 1/s ) */
(PID.TID 0000.0001)                 0.000000000000000E+00
(PID.TID 0000.0001)     ;
(PID.TID 0000.0001) rigidLid =   /* Rigid lid on/off flag */
(PID.TID 0000.0001)                   F
(PID.TID 0000.0001)     ;
(PID.TID 0000.0001) implicitFreeSurface =   /* Implicit free surface on/off flag */
(PID.TID 0000.0001)                   T
(PID.TID 0000.0001)     ;
(PID.TID 0000.0001) freeSurfFac =   /* Implicit free surface factor */
(PID.TID 0000.0001)                 1.000000000000000E+00
(PID.TID 0000.0001)     ;
(PID.TID 0000.0001) implicSurfPress =  /* Surface Pressure implicit factor (0-1)*/
(PID.TID 0000.0001)                 1.000000000000000E+00
(PID.TID 0000.0001)     ;
(PID.TID 0000.0001) implicDiv2DFlow =  /* Barot. Flow Div. implicit factor (0-1)*/
(PID.TID 0000.0001)                 1.000000000000000E+00
(PID.TID 0000.0001)     ;
(PID.TID 0000.0001) uniformLin_PhiSurf = /* use uniform Bo_surf on/off flag*/
(PID.TID 0000.0001)                   T
(PID.TID 0000.0001)     ;
(PID.TID 0000.0001) uniformFreeSurfLev = /* free-surface level-index is uniform */
(PID.TID 0000.0001)                   F
(PID.TID 0000.0001)     ;
(PID.TID 0000.0001) hFacMin =   /* minimum partial cell factor (hFac) */
(PID.TID 0000.0001)                 5.000000000000000E-02
(PID.TID 0000.0001)     ;
(PID.TID 0000.0001) hFacMinDr = /* minimum partial cell thickness ( m) */
(PID.TID 0000.0001)                 0.000000000000000E+00
(PID.TID 0000.0001)     ;
(PID.TID 0000.0001) exactConserv =  /* Exact Volume Conservation on/off flag*/
(PID.TID 0000.0001)                   T
(PID.TID 0000.0001)     ;
(PID.TID 0000.0001) linFSConserveTr = /* Tracer correction for Lin Free Surface on/off flag*/
(PID.TID 0000.0001)                   F
(PID.TID 0000.0001)     ;
(PID.TID 0000.0001) nonlinFreeSurf = /* Non-linear Free Surf. options (-1,0,1,2,3)*/
(PID.TID 0000.0001)                       4
(PID.TID 0000.0001)      -1,0= Off ; 1,2,3= On, 2=+rescale gU,gV, 3=+update cg2d solv.
(PID.TID 0000.0001)     ;
(PID.TID 0000.0001) hFacInf =   /* lower threshold for hFac (nonlinFreeSurf only)*/
(PID.TID 0000.0001)                 2.000000000000000E-02
(PID.TID 0000.0001)     ;
(PID.TID 0000.0001) hFacSup =   /* upper threshold for hFac (nonlinFreeSurf only)*/
(PID.TID 0000.0001)                 2.000000000000000E+00
(PID.TID 0000.0001)     ;
(PID.TID 0000.0001) select_rStar = /* r* Vertical coord. options (=0 r coord.; >0 uses r*)*/
(PID.TID 0000.0001)                       0
(PID.TID 0000.0001)     ;
(PID.TID 0000.0001) useRealFreshWaterFlux = /* Real Fresh Water Flux on/off flag*/
(PID.TID 0000.0001)                   F
(PID.TID 0000.0001)     ;
(PID.TID 0000.0001) temp_EvPrRn = /* Temp. of Evap/Prec/R (UNSET=use local T)(oC)*/
(PID.TID 0000.0001)                 1.234567000000000E+05
(PID.TID 0000.0001)     ;
(PID.TID 0000.0001) salt_EvPrRn = /* Salin. of Evap/Prec/R (UNSET=use local S)(g/kg)*/
(PID.TID 0000.0001)                 0.000000000000000E+00
(PID.TID 0000.0001)     ;
(PID.TID 0000.0001) selectAddFluid = /* option for mass source/sink of fluid (=0: off) */
(PID.TID 0000.0001)                       0
(PID.TID 0000.0001)     ;
(PID.TID 0000.0001) temp_addMass = /* Temp. of addMass array (UNSET=use local T)(oC)*/
(PID.TID 0000.0001)                 1.234567000000000E+05
(PID.TID 0000.0001)     ;
(PID.TID 0000.0001) salt_addMass = /* Salin. of addMass array (UNSET=use local S)(g/kg)*/
(PID.TID 0000.0001)                 0.000000000000000E+00
(PID.TID 0000.0001)     ;
(PID.TID 0000.0001) convertFW2Salt = /* convert F.W. Flux to Salt Flux (-1=use local S)(g/kg)*/
(PID.TID 0000.0001)                 3.340000000000000E+01
(PID.TID 0000.0001)     ;
(PID.TID 0000.0001) use3Dsolver = /* use 3-D pressure solver on/off flag */
(PID.TID 0000.0001)                   F
(PID.TID 0000.0001)     ;
(PID.TID 0000.0001) nonHydrostatic =  /* Non-Hydrostatic on/off flag */
(PID.TID 0000.0001)                   F
(PID.TID 0000.0001)     ;
(PID.TID 0000.0001) nh_Am2 = /* Non-Hydrostatic terms scaling factor */
(PID.TID 0000.0001)                 1.000000000000000E+00
(PID.TID 0000.0001)     ;
(PID.TID 0000.0001) implicitNHPress = /* Non-Hyd Pressure implicit factor (0-1)*/
(PID.TID 0000.0001)                 1.000000000000000E+00
(PID.TID 0000.0001)     ;
(PID.TID 0000.0001) selectNHfreeSurf = /* Non-Hyd (free-)Surface option */
(PID.TID 0000.0001)                       0
(PID.TID 0000.0001)     ;
(PID.TID 0000.0001) quasiHydrostatic = /* Quasi-Hydrostatic on/off flag */
(PID.TID 0000.0001)                   F
(PID.TID 0000.0001)     ;
(PID.TID 0000.0001) calc_wVelocity = /* vertical velocity calculation on/off flag */
(PID.TID 0000.0001)                   T
(PID.TID 0000.0001)     ;
(PID.TID 0000.0001) momStepping =  /* Momentum equation on/off flag */
(PID.TID 0000.0001)                   T
(PID.TID 0000.0001)     ;
(PID.TID 0000.0001) vectorInvariantMomentum= /* Vector-Invariant Momentum on/off */
(PID.TID 0000.0001)                   F
(PID.TID 0000.0001)     ;
(PID.TID 0000.0001) momAdvection =  /* Momentum advection on/off flag */
(PID.TID 0000.0001)                   T
(PID.TID 0000.0001)     ;
(PID.TID 0000.0001) momViscosity =  /* Momentum viscosity on/off flag */
(PID.TID 0000.0001)                   T
(PID.TID 0000.0001)     ;
(PID.TID 0000.0001) momImplVertAdv= /* Momentum implicit vert. advection on/off*/
(PID.TID 0000.0001)                   F
(PID.TID 0000.0001)     ;
(PID.TID 0000.0001) implicitViscosity = /* Implicit viscosity on/off flag */
(PID.TID 0000.0001)                   T
(PID.TID 0000.0001)     ;
(PID.TID 0000.0001) selectImplicitDrag= /* Implicit bot Drag options (0,1,2)*/
(PID.TID 0000.0001)                       0
(PID.TID 0000.0001)     0= Expl. ; 1= Impl. on provis. Vel ; 2= Fully Impl (with surf.P)
(PID.TID 0000.0001)     ;
(PID.TID 0000.0001) metricTerms =  /* metric-Terms on/off flag */
(PID.TID 0000.0001)                   T
(PID.TID 0000.0001)     ;
(PID.TID 0000.0001) useNHMTerms = /* Non-Hydrostatic Metric-Terms on/off */
(PID.TID 0000.0001)                   F
(PID.TID 0000.0001)     ;
(PID.TID 0000.0001) selectCoriMap = /* Coriolis Map options (0,1,2,3)*/
(PID.TID 0000.0001)                       2
(PID.TID 0000.0001)     0= f-Plane ; 1= Beta-Plane ; 2= Spherical ; 3= read from file
(PID.TID 0000.0001)     ;
(PID.TID 0000.0001) use3dCoriolis = /* 3-D Coriolis on/off flag */
(PID.TID 0000.0001)                   F
(PID.TID 0000.0001)     ;
(PID.TID 0000.0001) useCoriolis =  /* Coriolis on/off flag */
(PID.TID 0000.0001)                   T
(PID.TID 0000.0001)     ;
(PID.TID 0000.0001) useCDscheme =  /* CD scheme on/off flag */
(PID.TID 0000.0001)                   F
(PID.TID 0000.0001)     ;
(PID.TID 0000.0001) selectCoriScheme= /* Scheme selector for Coriolis-Term */
(PID.TID 0000.0001)                       1
(PID.TID 0000.0001)    = 0 : original discretization (simple averaging, no hFac)
(PID.TID 0000.0001)    = 1 : Wet-point averaging (Jamar & Ozer 1986)
(PID.TID 0000.0001)    = 2 : energy conserving scheme (no hFac weight)
(PID.TID 0000.0001)    = 3 : energy conserving scheme using Wet-point averaging
(PID.TID 0000.0001)     ;
(PID.TID 0000.0001) momForcing =  /* Momentum forcing on/off flag */
(PID.TID 0000.0001)                   T
(PID.TID 0000.0001)     ;
(PID.TID 0000.0001) momTidalForcing = /* Momentum Tidal forcing on/off flag */
(PID.TID 0000.0001)                   T
(PID.TID 0000.0001)     ;
(PID.TID 0000.0001) momPressureForcing =  /* Momentum pressure term on/off flag */
(PID.TID 0000.0001)                   T
(PID.TID 0000.0001)     ;
(PID.TID 0000.0001) implicitIntGravWave= /* Implicit Internal Gravity Wave flag */
(PID.TID 0000.0001)                   F
(PID.TID 0000.0001)     ;
(PID.TID 0000.0001) staggerTimeStep =    /* Stagger time stepping on/off flag */
(PID.TID 0000.0001)                   F
(PID.TID 0000.0001)     ;
(PID.TID 0000.0001) doResetHFactors = /* reset thickness factors @ each time-step */
(PID.TID 0000.0001)                   F
(PID.TID 0000.0001)     ;
(PID.TID 0000.0001) multiDimAdvection =  /* enable/disable Multi-Dim Advection */
(PID.TID 0000.0001)                   T
(PID.TID 0000.0001)     ;
(PID.TID 0000.0001) useMultiDimAdvec =   /* Multi-Dim Advection is/is-not used */
(PID.TID 0000.0001)                   F
(PID.TID 0000.0001)     ;
(PID.TID 0000.0001) implicitDiffusion = /* Implicit Diffusion on/off flag */
(PID.TID 0000.0001)                   T
(PID.TID 0000.0001)     ;
(PID.TID 0000.0001) tempStepping =  /* Temperature equation on/off flag */
(PID.TID 0000.0001)                   T
(PID.TID 0000.0001)     ;
(PID.TID 0000.0001) tempAdvection = /* Temperature advection on/off flag */
(PID.TID 0000.0001)                   T
(PID.TID 0000.0001)     ;
(PID.TID 0000.0001) tempImplVertAdv = /* Temp. implicit vert. advection on/off */
(PID.TID 0000.0001)                   F
(PID.TID 0000.0001)     ;
(PID.TID 0000.0001) tempForcing  =  /* Temperature forcing on/off flag */
(PID.TID 0000.0001)                   T
(PID.TID 0000.0001)     ;
(PID.TID 0000.0001) doThetaClimRelax = /* apply SST relaxation on/off flag */
(PID.TID 0000.0001)                   F
(PID.TID 0000.0001)     ;
(PID.TID 0000.0001) tempIsActiveTr = /* Temp. is a dynamically Active Tracer */
(PID.TID 0000.0001)                   T
(PID.TID 0000.0001)     ;
(PID.TID 0000.0001) saltStepping =  /* Salinity equation on/off flag */
(PID.TID 0000.0001)                   T
(PID.TID 0000.0001)     ;
(PID.TID 0000.0001) saltAdvection = /* Salinity advection on/off flag */
(PID.TID 0000.0001)                   T
(PID.TID 0000.0001)     ;
(PID.TID 0000.0001) saltImplVertAdv = /* Sali. implicit vert. advection on/off */
(PID.TID 0000.0001)                   F
(PID.TID 0000.0001)     ;
(PID.TID 0000.0001) saltForcing  =  /* Salinity forcing on/off flag */
(PID.TID 0000.0001)                   T
(PID.TID 0000.0001)     ;
(PID.TID 0000.0001) doSaltClimRelax = /* apply SSS relaxation on/off flag */
(PID.TID 0000.0001)                   F
(PID.TID 0000.0001)     ;
(PID.TID 0000.0001) saltIsActiveTr = /* Salt  is a dynamically Active Tracer */
(PID.TID 0000.0001)                   T
(PID.TID 0000.0001)     ;
(PID.TID 0000.0001)  readBinaryPrec = /* Precision used for reading binary files */
(PID.TID 0000.0001)                      64
(PID.TID 0000.0001)     ;
(PID.TID 0000.0001) writeBinaryPrec = /* Precision used for writing binary files */
(PID.TID 0000.0001)                      32
(PID.TID 0000.0001)     ;
(PID.TID 0000.0001)  rwSuffixType =   /* select format of mds file suffix */
(PID.TID 0000.0001)                       0
(PID.TID 0000.0001)    = 0 : myIter (I10.10) ;   = 1 : 100*myTime (100th sec) ;
(PID.TID 0000.0001)    = 2 : myTime (seconds);   = 3 : myTime/360 (10th of hr);
(PID.TID 0000.0001)    = 4 : myTime/3600 (hours)
(PID.TID 0000.0001)     ;
(PID.TID 0000.0001)  globalFiles = /* write "global" (=not per tile) files */
(PID.TID 0000.0001)                   F
(PID.TID 0000.0001)     ;
(PID.TID 0000.0001)  useSingleCpuIO = /* only master MPI process does I/O */
(PID.TID 0000.0001)                   F
(PID.TID 0000.0001)     ;
(PID.TID 0000.0001)  useSingleCpuInput = /* only master process reads input */
(PID.TID 0000.0001)                   F
(PID.TID 0000.0001)     ;
(PID.TID 0000.0001) /* debLev[*]  : level of debug & auxiliary message printing */
(PID.TID 0000.0001) debLevZero =  0 ; /* level of disabled aux. msg printing */
(PID.TID 0000.0001)    debLevA =  1 ; /* level of minimum  aux. msg printing */
(PID.TID 0000.0001)    debLevB =  2 ; /* level of low aux. print (report read-file opening)*/
(PID.TID 0000.0001)    debLevC =  3 ; /* level of moderate debug prt (most pkgs debug msg) */
(PID.TID 0000.0001)    debLevD =  4 ; /* level of enhanced debug prt (add DEBUG_STATS prt) */
(PID.TID 0000.0001)    debLevE =  5 ; /* level of extensive debug printing */
(PID.TID 0000.0001) debugLevel =  /* select debug printing level */
(PID.TID 0000.0001)                       2
(PID.TID 0000.0001)     ;
(PID.TID 0000.0001)  plotLevel =  /* select PLOT_FIELD printing level */
(PID.TID 0000.0001)                       0
(PID.TID 0000.0001)     ;
(PID.TID 0000.0001) //
(PID.TID 0000.0001) // Elliptic solver(s) paramters ( PARM02 in namelist )
(PID.TID 0000.0001) //
(PID.TID 0000.0001) cg2dMaxIters =   /* Upper limit on 2d con. grad iterations  */
(PID.TID 0000.0001)                    1000
(PID.TID 0000.0001)     ;
(PID.TID 0000.0001) cg2dChkResFreq =   /* 2d con. grad convergence test frequency */
(PID.TID 0000.0001)                       1
(PID.TID 0000.0001)     ;
(PID.TID 0000.0001) cg2dUseMinResSol= /* use cg2d last-iter(=0) / min-resid.(=1) solution */
(PID.TID 0000.0001)                       0
(PID.TID 0000.0001)     ;
(PID.TID 0000.0001) cg2dTargetResidual =   /* 2d con. grad target residual  */
(PID.TID 0000.0001)                 1.000000000000000E-13
(PID.TID 0000.0001)     ;
(PID.TID 0000.0001) cg2dTargetResWunit =   /* CG2d target residual [W units] */
(PID.TID 0000.0001)                -1.000000000000000E+00
(PID.TID 0000.0001)     ;
(PID.TID 0000.0001) cg2dPreCondFreq =   /* Freq. for updating cg2d preconditioner */
(PID.TID 0000.0001)                       1
(PID.TID 0000.0001)     ;
(PID.TID 0000.0001) useSRCGSolver =  /* use single reduction CG solver(s) */
(PID.TID 0000.0001)                   F
(PID.TID 0000.0001)     ;
(PID.TID 0000.0001) printResidualFreq = /* Freq. for printing CG residual */
(PID.TID 0000.0001)                       0
(PID.TID 0000.0001)     ;
(PID.TID 0000.0001) //
(PID.TID 0000.0001) // Time stepping paramters ( PARM03 in namelist )
(PID.TID 0000.0001) //
(PID.TID 0000.0001) deltaTMom =   /* Momentum equation timestep ( s ) */
(PID.TID 0000.0001)                 1.800000000000000E+03
(PID.TID 0000.0001)     ;
(PID.TID 0000.0001) deltaTFreeSurf = /* FreeSurface equation timestep ( s ) */
(PID.TID 0000.0001)                 1.800000000000000E+03
(PID.TID 0000.0001)     ;
(PID.TID 0000.0001) dTtracerLev =  /* Tracer equation timestep ( s ) */
(PID.TID 0000.0001)    30 @  1.800000000000000E+03              /* K =  1: 30 */
(PID.TID 0000.0001)     ;
(PID.TID 0000.0001) deltaTClock  =   /* Model clock timestep ( s ) */
(PID.TID 0000.0001)                 1.800000000000000E+03
(PID.TID 0000.0001)     ;
(PID.TID 0000.0001) cAdjFreq =   /* Convective adjustment interval ( s ) */
(PID.TID 0000.0001)                 0.000000000000000E+00
(PID.TID 0000.0001)     ;
(PID.TID 0000.0001) momForcingOutAB = /* =1: take Momentum Forcing out of Adams-Bash. stepping */
(PID.TID 0000.0001)                       0
(PID.TID 0000.0001)     ;
(PID.TID 0000.0001) tracForcingOutAB = /* =1: take T,S,pTr Forcing out of Adams-Bash. stepping */
(PID.TID 0000.0001)                       0
(PID.TID 0000.0001)     ;
(PID.TID 0000.0001) momDissip_In_AB = /* put Dissipation Tendency in Adams-Bash. stepping */
(PID.TID 0000.0001)                   F
(PID.TID 0000.0001)     ;
(PID.TID 0000.0001) doAB_onGtGs = /* apply AB on Tendencies (rather than on T,S)*/
(PID.TID 0000.0001)                   T
(PID.TID 0000.0001)     ;
(PID.TID 0000.0001) abEps =   /* Adams-Bashforth-2 stabilizing weight */
(PID.TID 0000.0001)                 1.000000000000000E-01
(PID.TID 0000.0001)     ;
(PID.TID 0000.0001) applyExchUV_early = /* Apply EXCH to U,V earlier in time-step */
(PID.TID 0000.0001)                   F
(PID.TID 0000.0001)     ;
(PID.TID 0000.0001) pickupStrictlyMatch= /* stop if pickup do not strictly match */
(PID.TID 0000.0001)                   T
(PID.TID 0000.0001)     ;
(PID.TID 0000.0001) nIter0   =   /* Run starting timestep number */
(PID.TID 0000.0001)                    8640
(PID.TID 0000.0001)     ;
(PID.TID 0000.0001) nTimeSteps = /* Number of timesteps */
(PID.TID 0000.0001)                      20
(PID.TID 0000.0001)     ;
(PID.TID 0000.0001) nEndIter =   /* Run ending timestep number */
(PID.TID 0000.0001)                    8660
(PID.TID 0000.0001)     ;
(PID.TID 0000.0001) baseTime =   /* Model base time ( s ) */
(PID.TID 0000.0001)                 0.000000000000000E+00
(PID.TID 0000.0001)     ;
(PID.TID 0000.0001) startTime =  /* Run start time ( s ) */
(PID.TID 0000.0001)                 1.555200000000000E+07
(PID.TID 0000.0001)     ;
(PID.TID 0000.0001) endTime  =   /* Integration ending time ( s ) */
(PID.TID 0000.0001)                 1.558800000000000E+07
(PID.TID 0000.0001)     ;
(PID.TID 0000.0001) pChkPtFreq = /* Permanent restart/pickup file interval ( s ) */
(PID.TID 0000.0001)                 0.000000000000000E+00
(PID.TID 0000.0001)     ;
(PID.TID 0000.0001) chkPtFreq  = /* Rolling restart/pickup file interval ( s ) */
(PID.TID 0000.0001)                 0.000000000000000E+00
(PID.TID 0000.0001)     ;
(PID.TID 0000.0001) pickup_write_mdsio =   /* Model IO flag. */
(PID.TID 0000.0001)                   T
(PID.TID 0000.0001)     ;
(PID.TID 0000.0001) pickup_read_mdsio =   /* Model IO flag. */
(PID.TID 0000.0001)                   T
(PID.TID 0000.0001)     ;
(PID.TID 0000.0001) pickup_write_mnc =   /* Model IO flag. */
(PID.TID 0000.0001)                   F
(PID.TID 0000.0001)     ;
(PID.TID 0000.0001) pickup_read_mnc =   /* Model IO flag. */
(PID.TID 0000.0001)                   F
(PID.TID 0000.0001)     ;
(PID.TID 0000.0001) writePickupAtEnd =   /* Model IO flag. */
(PID.TID 0000.0001)                   T
(PID.TID 0000.0001)     ;
(PID.TID 0000.0001) dumpFreq =   /* Model state write out interval ( s ). */
(PID.TID 0000.0001)                 0.000000000000000E+00
(PID.TID 0000.0001)     ;
(PID.TID 0000.0001) dumpInitAndLast= /* write out Initial & Last iter. model state */
(PID.TID 0000.0001)                   T
(PID.TID 0000.0001)     ;
(PID.TID 0000.0001) snapshot_mdsio =   /* Model IO flag. */
(PID.TID 0000.0001)                   F
(PID.TID 0000.0001)     ;
(PID.TID 0000.0001) snapshot_mnc =   /* Model IO flag. */
(PID.TID 0000.0001)                   T
(PID.TID 0000.0001)     ;
(PID.TID 0000.0001) monitorFreq =   /* Monitor output interval ( s ). */
(PID.TID 0000.0001)                 1.000000000000000E+00
(PID.TID 0000.0001)     ;
(PID.TID 0000.0001) monitorSelect = /* select group of variables to monitor */
(PID.TID 0000.0001)                       2
(PID.TID 0000.0001)     ;
(PID.TID 0000.0001) monitor_stdio =   /* Model IO flag. */
(PID.TID 0000.0001)                   T
(PID.TID 0000.0001)     ;
(PID.TID 0000.0001) monitor_mnc =   /* Model IO flag. */
(PID.TID 0000.0001)                   F
(PID.TID 0000.0001)     ;
(PID.TID 0000.0001) externForcingPeriod =   /* forcing period (s) */
(PID.TID 0000.0001)                 0.000000000000000E+00
(PID.TID 0000.0001)     ;
(PID.TID 0000.0001) externForcingCycle =   /* period of the cyle (s). */
(PID.TID 0000.0001)                 0.000000000000000E+00
(PID.TID 0000.0001)     ;
(PID.TID 0000.0001) tauThetaClimRelax =   /* relaxation time scale (s) */
(PID.TID 0000.0001)                 0.000000000000000E+00
(PID.TID 0000.0001)     ;
(PID.TID 0000.0001) tauSaltClimRelax =   /* relaxation time scale (s) */
(PID.TID 0000.0001)                 0.000000000000000E+00
(PID.TID 0000.0001)     ;
(PID.TID 0000.0001) latBandClimRelax =   /* max. Lat. where relaxation */
(PID.TID 0000.0001)                 1.800000000000000E+02
(PID.TID 0000.0001)     ;
(PID.TID 0000.0001) //
(PID.TID 0000.0001) // Gridding paramters ( PARM04 in namelist )
(PID.TID 0000.0001) //
(PID.TID 0000.0001) usingCartesianGrid = /* Cartesian coordinates flag ( True/False ) */
(PID.TID 0000.0001)                   F
(PID.TID 0000.0001)     ;
(PID.TID 0000.0001) usingCylindricalGrid = /* Cylindrical coordinates flag ( True/False ) */
(PID.TID 0000.0001)                   F
(PID.TID 0000.0001)     ;
(PID.TID 0000.0001) usingSphericalPolarGrid = /* Spherical coordinates flag ( True/False ) */
(PID.TID 0000.0001)                   T
(PID.TID 0000.0001)     ;
(PID.TID 0000.0001) usingCurvilinearGrid = /* Curvilinear coordinates flag ( True/False ) */
(PID.TID 0000.0001)                   F
(PID.TID 0000.0001)     ;
(PID.TID 0000.0001) useMin4hFacEdges = /* set hFacW,S as minimum of adjacent hFacC factor */
(PID.TID 0000.0001)                   F
(PID.TID 0000.0001)     ;
(PID.TID 0000.0001) interViscAr_pCell = /* account for partial-cell in interior vert. viscosity */
(PID.TID 0000.0001)                   F
(PID.TID 0000.0001)     ;
(PID.TID 0000.0001) interDiffKr_pCell = /* account for partial-cell in interior vert. diffusion */
(PID.TID 0000.0001)                   F
(PID.TID 0000.0001)     ;
(PID.TID 0000.0001) pCellMix_select = /* option to enhance mixing near surface & bottom */
(PID.TID 0000.0001)                      20
(PID.TID 0000.0001)     ;
(PID.TID 0000.0001) pCellMix_maxFac = /* maximum enhanced mixing factor */
(PID.TID 0000.0001)                 1.000000000000000E+04
(PID.TID 0000.0001)     ;
(PID.TID 0000.0001) pCellMix_delR = /* thickness criteria for too thin partial-cell (  m ) */
(PID.TID 0000.0001)                 2.000000000000000E+01
(PID.TID 0000.0001)     ;
(PID.TID 0000.0001) pCellMix_viscAr = /* vertical viscosity   for too thin partial-cell */
(PID.TID 0000.0001)    30 @  4.000000000000000E-04              /* K =  1: 30 */
(PID.TID 0000.0001)     ;
(PID.TID 0000.0001) pCellMix_diffKr = /* vertical diffusivity for too thin partial-cell */
(PID.TID 0000.0001)    30 @  2.000000000000000E-04              /* K =  1: 30 */
(PID.TID 0000.0001)     ;
(PID.TID 0000.0001) selectSigmaCoord = /* Hybrid-Sigma Vert. Coordinate option */
(PID.TID 0000.0001)                       0
(PID.TID 0000.0001)     ;
(PID.TID 0000.0001) rSigmaBnd = /* r/sigma transition ( units of r ==  m ) */
(PID.TID 0000.0001)                 1.234567000000000E+05
(PID.TID 0000.0001)     ;
(PID.TID 0000.0001) rkSign =   /* index orientation relative to vertical coordinate */
(PID.TID 0000.0001)                -1.000000000000000E+00
(PID.TID 0000.0001)     ;
(PID.TID 0000.0001) gravitySign = /* gravity orientation relative to vertical coordinate */
(PID.TID 0000.0001)                -1.000000000000000E+00
(PID.TID 0000.0001)     ;
(PID.TID 0000.0001) seaLev_Z =  /* reference height of sea-level [m] */
(PID.TID 0000.0001)                 0.000000000000000E+00
(PID.TID 0000.0001)     ;
(PID.TID 0000.0001) top_Pres =  /* reference pressure at the top [Pa] */
(PID.TID 0000.0001)                 0.000000000000000E+00
(PID.TID 0000.0001)     ;
(PID.TID 0000.0001) mass2rUnit = /* convert mass per unit area [kg/m2] to r-units [m] */
(PID.TID 0000.0001)                 9.708737864077669E-04
(PID.TID 0000.0001)     ;
(PID.TID 0000.0001) rUnit2mass = /* convert r-units [m] to mass per unit area [kg/m2] */
(PID.TID 0000.0001)                 1.030000000000000E+03
(PID.TID 0000.0001)     ;
(PID.TID 0000.0001) drC =   /* C spacing ( units of r ) */
(PID.TID 0000.0001)                 1.500000000000000E+01,      /* K =  1 */
(PID.TID 0000.0001)    29 @  3.000000000000000E+01,             /* K =  2: 30 */
(PID.TID 0000.0001)                 1.500000000000000E+01       /* K = 31 */
(PID.TID 0000.0001)     ;
(PID.TID 0000.0001) drF =   /* W spacing ( units of r ) */
(PID.TID 0000.0001)    30 @  3.000000000000000E+01              /* K =  1: 30 */
(PID.TID 0000.0001)     ;
(PID.TID 0000.0001) delX = /* U spacing ( m - cartesian, degrees - spherical ) */
(PID.TID 0000.0001)    50 @  3.000000000000000E-01              /* I =  1: 50 */
(PID.TID 0000.0001)     ;
(PID.TID 0000.0001) delY = /* V spacing ( m - cartesian, degrees - spherical ) */
(PID.TID 0000.0001)   100 @  1.000000000000000E-01              /* J =  1:100 */
(PID.TID 0000.0001)     ;
(PID.TID 0000.0001) xgOrigin = /* X-axis origin of West  edge (cartesian: m, lat-lon: deg) */
(PID.TID 0000.0001)                 0.000000000000000E+00
(PID.TID 0000.0001)     ;
(PID.TID 0000.0001) ygOrigin = /* Y-axis origin of South edge (cartesian: m, lat-lon: deg) */
(PID.TID 0000.0001)                -8.000000000000000E+01
(PID.TID 0000.0001)     ;
(PID.TID 0000.0001) rSphere =  /* Radius ( ignored - cartesian, m - spherical ) */
(PID.TID 0000.0001)                 6.370000000000000E+06
(PID.TID 0000.0001)     ;
(PID.TID 0000.0001) deepAtmosphere = /* Deep/Shallow Atmosphere flag (True/False) */
(PID.TID 0000.0001)                   F
(PID.TID 0000.0001)     ;
(PID.TID 0000.0001) xC =  /* xC(:,1,:,1) : P-point X coord ( deg. or m if cartesian) */
(PID.TID 0000.0001)                 1.500000000000001E-01,      /* I =  1 */
(PID.TID 0000.0001)                 4.500000000000001E-01,      /* I =  2 */
(PID.TID 0000.0001)                 7.500000000000002E-01,      /* I =  3 */
(PID.TID 0000.0001)                 1.050000000000000E+00,      /* I =  4 */
(PID.TID 0000.0001)                 1.350000000000000E+00,      /* I =  5 */
(PID.TID 0000.0001)                 1.650000000000000E+00,      /* I =  6 */
(PID.TID 0000.0001)                 1.950000000000000E+00,      /* I =  7 */
(PID.TID 0000.0001)                 2.250000000000000E+00,      /* I =  8 */
(PID.TID 0000.0001)                 2.550000000000000E+00,      /* I =  9 */
(PID.TID 0000.0001)                 2.850000000000000E+00,      /* I = 10 */
(PID.TID 0000.0001)                 3.149999999999999E+00,      /* I = 11 */
(PID.TID 0000.0001)                 3.449999999999999E+00,      /* I = 12 */
(PID.TID 0000.0001)                 3.749999999999999E+00,      /* I = 13 */
(PID.TID 0000.0001)                 4.049999999999999E+00,      /* I = 14 */
(PID.TID 0000.0001)                 4.350000000000000E+00,      /* I = 15 */
(PID.TID 0000.0001)                 4.649999999999999E+00,      /* I = 16 */
(PID.TID 0000.0001)                 4.949999999999999E+00,      /* I = 17 */
(PID.TID 0000.0001)                 5.249999999999998E+00,      /* I = 18 */
(PID.TID 0000.0001)                 5.549999999999999E+00,      /* I = 19 */
(PID.TID 0000.0001)                 5.849999999999998E+00,      /* I = 20 */
(PID.TID 0000.0001)                 6.149999999999999E+00,      /* I = 21 */
(PID.TID 0000.0001)                 6.449999999999998E+00,      /* I = 22 */
(PID.TID 0000.0001)                 6.749999999999998E+00,      /* I = 23 */
(PID.TID 0000.0001)                 7.049999999999997E+00,      /* I = 24 */
(PID.TID 0000.0001)                 7.349999999999997E+00,      /* I = 25 */
(PID.TID 0000.0001)                 7.649999999999997E+00,      /* I = 26 */
(PID.TID 0000.0001)                 7.949999999999998E+00,      /* I = 27 */
(PID.TID 0000.0001)                 8.249999999999998E+00,      /* I = 28 */
(PID.TID 0000.0001)                 8.549999999999999E+00,      /* I = 29 */
(PID.TID 0000.0001)                 8.850000000000000E+00,      /* I = 30 */
(PID.TID 0000.0001)                 9.150000000000000E+00,      /* I = 31 */
(PID.TID 0000.0001)                 9.450000000000001E+00,      /* I = 32 */
(PID.TID 0000.0001)                 9.750000000000002E+00,      /* I = 33 */
(PID.TID 0000.0001)                 1.005000000000000E+01,      /* I = 34 */
(PID.TID 0000.0001)                 1.035000000000000E+01,      /* I = 35 */
(PID.TID 0000.0001)                 1.065000000000000E+01,      /* I = 36 */
(PID.TID 0000.0001)                 1.095000000000001E+01,      /* I = 37 */
(PID.TID 0000.0001)                 1.125000000000001E+01,      /* I = 38 */
(PID.TID 0000.0001)                 1.155000000000000E+01,      /* I = 39 */
(PID.TID 0000.0001)                 1.185000000000001E+01,      /* I = 40 */
(PID.TID 0000.0001)                 1.215000000000001E+01,      /* I = 41 */
(PID.TID 0000.0001)                 1.245000000000001E+01,      /* I = 42 */
(PID.TID 0000.0001)                 1.275000000000001E+01,      /* I = 43 */
(PID.TID 0000.0001)                 1.305000000000001E+01,      /* I = 44 */
(PID.TID 0000.0001)                 1.335000000000001E+01,      /* I = 45 */
(PID.TID 0000.0001)                 1.365000000000001E+01,      /* I = 46 */
(PID.TID 0000.0001)                 1.395000000000001E+01,      /* I = 47 */
(PID.TID 0000.0001)                 1.425000000000001E+01,      /* I = 48 */
(PID.TID 0000.0001)                 1.455000000000001E+01,      /* I = 49 */
(PID.TID 0000.0001)                 1.485000000000001E+01       /* I = 50 */
(PID.TID 0000.0001)     ;
(PID.TID 0000.0001) yC =  /* yC(1,:,1,:) : P-point Y coord ( deg. or m if cartesian) */
(PID.TID 0000.0001)                -7.995000000000000E+01,      /* J =  1 */
(PID.TID 0000.0001)                -7.985000000000001E+01,      /* J =  2 */
(PID.TID 0000.0001)                -7.975000000000001E+01,      /* J =  3 */
(PID.TID 0000.0001)      . . .
(PID.TID 0000.0001)                -7.775000000000013E+01,      /* J = 23 */
(PID.TID 0000.0001)                -7.765000000000013E+01,      /* J = 24 */
(PID.TID 0000.0001)                -7.755000000000014E+01,      /* J = 25 */
(PID.TID 0000.0001)                -7.745000000000014E+01,      /* J = 26 */
(PID.TID 0000.0001)                -7.735000000000015E+01,      /* J = 27 */
(PID.TID 0000.0001)                -7.725000000000016E+01,      /* J = 28 */
(PID.TID 0000.0001)      . . .
(PID.TID 0000.0001)                -7.525000000000027E+01,      /* J = 48 */
(PID.TID 0000.0001)                -7.515000000000028E+01,      /* J = 49 */
(PID.TID 0000.0001)                -7.505000000000028E+01,      /* J = 50 */
(PID.TID 0000.0001)                -7.495000000000029E+01,      /* J = 51 */
(PID.TID 0000.0001)                -7.485000000000029E+01,      /* J = 52 */
(PID.TID 0000.0001)                -7.475000000000030E+01,      /* J = 53 */
(PID.TID 0000.0001)      . . .
(PID.TID 0000.0001)                -7.275000000000041E+01,      /* J = 73 */
(PID.TID 0000.0001)                -7.265000000000042E+01,      /* J = 74 */
(PID.TID 0000.0001)                -7.255000000000042E+01,      /* J = 75 */
(PID.TID 0000.0001)                -7.245000000000043E+01,      /* J = 76 */
(PID.TID 0000.0001)                -7.235000000000043E+01,      /* J = 77 */
(PID.TID 0000.0001)                -7.225000000000044E+01,      /* J = 78 */
(PID.TID 0000.0001)      . . .
(PID.TID 0000.0001)                -7.025000000000055E+01,      /* J = 98 */
(PID.TID 0000.0001)                -7.015000000000056E+01,      /* J = 99 */
(PID.TID 0000.0001)                -7.005000000000057E+01       /* J =100 */
(PID.TID 0000.0001)     ;
(PID.TID 0000.0001) rcoord = /* P-point R coordinate (  units of r ) */
(PID.TID 0000.0001)                -1.500000000000000E+01,      /* K =  1 */
(PID.TID 0000.0001)                -4.500000000000000E+01,      /* K =  2 */
(PID.TID 0000.0001)                -7.500000000000000E+01,      /* K =  3 */
(PID.TID 0000.0001)                -1.050000000000000E+02,      /* K =  4 */
(PID.TID 0000.0001)                -1.350000000000000E+02,      /* K =  5 */
(PID.TID 0000.0001)                -1.650000000000000E+02,      /* K =  6 */
(PID.TID 0000.0001)                -1.950000000000000E+02,      /* K =  7 */
(PID.TID 0000.0001)                -2.250000000000000E+02,      /* K =  8 */
(PID.TID 0000.0001)                -2.550000000000000E+02,      /* K =  9 */
(PID.TID 0000.0001)                -2.850000000000000E+02,      /* K = 10 */
(PID.TID 0000.0001)                -3.150000000000000E+02,      /* K = 11 */
(PID.TID 0000.0001)                -3.450000000000000E+02,      /* K = 12 */
(PID.TID 0000.0001)                -3.750000000000000E+02,      /* K = 13 */
(PID.TID 0000.0001)                -4.050000000000000E+02,      /* K = 14 */
(PID.TID 0000.0001)                -4.350000000000000E+02,      /* K = 15 */
(PID.TID 0000.0001)                -4.650000000000000E+02,      /* K = 16 */
(PID.TID 0000.0001)                -4.950000000000000E+02,      /* K = 17 */
(PID.TID 0000.0001)                -5.250000000000000E+02,      /* K = 18 */
(PID.TID 0000.0001)                -5.550000000000000E+02,      /* K = 19 */
(PID.TID 0000.0001)                -5.850000000000000E+02,      /* K = 20 */
(PID.TID 0000.0001)                -6.150000000000000E+02,      /* K = 21 */
(PID.TID 0000.0001)                -6.450000000000000E+02,      /* K = 22 */
(PID.TID 0000.0001)                -6.750000000000000E+02,      /* K = 23 */
(PID.TID 0000.0001)                -7.050000000000000E+02,      /* K = 24 */
(PID.TID 0000.0001)                -7.350000000000000E+02,      /* K = 25 */
(PID.TID 0000.0001)                -7.650000000000000E+02,      /* K = 26 */
(PID.TID 0000.0001)                -7.950000000000000E+02,      /* K = 27 */
(PID.TID 0000.0001)                -8.250000000000000E+02,      /* K = 28 */
(PID.TID 0000.0001)                -8.550000000000000E+02,      /* K = 29 */
(PID.TID 0000.0001)                -8.850000000000000E+02       /* K = 30 */
(PID.TID 0000.0001)     ;
(PID.TID 0000.0001) rF =   /* W-Interf. R coordinate (  units of r ) */
(PID.TID 0000.0001)                 0.000000000000000E+00,      /* K =  1 */
(PID.TID 0000.0001)                -3.000000000000000E+01,      /* K =  2 */
(PID.TID 0000.0001)                -6.000000000000000E+01,      /* K =  3 */
(PID.TID 0000.0001)                -9.000000000000000E+01,      /* K =  4 */
(PID.TID 0000.0001)                -1.200000000000000E+02,      /* K =  5 */
(PID.TID 0000.0001)                -1.500000000000000E+02,      /* K =  6 */
(PID.TID 0000.0001)                -1.800000000000000E+02,      /* K =  7 */
(PID.TID 0000.0001)                -2.100000000000000E+02,      /* K =  8 */
(PID.TID 0000.0001)                -2.400000000000000E+02,      /* K =  9 */
(PID.TID 0000.0001)                -2.700000000000000E+02,      /* K = 10 */
(PID.TID 0000.0001)                -3.000000000000000E+02,      /* K = 11 */
(PID.TID 0000.0001)                -3.300000000000000E+02,      /* K = 12 */
(PID.TID 0000.0001)                -3.600000000000000E+02,      /* K = 13 */
(PID.TID 0000.0001)                -3.900000000000000E+02,      /* K = 14 */
(PID.TID 0000.0001)                -4.200000000000000E+02,      /* K = 15 */
(PID.TID 0000.0001)                -4.500000000000000E+02,      /* K = 16 */
(PID.TID 0000.0001)                -4.800000000000000E+02,      /* K = 17 */
(PID.TID 0000.0001)                -5.100000000000000E+02,      /* K = 18 */
(PID.TID 0000.0001)                -5.400000000000000E+02,      /* K = 19 */
(PID.TID 0000.0001)                -5.700000000000000E+02,      /* K = 20 */
(PID.TID 0000.0001)                -6.000000000000000E+02,      /* K = 21 */
(PID.TID 0000.0001)                -6.300000000000000E+02,      /* K = 22 */
(PID.TID 0000.0001)                -6.600000000000000E+02,      /* K = 23 */
(PID.TID 0000.0001)                -6.900000000000000E+02,      /* K = 24 */
(PID.TID 0000.0001)                -7.200000000000000E+02,      /* K = 25 */
(PID.TID 0000.0001)                -7.500000000000000E+02,      /* K = 26 */
(PID.TID 0000.0001)                -7.800000000000000E+02,      /* K = 27 */
(PID.TID 0000.0001)                -8.100000000000000E+02,      /* K = 28 */
(PID.TID 0000.0001)                -8.400000000000000E+02,      /* K = 29 */
(PID.TID 0000.0001)                -8.700000000000000E+02,      /* K = 30 */
(PID.TID 0000.0001)                -9.000000000000000E+02       /* K = 31 */
(PID.TID 0000.0001)     ;
(PID.TID 0000.0001) deepFacC = /* deep-model grid factor @ cell-Center (-) */
(PID.TID 0000.0001)    30 @  1.000000000000000E+00              /* K =  1: 30 */
(PID.TID 0000.0001)     ;
(PID.TID 0000.0001) deepFacF = /* deep-model grid factor @ W-Interface (-) */
(PID.TID 0000.0001)    31 @  1.000000000000000E+00              /* K =  1: 31 */
(PID.TID 0000.0001)     ;
(PID.TID 0000.0001) rVel2wUnit = /* convert units: rVel -> wSpeed (=1 if z-coord)*/
(PID.TID 0000.0001)    31 @  1.000000000000000E+00              /* K =  1: 31 */
(PID.TID 0000.0001)     ;
(PID.TID 0000.0001) wUnit2rVel = /* convert units: wSpeed -> rVel (=1 if z-coord)*/
(PID.TID 0000.0001)    31 @  1.000000000000000E+00              /* K =  1: 31 */
(PID.TID 0000.0001)     ;
(PID.TID 0000.0001) dBdrRef = /* Vertical grad. of reference buoyancy [(m/s/r)^2] */
(PID.TID 0000.0001)    30 @  0.000000000000000E+00              /* K =  1: 30 */
(PID.TID 0000.0001)     ;
(PID.TID 0000.0001) rotateGrid = /* use rotated grid ( True/False ) */
(PID.TID 0000.0001)                   F
(PID.TID 0000.0001)     ;
(PID.TID 0000.0001) phiEuler = /* Euler angle, rotation about original z-coordinate [rad] */
(PID.TID 0000.0001)                 0.000000000000000E+00
(PID.TID 0000.0001)     ;
(PID.TID 0000.0001) thetaEuler = /* Euler angle, rotation about new x-coordinate [rad] */
(PID.TID 0000.0001)                 0.000000000000000E+00
(PID.TID 0000.0001)     ;
(PID.TID 0000.0001) psiEuler = /* Euler angle, rotation about new z-coordinate [rad] */
(PID.TID 0000.0001)                 0.000000000000000E+00
(PID.TID 0000.0001)     ;
(PID.TID 0000.0001) dxF =  /* dxF(:,1,:,1) ( units: m ) */
(PID.TID 0000.0001)    50 @  5.820391490558872E+03              /* I =  1: 50 */
(PID.TID 0000.0001)     ;
(PID.TID 0000.0001) dxF =  /* dxF(1,:,1,:) ( units: m ) */
(PID.TID 0000.0001)                 5.820391490558872E+03,      /* J =  1 */
(PID.TID 0000.0001)                 5.877701765291692E+03,      /* J =  2 */
(PID.TID 0000.0001)                 5.934994135525598E+03,      /* J =  3 */
(PID.TID 0000.0001)      . . .
(PID.TID 0000.0001)                 7.076813247621209E+03,      /* J = 23 */
(PID.TID 0000.0001)                 7.133689397375063E+03,      /* J = 24 */
(PID.TID 0000.0001)                 7.190543816673855E+03,      /* J = 25 */
(PID.TID 0000.0001)                 7.247376332329164E+03,      /* J = 26 */
(PID.TID 0000.0001)                 7.304186771219292E+03,      /* J = 27 */
(PID.TID 0000.0001)                 7.360974960289787E+03,      /* J = 28 */
(PID.TID 0000.0001)      . . .
(PID.TID 0000.0001)                 8.491800393599013E+03,      /* J = 48 */
(PID.TID 0000.0001)                 8.548081485571185E+03,      /* J = 49 */
(PID.TID 0000.0001)                 8.604336538604706E+03,      /* J = 50 */
(PID.TID 0000.0001)                 8.660565381336924E+03,      /* J = 51 */
(PID.TID 0000.0001)                 8.716767842485036E+03,      /* J = 52 */
(PID.TID 0000.0001)                 8.772943750846600E+03,      /* J = 53 */
(PID.TID 0000.0001)      . . .
(PID.TID 0000.0001)                 9.890622914885218E+03,      /* J = 73 */
(PID.TID 0000.0001)                 9.946201814818334E+03,      /* J = 74 */
(PID.TID 0000.0001)                 1.000175041689580E+04,      /* J = 75 */
(PID.TID 0000.0001)                 1.005726855190695E+04,      /* J = 76 */
(PID.TID 0000.0001)                 1.011275605073392E+04,      /* J = 77 */
(PID.TID 0000.0001)                 1.016821274435215E+04,      /* J = 78 */
(PID.TID 0000.0001)      . . .
(PID.TID 0000.0001)                 1.127061807330668E+04,      /* J = 98 */
(PID.TID 0000.0001)                 1.132538898360582E+04,      /* J = 99 */
(PID.TID 0000.0001)                 1.138012539480601E+04       /* J =100 */
(PID.TID 0000.0001)     ;
(PID.TID 0000.0001) dyF =  /* dyF(:,1,:,1) ( units: m ) */
(PID.TID 0000.0001)    50 @  1.111774733520388E+04              /* I =  1: 50 */
(PID.TID 0000.0001)     ;
(PID.TID 0000.0001) dyF =  /* dyF(1,:,1,:) ( units: m ) */
(PID.TID 0000.0001)   100 @  1.111774733520388E+04              /* J =  1:100 */
(PID.TID 0000.0001)     ;
(PID.TID 0000.0001) dxG =  /* dxG(:,1,:,1) ( units: m ) */
(PID.TID 0000.0001)    50 @  5.791729693558576E+03              /* I =  1: 50 */
(PID.TID 0000.0001)     ;
(PID.TID 0000.0001) dxG =  /* dxG(1,:,1,:) ( units: m ) */
(PID.TID 0000.0001)                 5.791729693558576E+03,      /* J =  1 */
(PID.TID 0000.0001)                 5.849048855077854E+03,      /* J =  2 */
(PID.TID 0000.0001)                 5.906350199379949E+03,      /* J =  3 */
(PID.TID 0000.0001)      . . .
(PID.TID 0000.0001)                 7.048367077963129E+03,      /* J = 23 */
(PID.TID 0000.0001)                 7.105254027978149E+03,      /* J = 24 */
(PID.TID 0000.0001)                 7.162119334157175E+03,      /* J = 25 */
(PID.TID 0000.0001)                 7.218962823278620E+03,      /* J = 26 */
(PID.TID 0000.0001)                 7.275784322187360E+03,      /* J = 27 */
(PID.TID 0000.0001)                 7.332583657795253E+03,      /* J = 28 */
(PID.TID 0000.0001)      . . .
(PID.TID 0000.0001)                 8.463650136583461E+03,      /* J = 48 */
(PID.TID 0000.0001)                 8.519944183739159E+03,      /* J = 49 */
(PID.TID 0000.0001)                 8.576212277667308E+03,      /* J = 50 */
(PID.TID 0000.0001)                 8.632454246965530E+03,      /* J = 51 */
(PID.TID 0000.0001)                 8.688669920311038E+03,      /* J = 52 */
(PID.TID 0000.0001)                 8.744859126461139E+03,      /* J = 53 */
(PID.TID 0000.0001)      . . .
(PID.TID 0000.0001)                 9.862822156126382E+03,      /* J = 73 */
(PID.TID 0000.0001)                 9.918416141504455E+03,      /* J = 74 */
(PID.TID 0000.0001)                 9.973979913666863E+03,      /* J = 75 */
(PID.TID 0000.0001)                 1.002951330335672E+04,      /* J = 76 */
(PID.TID 0000.0001)                 1.008501614140969E+04,      /* J = 77 */
(PID.TID 0000.0001)                 1.014048825875450E+04,      /* J = 78 */
(PID.TID 0000.0001)      . . .
(PID.TID 0000.0001)                 1.124321973312895E+04,      /* J = 98 */
(PID.TID 0000.0001)                 1.129800783041847E+04,      /* J = 99 */
(PID.TID 0000.0001)                 1.135276151201679E+04       /* J =100 */
(PID.TID 0000.0001)     ;
(PID.TID 0000.0001) dyG =  /* dyG(:,1,:,1) ( units: m ) */
(PID.TID 0000.0001)    50 @  1.111774733520388E+04              /* I =  1: 50 */
(PID.TID 0000.0001)     ;
(PID.TID 0000.0001) dyG =  /* dyG(1,:,1,:) ( units: m ) */
(PID.TID 0000.0001)   100 @  1.111774733520388E+04              /* J =  1:100 */
(PID.TID 0000.0001)     ;
(PID.TID 0000.0001) dxC =  /* dxC(:,1,:,1) ( units: m ) */
(PID.TID 0000.0001)    50 @  5.820391490558872E+03              /* I =  1: 50 */
(PID.TID 0000.0001)     ;
(PID.TID 0000.0001) dxC =  /* dxC(1,:,1,:) ( units: m ) */
(PID.TID 0000.0001)                 5.820391490558872E+03,      /* J =  1 */
(PID.TID 0000.0001)                 5.877701765291692E+03,      /* J =  2 */
(PID.TID 0000.0001)                 5.934994135525598E+03,      /* J =  3 */
(PID.TID 0000.0001)      . . .
(PID.TID 0000.0001)                 7.076813247621209E+03,      /* J = 23 */
(PID.TID 0000.0001)                 7.133689397375063E+03,      /* J = 24 */
(PID.TID 0000.0001)                 7.190543816673855E+03,      /* J = 25 */
(PID.TID 0000.0001)                 7.247376332329164E+03,      /* J = 26 */
(PID.TID 0000.0001)                 7.304186771219292E+03,      /* J = 27 */
(PID.TID 0000.0001)                 7.360974960289787E+03,      /* J = 28 */
(PID.TID 0000.0001)      . . .
(PID.TID 0000.0001)                 8.491800393599013E+03,      /* J = 48 */
(PID.TID 0000.0001)                 8.548081485571185E+03,      /* J = 49 */
(PID.TID 0000.0001)                 8.604336538604706E+03,      /* J = 50 */
(PID.TID 0000.0001)                 8.660565381336924E+03,      /* J = 51 */
(PID.TID 0000.0001)                 8.716767842485036E+03,      /* J = 52 */
(PID.TID 0000.0001)                 8.772943750846600E+03,      /* J = 53 */
(PID.TID 0000.0001)      . . .
(PID.TID 0000.0001)                 9.890622914885218E+03,      /* J = 73 */
(PID.TID 0000.0001)                 9.946201814818334E+03,      /* J = 74 */
(PID.TID 0000.0001)                 1.000175041689580E+04,      /* J = 75 */
(PID.TID 0000.0001)                 1.005726855190695E+04,      /* J = 76 */
(PID.TID 0000.0001)                 1.011275605073392E+04,      /* J = 77 */
(PID.TID 0000.0001)                 1.016821274435215E+04,      /* J = 78 */
(PID.TID 0000.0001)      . . .
(PID.TID 0000.0001)                 1.127061807330668E+04,      /* J = 98 */
(PID.TID 0000.0001)                 1.132538898360582E+04,      /* J = 99 */
(PID.TID 0000.0001)                 1.138012539480601E+04       /* J =100 */
(PID.TID 0000.0001)     ;
(PID.TID 0000.0001) dyC =  /* dyC(:,1,:,1) ( units: m ) */
(PID.TID 0000.0001)    50 @  1.111774733520388E+04              /* I =  1: 50 */
(PID.TID 0000.0001)     ;
(PID.TID 0000.0001) dyC =  /* dyC(1,:,1,:) ( units: m ) */
(PID.TID 0000.0001)   100 @  1.111774733520388E+04              /* J =  1:100 */
(PID.TID 0000.0001)     ;
(PID.TID 0000.0001) dxV =  /* dxV(:,1,:,1) ( units: m ) */
(PID.TID 0000.0001)    50 @  5.791729693558576E+03              /* I =  1: 50 */
(PID.TID 0000.0001)     ;
(PID.TID 0000.0001) dxV =  /* dxV(1,:,1,:) ( units: m ) */
(PID.TID 0000.0001)                 5.791729693558576E+03,      /* J =  1 */
(PID.TID 0000.0001)                 5.849048855077854E+03,      /* J =  2 */
(PID.TID 0000.0001)                 5.906350199379949E+03,      /* J =  3 */
(PID.TID 0000.0001)      . . .
(PID.TID 0000.0001)                 7.048367077963129E+03,      /* J = 23 */
(PID.TID 0000.0001)                 7.105254027978149E+03,      /* J = 24 */
(PID.TID 0000.0001)                 7.162119334157175E+03,      /* J = 25 */
(PID.TID 0000.0001)                 7.218962823278620E+03,      /* J = 26 */
(PID.TID 0000.0001)                 7.275784322187360E+03,      /* J = 27 */
(PID.TID 0000.0001)                 7.332583657795253E+03,      /* J = 28 */
(PID.TID 0000.0001)      . . .
(PID.TID 0000.0001)                 8.463650136583461E+03,      /* J = 48 */
(PID.TID 0000.0001)                 8.519944183739159E+03,      /* J = 49 */
(PID.TID 0000.0001)                 8.576212277667308E+03,      /* J = 50 */
(PID.TID 0000.0001)                 8.632454246965530E+03,      /* J = 51 */
(PID.TID 0000.0001)                 8.688669920311038E+03,      /* J = 52 */
(PID.TID 0000.0001)                 8.744859126461139E+03,      /* J = 53 */
(PID.TID 0000.0001)      . . .
(PID.TID 0000.0001)                 9.862822156126382E+03,      /* J = 73 */
(PID.TID 0000.0001)                 9.918416141504455E+03,      /* J = 74 */
(PID.TID 0000.0001)                 9.973979913666863E+03,      /* J = 75 */
(PID.TID 0000.0001)                 1.002951330335672E+04,      /* J = 76 */
(PID.TID 0000.0001)                 1.008501614140969E+04,      /* J = 77 */
(PID.TID 0000.0001)                 1.014048825875450E+04,      /* J = 78 */
(PID.TID 0000.0001)      . . .
(PID.TID 0000.0001)                 1.124321973312895E+04,      /* J = 98 */
(PID.TID 0000.0001)                 1.129800783041847E+04,      /* J = 99 */
(PID.TID 0000.0001)                 1.135276151201679E+04       /* J =100 */
(PID.TID 0000.0001)     ;
(PID.TID 0000.0001) dyU =  /* dyU(:,1,:,1) ( units: m ) */
(PID.TID 0000.0001)    50 @  1.111774733520388E+04              /* I =  1: 50 */
(PID.TID 0000.0001)     ;
(PID.TID 0000.0001) dyU =  /* dyU(1,:,1,:) ( units: m ) */
(PID.TID 0000.0001)   100 @  1.111774733520388E+04              /* J =  1:100 */
(PID.TID 0000.0001)     ;
(PID.TID 0000.0001) rA  =  /* rA (:,1,:,1) ( units: m^2 ) */
(PID.TID 0000.0001)    50 @  6.470963377080289E+07              /* I =  1: 50 */
(PID.TID 0000.0001)     ;
(PID.TID 0000.0001) rA  =  /* rA (1,:,1,:) ( units: m^2 ) */
(PID.TID 0000.0001)                 6.470963377080289E+07,      /* J =  1 */
(PID.TID 0000.0001)                 6.534679484410104E+07,      /* J =  2 */
(PID.TID 0000.0001)                 6.598375685977945E+07,      /* J =  3 */
(PID.TID 0000.0001)      . . .
(PID.TID 0000.0001)                 7.867821163932665E+07,      /* J = 23 */
(PID.TID 0000.0001)                 7.931054622142966E+07,      /* J = 24 */
(PID.TID 0000.0001)                 7.994263920984067E+07,      /* J = 25 */
(PID.TID 0000.0001)                 8.057448867913349E+07,      /* J = 26 */
(PID.TID 0000.0001)                 8.120609270456599E+07,      /* J = 27 */
(PID.TID 0000.0001)                 8.183744936212724E+07,      /* J = 28 */
(PID.TID 0000.0001)      . . .
(PID.TID 0000.0001)                 9.440967921416211E+07,      /* J = 48 */
(PID.TID 0000.0001)                 9.503539809503193E+07,      /* J = 49 */
(PID.TID 0000.0001)                 9.566082748163140E+07,      /* J = 50 */
(PID.TID 0000.0001)                 9.628596546870193E+07,      /* J = 51 */
(PID.TID 0000.0001)                 9.691081015209354E+07,      /* J = 52 */
(PID.TID 0000.0001)                 9.753535962826957E+07,      /* J = 53 */
(PID.TID 0000.0001)      . . .
(PID.TID 0000.0001)                 1.099614325987181E+08,      /* J = 73 */
(PID.TID 0000.0001)                 1.105793446869293E+08,      /* J = 74 */
(PID.TID 0000.0001)                 1.111969199312560E+08,      /* J = 75 */
(PID.TID 0000.0001)                 1.118141564504991E+08,      /* J = 76 */
(PID.TID 0000.0001)                 1.124310523644033E+08,      /* J = 77 */
(PID.TID 0000.0001)                 1.130476057938687E+08,      /* J = 78 */
(PID.TID 0000.0001)      . . .
(PID.TID 0000.0001)                 1.253038681465364E+08,      /* J = 98 */
(PID.TID 0000.0001)                 1.259127972112936E+08,      /* J = 99 */
(PID.TID 0000.0001)                 1.265213427237870E+08       /* J =100 */
(PID.TID 0000.0001)     ;
(PID.TID 0000.0001) rAw =  /* rAw(:,1,:,1) ( units: m^2 ) */
(PID.TID 0000.0001)    50 @  6.470963377080289E+07              /* I =  1: 50 */
(PID.TID 0000.0001)     ;
(PID.TID 0000.0001) rAw =  /* rAw(1,:,1,:) ( units: m^2 ) */
(PID.TID 0000.0001)                 6.470963377080289E+07,      /* J =  1 */
(PID.TID 0000.0001)                 6.534679484410104E+07,      /* J =  2 */
(PID.TID 0000.0001)                 6.598375685977945E+07,      /* J =  3 */
(PID.TID 0000.0001)      . . .
(PID.TID 0000.0001)                 7.867821163932665E+07,      /* J = 23 */
(PID.TID 0000.0001)                 7.931054622142966E+07,      /* J = 24 */
(PID.TID 0000.0001)                 7.994263920984067E+07,      /* J = 25 */
(PID.TID 0000.0001)                 8.057448867913349E+07,      /* J = 26 */
(PID.TID 0000.0001)                 8.120609270456599E+07,      /* J = 27 */
(PID.TID 0000.0001)                 8.183744936212724E+07,      /* J = 28 */
(PID.TID 0000.0001)      . . .
(PID.TID 0000.0001)                 9.440967921416211E+07,      /* J = 48 */
(PID.TID 0000.0001)                 9.503539809503193E+07,      /* J = 49 */
(PID.TID 0000.0001)                 9.566082748163140E+07,      /* J = 50 */
(PID.TID 0000.0001)                 9.628596546870193E+07,      /* J = 51 */
(PID.TID 0000.0001)                 9.691081015209354E+07,      /* J = 52 */
(PID.TID 0000.0001)                 9.753535962826957E+07,      /* J = 53 */
(PID.TID 0000.0001)      . . .
(PID.TID 0000.0001)                 1.099614325987181E+08,      /* J = 73 */
(PID.TID 0000.0001)                 1.105793446869293E+08,      /* J = 74 */
(PID.TID 0000.0001)                 1.111969199312560E+08,      /* J = 75 */
(PID.TID 0000.0001)                 1.118141564504991E+08,      /* J = 76 */
(PID.TID 0000.0001)                 1.124310523644033E+08,      /* J = 77 */
(PID.TID 0000.0001)                 1.130476057938687E+08,      /* J = 78 */
(PID.TID 0000.0001)      . . .
(PID.TID 0000.0001)                 1.253038681465364E+08,      /* J = 98 */
(PID.TID 0000.0001)                 1.259127972112936E+08,      /* J = 99 */
(PID.TID 0000.0001)                 1.265213427237870E+08       /* J =100 */
(PID.TID 0000.0001)     ;
(PID.TID 0000.0001) rAs =  /* rAs(:,1,:,1) ( units: m^2 ) */
(PID.TID 0000.0001)    50 @  6.439097919401864E+07              /* I =  1: 50 */
(PID.TID 0000.0001)     ;
(PID.TID 0000.0001) rAs =  /* rAs(1,:,1,:) ( units: m^2 ) */
(PID.TID 0000.0001)                 6.439097919401864E+07,      /* J =  1 */
(PID.TID 0000.0001)                 6.502823906837179E+07,      /* J =  2 */
(PID.TID 0000.0001)                 6.566530085543716E+07,      /* J =  3 */
(PID.TID 0000.0001)      . . .
(PID.TID 0000.0001)                 7.836195435256335E+07,      /* J = 23 */
(PID.TID 0000.0001)                 7.899440900921808E+07,      /* J = 24 */
(PID.TID 0000.0001)                 7.962662303520055E+07,      /* J = 25 */
(PID.TID 0000.0001)                 8.025859450470714E+07,      /* J = 26 */
(PID.TID 0000.0001)                 8.089032149259475E+07,      /* J = 27 */
(PID.TID 0000.0001)                 8.152180207452223E+07,      /* J = 28 */
(PID.TID 0000.0001)      . . .
(PID.TID 0000.0001)                 9.409671180895932E+07,      /* J = 48 */
(PID.TID 0000.0001)                 9.472257472228888E+07,      /* J = 49 */
(PID.TID 0000.0001)                 9.534814909420149E+07,      /* J = 50 */
(PID.TID 0000.0001)                 9.597343301913190E+07,      /* J = 51 */
(PID.TID 0000.0001)                 9.659842459236403E+07,      /* J = 52 */
(PID.TID 0000.0001)                 9.722312190998378E+07,      /* J = 53 */
(PID.TID 0000.0001)      . . .
(PID.TID 0000.0001)                 1.096523508263446E+08,      /* J = 73 */
(PID.TID 0000.0001)                 1.102704306306916E+08,      /* J = 74 */
(PID.TID 0000.0001)                 1.108881745321664E+08,      /* J = 75 */
(PID.TID 0000.0001)                 1.115055806490511E+08,      /* J = 76 */
(PID.TID 0000.0001)                 1.121226471005947E+08,      /* J = 77 */
(PID.TID 0000.0001)                 1.127393720071080E+08,      /* J = 78 */
(PID.TID 0000.0001)      . . .
(PID.TID 0000.0001)                 1.249992603617116E+08,      /* J = 98 */
(PID.TID 0000.0001)                 1.256083805070198E+08,      /* J = 99 */
(PID.TID 0000.0001)                 1.262171180274426E+08       /* J =100 */
(PID.TID 0000.0001)     ;
(PID.TID 0000.0001) globalArea = /* Integrated horizontal Area (m^2) */
(PID.TID 0000.0001)                 4.665024516720074E+11
(PID.TID 0000.0001)     ;
(PID.TID 0000.0001) // =======================================================
(PID.TID 0000.0001) // End of Model config. summary
(PID.TID 0000.0001) // =======================================================
(PID.TID 0000.0001) 
(PID.TID 0000.0001) == Packages configuration : Check & print summary ==
(PID.TID 0000.0001) 
(PID.TID 0000.0001) SHELFICE_CHECK: #define ALLOW_SHELFICE
(PID.TID 0000.0001) 
(PID.TID 0000.0001) SHELFICE_CHECK: start of SHELFICE config. summary
(PID.TID 0000.0001) SHELFICEisOn = /* package is turned on */
(PID.TID 0000.0001)                   T
(PID.TID 0000.0001)     ;
(PID.TID 0000.0001) useISOMIPTD = /* use simple isomip thermodynamics */
(PID.TID 0000.0001)                   F
(PID.TID 0000.0001)     ;
(PID.TID 0000.0001) SHELFICEconserve = /* use a conservative form of boundary conditions */
(PID.TID 0000.0001)                   T
(PID.TID 0000.0001)     ;
(PID.TID 0000.0001) SHELFICEboundaryLayer = /* use simple boundary layer scheme to suppress noise */
(PID.TID 0000.0001)                   F
(PID.TID 0000.0001)     ;
(PID.TID 0000.0001) SHELFICEadvDiffHeatFlux = /* use adv.-diff. instead of just diff. heat flux into the ice shelf */
(PID.TID 0000.0001)                   T
(PID.TID 0000.0001)     ;
(PID.TID 0000.0001) SHELFICEMassStepping = /* step forward ice shelf mass/thickness */
(PID.TID 0000.0001)                   F
(PID.TID 0000.0001)     ;
(PID.TID 0000.0001) no_slip_shelfice = /* use no slip boundary conditions */
(PID.TID 0000.0001)                   F
(PID.TID 0000.0001)     ;
(PID.TID 0000.0001) SHELFICEdragLinear    = /* linear drag coefficient */
(PID.TID 0000.0001)                 0.000000000000000E+00
(PID.TID 0000.0001)     ;
(PID.TID 0000.0001) SHELFICEdragQuadratic = /* quadratic drag coefficient */
(PID.TID 0000.0001)                 1.500000000000000E-03
(PID.TID 0000.0001)     ;
(PID.TID 0000.0001) SHELFICEselectDragQuadr = /* select quadratic drag option */
(PID.TID 0000.0001)                       1
(PID.TID 0000.0001)     ;
(PID.TID 0000.0001) SHELFICElatentHeat      = /* latent heat of ice */
(PID.TID 0000.0001)                 3.340000000000000E+05
(PID.TID 0000.0001)     ;
(PID.TID 0000.0001) SHELFICEheatCapacity_Cp = /* heat capacity of ice shelf */
(PID.TID 0000.0001)                 2.000000000000000E+03
(PID.TID 0000.0001)     ;
(PID.TID 0000.0001) rhoShelfice   = /* density of ice shelf */
(PID.TID 0000.0001)                 9.170000000000000E+02
(PID.TID 0000.0001)     ;
(PID.TID 0000.0001) SHELFICEkappa = /* thermal conductivity of ice shelf */
(PID.TID 0000.0001)                 1.540000000000000E-06
(PID.TID 0000.0001)     ;
(PID.TID 0000.0001) SHELFICEthetaSurface = /* surface temperature above i.s. */
(PID.TID 0000.0001)                -2.000000000000000E+01
(PID.TID 0000.0001)     ;
(PID.TID 0000.0001) SHELFICEheatTransCoeff = /* heat transfer coefficient */
(PID.TID 0000.0001)                 1.000000000000000E-04
(PID.TID 0000.0001)     ;
(PID.TID 0000.0001) SHELFICEsaltTransCoeff = /* salt transfer coefficient */
(PID.TID 0000.0001)                 5.050000000000000E-07
(PID.TID 0000.0001)     ;
(PID.TID 0000.0001) SHELFICEuseGammaFrict = /* use velocity dependent exchange coefficients */
(PID.TID 0000.0001)                   T
(PID.TID 0000.0001)     ;
(PID.TID 0000.0001) SHELFICE_oldCalcUStar = /* use old uStar expression */
(PID.TID 0000.0001)                   F
(PID.TID 0000.0001)     ;
(PID.TID 0000.0001) shiCdrag   = /* quadr. drag coefficient for uStar */
(PID.TID 0000.0001)                 1.500000000000000E-03
(PID.TID 0000.0001)     ;
(PID.TID 0000.0001) shiZetaN   = /* parameter for gammaTurb */
(PID.TID 0000.0001)                 5.200000000000000E-02
(PID.TID 0000.0001)     ;
(PID.TID 0000.0001) shiRc      = /* parameter for gammaTurb (not used) */
(PID.TID 0000.0001)                 2.000000000000000E-01
(PID.TID 0000.0001)     ;
(PID.TID 0000.0001) shiPrandtl = /* const. Prandtl No. for gammaTurb */
(PID.TID 0000.0001)                 1.380000000000000E+01
(PID.TID 0000.0001)     ;
(PID.TID 0000.0001) shiSchmidt = /* const. Schmidt No. for gammaTurb */
(PID.TID 0000.0001)                 2.432000000000000E+03
(PID.TID 0000.0001)     ;
(PID.TID 0000.0001) shiKinVisc = /* const. kin. viscosity for gammaTurb */
(PID.TID 0000.0001)                 1.950000000000000E-06
(PID.TID 0000.0001)     ;
(PID.TID 0000.0001) SHELFICEremeshFrequency = /* Frequency (in s) of Remeshing */
(PID.TID 0000.0001)                 0.000000000000000E+00
(PID.TID 0000.0001)     ;
(PID.TID 0000.0001) SHELFICEloadAnomalyFile = /* file name of loaded loadAnomaly field */
(PID.TID 0000.0001)               ''
(PID.TID 0000.0001)     ;
(PID.TID 0000.0001) SHELFICEmassFile = /* file name of loaded mass field */
(PID.TID 0000.0001)               'iceShelf_Mass.bin'
(PID.TID 0000.0001)     ;
(PID.TID 0000.0001) SHELFICEtopoFile = /* file name of loaded under-ice topography */
(PID.TID 0000.0001)               'icetopo.exp1'
(PID.TID 0000.0001)     ;
(PID.TID 0000.0001) SHELFICEMassDynTendFile = /* file name of loaded dynamic mass tendency field */
(PID.TID 0000.0001)               ''
(PID.TID 0000.0001)     ;
(PID.TID 0000.0001) SHELFICEwriteState  = /* do simple standard output */
(PID.TID 0000.0001)                   T
(PID.TID 0000.0001)     ;
(PID.TID 0000.0001) SHELFICE_dump_mdsio = /* use mdsio for snapshots */
(PID.TID 0000.0001)                   F
(PID.TID 0000.0001)     ;
(PID.TID 0000.0001) SHELFICE_tave_mdsio = /* use mdsio for time averages */
(PID.TID 0000.0001)                   F
(PID.TID 0000.0001)     ;
(PID.TID 0000.0001) SHELFICE_dump_mnc   = /* use netcdf for snapshots */
(PID.TID 0000.0001)                   T
(PID.TID 0000.0001)     ;
(PID.TID 0000.0001) SHELFICE_tave_mnc   = /* use netcdf for time averages */
(PID.TID 0000.0001)                   T
(PID.TID 0000.0001)     ;
(PID.TID 0000.0001) SHELFICE_dumpFreq = /* analoguous to dumpFreq */
(PID.TID 0000.0001)                 0.000000000000000E+00
(PID.TID 0000.0001)     ;
(PID.TID 0000.0001) SHELFICE_taveFreq = /* analoguous to taveFreq */
(PID.TID 0000.0001)                 0.000000000000000E+00
(PID.TID 0000.0001)     ;
(PID.TID 0000.0001) SHELFICE_CHECK: end of SHELFICE config. summary
(PID.TID 0000.0001) GAD_CHECK: #define ALLOW_GENERIC_ADVDIFF
(PID.TID 0000.0001) // =======================================================
(PID.TID 0000.0001) // Check Model config. (CONFIG_CHECK):
(PID.TID 0000.0001) // CONFIG_CHECK : Normal End
(PID.TID 0000.0001) // =======================================================
(PID.TID 0000.0001) 
(PID.TID 0000.0001)  MDS_READ_META: opening file: pickup.0000008640.meta
(PID.TID 0000.0001)  nRecords = 243 ; filePrec =  64 ; fileIter =      8640
(PID.TID 0000.0001)     nDims =   2 , dims:
(PID.TID 0000.0001)    1:  50   1  50
(PID.TID 0000.0001)    2: 100   1 100
(PID.TID 0000.0001)     nFlds =  11 , nFl3D =   8 , fields:
(PID.TID 0000.0001)  >Uvel    < >Vvel    < >Theta   < >Salt    < >GuNm1   < >GvNm1   < >GtNm1   < >GsNm1   < >EtaN    < >dEtaHdt < >EtaH    <
(PID.TID 0000.0001) missingVal=  1.00000000000000E+00 ; nTimRec =   1 , timeList:
(PID.TID 0000.0001)   1.555200000000E+07
(PID.TID 0000.0001) READ_MFLDS_3D_RL: read field: "Uvel    ", #   1 in fldList, rec=   1
(PID.TID 0000.0001)  MDS_READ_FIELD: opening global file: pickup.0000008640.data
(PID.TID 0000.0001) READ_MFLDS_3D_RL: read field: "Vvel    ", #   2 in fldList, rec=   2
(PID.TID 0000.0001)  MDS_READ_FIELD: opening global file: pickup.0000008640.data
(PID.TID 0000.0001) READ_MFLDS_3D_RL: read field: "Theta   ", #   3 in fldList, rec=   3
(PID.TID 0000.0001)  MDS_READ_FIELD: opening global file: pickup.0000008640.data
(PID.TID 0000.0001) READ_MFLDS_3D_RL: read field: "Salt    ", #   4 in fldList, rec=   4
(PID.TID 0000.0001)  MDS_READ_FIELD: opening global file: pickup.0000008640.data
(PID.TID 0000.0001) READ_MFLDS_3D_RL: read field: "GuNm1   ", #   5 in fldList, rec=   5
(PID.TID 0000.0001)  MDS_READ_FIELD: opening global file: pickup.0000008640.data
(PID.TID 0000.0001) READ_MFLDS_3D_RL: read field: "GvNm1   ", #   6 in fldList, rec=   6
(PID.TID 0000.0001)  MDS_READ_FIELD: opening global file: pickup.0000008640.data
(PID.TID 0000.0001) READ_MFLDS_3D_RL: read field: "GtNm1   ", #   7 in fldList, rec=   7
(PID.TID 0000.0001)  MDS_READ_FIELD: opening global file: pickup.0000008640.data
(PID.TID 0000.0001) READ_MFLDS_3D_RL: read field: "GsNm1   ", #   8 in fldList, rec=   8
(PID.TID 0000.0001)  MDS_READ_FIELD: opening global file: pickup.0000008640.data
(PID.TID 0000.0001) READ_MFLDS_3D_RL: read field: "EtaN    ", #   9 in fldList, rec= 241
(PID.TID 0000.0001)  MDS_READ_FIELD: opening global file: pickup.0000008640.data
(PID.TID 0000.0001) READ_MFLDS_3D_RL: read field: "dEtaHdt ", #  10 in fldList, rec= 242
(PID.TID 0000.0001)  MDS_READ_FIELD: opening global file: pickup.0000008640.data
(PID.TID 0000.0001) READ_MFLDS_3D_RL: read field: "EtaH    ", #  11 in fldList, rec= 243
(PID.TID 0000.0001)  MDS_READ_FIELD: opening global file: pickup.0000008640.data
(PID.TID 0000.0001) READ_MFLDS_CHECK: - normal end ; reset MFLDS file-name: pickup.0000008640
(PID.TID 0000.0001)  write diagnostics summary to file ioUnit:      6
Iter.Nb:      8640 ; Time(s):  1.5552000000000E+07
------------------------------------------------------------------------
2D/3D diagnostics: Number of lists:     2
------------------------------------------------------------------------
listId=    1 ; file name: surfDiag
 nFlds, nActive,       freq     &     phase        , nLev               
   14  |   14  |   5184000.000000         0.000000 |   1
 levels:   1
 diag# | name   |   ipt  |  iMate | kLev|   count |   mate.C|           
    23 |ETAN    |      1 |      0 |   1 |       0 |
    24 |ETANSQ  |      2 |      0 |   1 |       0 |
    25 |DETADT2 |      3 |      0 |   1 |       0 |
   207 |SHIuStar|      4 |      0 |   1 |       0 |
   205 |SHIgammT|      5 |      0 |   1 |       0 |
   206 |SHIgammS|      6 |      0 |   1 |       0 |
   199 |SHIfwFlx|      7 |      0 |   1 |       0 |
   200 |SHIhtFlx|      8 |      0 |   1 |       0 |
   203 |SHIForcT|      9 |      0 |   1 |       0 |
   204 |SHIForcS|     10 |      0 |   1 |       0 |
    94 |TFLUX   |     11 |      0 |   1 |       0 |
    95 |SFLUX   |     12 |      0 |   1 |       0 |
   201 |SHI_TauX|     13 |     14 |   1 |       0 |       0 |
   202 |SHI_TauY|     14 |     13 |   1 |       0 |       0 |
------------------------------------------------------------------------
listId=    2 ; file name: dynDiag
 nFlds, nActive,       freq     &     phase        , nLev               
    9  |    9  |   5184000.000000         0.000000 |  30
 levels:   1   2   3   4   5   6   7   8   9  10  11  12  13  14  15  16  17  18  19  20  21  22  23  24  25
 levels:  26  27  28  29  30
 diag# | name   |   ipt  |  iMate | kLev|   count |   mate.C|           
    30 |UVEL    |     15 |     45 |  30 |       0 |       0 |
    31 |VVEL    |     45 |     15 |  30 |       0 |       0 |
    32 |WVEL    |     75 |      0 |  30 |       0 |
    71 |PHIHYD  |    105 |      0 |  30 |       0 |
    46 |VVELMASS|    135 |    165 |  30 |       0 |       0 |
    45 |UVELMASS|    165 |    135 |  30 |       0 |       0 |
    38 |WVELSQ  |    195 |      0 |  30 |       0 |
    26 |THETA   |    225 |      0 |  30 |       0 |
    27 |SALT    |    255 |      0 |  30 |       0 |
------------------------------------------------------------------------
Global & Regional Statistics diagnostics: Number of lists:     1
------------------------------------------------------------------------
listId=   1 ; file name: dynStDiag
 nFlds, nActive,       freq     &     phase        |                    
    6  |    6  |     86400.000000         0.000000 |
 Regions:   0
 diag# | name   |   ipt  |  iMate |    Volume   |   mate-Vol. |         
    23 |ETAN    |      1 |      0 | 0.00000E+00 |
    30 |UVEL    |      2 |      0 | 0.00000E+00 |
    31 |VVEL    |     32 |      0 | 0.00000E+00 |
    32 |WVEL    |     62 |      0 | 0.00000E+00 |
    26 |THETA   |     92 |      0 | 0.00000E+00 |
    27 |SALT    |    122 |      0 | 0.00000E+00 |
------------------------------------------------------------------------
(PID.TID 0000.0001) // =======================================================
(PID.TID 0000.0001) // Model current state
(PID.TID 0000.0001) // =======================================================
(PID.TID 0000.0001) 
(PID.TID 0000.0001) // =======================================================
(PID.TID 0000.0001) // Begin MONITOR dynamic field statistics
(PID.TID 0000.0001) // =======================================================
(PID.TID 0000.0001) %MON time_tsnumber                =                  8640
(PID.TID 0000.0001) %MON time_secondsf                =   1.5552000000000E+07
(PID.TID 0000.0001) %MON dynstat_eta_max              =   1.0945704627346E-04
(PID.TID 0000.0001) %MON dynstat_eta_min              =  -3.3323751350602E-04
(PID.TID 0000.0001) %MON dynstat_eta_mean             =   8.1319771711174E-20
(PID.TID 0000.0001) %MON dynstat_eta_sd               =   4.9017474104615E-05
(PID.TID 0000.0001) %MON dynstat_eta_del2             =   7.3312469133694E-08
(PID.TID 0000.0001) %MON dynstat_uvel_max             =   1.3448339970763E-04
(PID.TID 0000.0001) %MON dynstat_uvel_min             =  -6.5502308140143E-04
(PID.TID 0000.0001) %MON dynstat_uvel_mean            =   3.2719245621903E-07
(PID.TID 0000.0001) %MON dynstat_uvel_sd              =   6.8336328645536E-05
(PID.TID 0000.0001) %MON dynstat_uvel_del2            =   3.3042575060048E-08
(PID.TID 0000.0001) %MON dynstat_vvel_max             =   5.2644213214814E-04
(PID.TID 0000.0001) %MON dynstat_vvel_min             =  -1.1972335593641E-04
(PID.TID 0000.0001) %MON dynstat_vvel_mean            =   2.3696618717945E-10
(PID.TID 0000.0001) %MON dynstat_vvel_sd              =   1.9420161242736E-05
(PID.TID 0000.0001) %MON dynstat_vvel_del2            =   1.8195584916544E-08
(PID.TID 0000.0001) %MON dynstat_wvel_max             =   3.9969565025556E-06
(PID.TID 0000.0001) %MON dynstat_wvel_min             =  -4.3253811963374E-06
(PID.TID 0000.0001) %MON dynstat_wvel_mean            =   3.1985506534736E-13
(PID.TID 0000.0001) %MON dynstat_wvel_sd              =   1.9495475622782E-07
(PID.TID 0000.0001) %MON dynstat_wvel_del2            =   6.2198696956418E-10
(PID.TID 0000.0001) %MON dynstat_theta_max            =  -1.9000000000000E+00
(PID.TID 0000.0001) %MON dynstat_theta_min            =  -1.9413507813958E+00
(PID.TID 0000.0001) %MON dynstat_theta_mean           =  -1.9016437107574E+00
(PID.TID 0000.0001) %MON dynstat_theta_sd             =   4.8388333658939E-03
(PID.TID 0000.0001) %MON dynstat_theta_del2           =   1.1177331354397E-06
(PID.TID 0000.0001) %MON dynstat_salt_max             =   3.4400000000000E+01
(PID.TID 0000.0001) %MON dynstat_salt_min             =   3.4384756374116E+01
(PID.TID 0000.0001) %MON dynstat_salt_mean            =   3.4399393558175E+01
(PID.TID 0000.0001) %MON dynstat_salt_sd              =   1.7849811019455E-03
(PID.TID 0000.0001) %MON dynstat_salt_del2            =   4.1219100132392E-07
(PID.TID 0000.0001) %MON trAdv_CFL_u_max              =   0.0000000000000E+00
(PID.TID 0000.0001) %MON trAdv_CFL_v_max              =   0.0000000000000E+00
(PID.TID 0000.0001) %MON trAdv_CFL_w_max              =   0.0000000000000E+00
(PID.TID 0000.0001) %MON advcfl_uvel_max              =   1.8610006169373E-04
(PID.TID 0000.0001) %MON advcfl_vvel_max              =   8.5232719299722E-05
(PID.TID 0000.0001) %MON advcfl_wvel_max              =   2.5952287178024E-04
(PID.TID 0000.0001) %MON advcfl_W_hf_max              =   2.5952287178024E-04
(PID.TID 0000.0001) %MON pe_b_mean                    =   1.8801482846840E-11
(PID.TID 0000.0001) %MON ke_max                       =   2.3538042415462E-07
(PID.TID 0000.0001) %MON ke_mean                      =   2.4736822639354E-09
(PID.TID 0000.0001) %MON ke_vol                       =   2.9241705273105E+14
(PID.TID 0000.0001) %MON vort_r_min                   =  -3.1885803989814E-08
(PID.TID 0000.0001) %MON vort_r_max                   =   8.1261830420645E-08
(PID.TID 0000.0001) %MON vort_a_mean                  =  -1.4007437453808E-04
(PID.TID 0000.0001) %MON vort_a_sd                    =   1.7682652763843E-06
(PID.TID 0000.0001) %MON vort_p_mean                  =  -1.5039772396537E-04
(PID.TID 0000.0001) %MON vort_p_sd                    =   8.7068348099632E-05
(PID.TID 0000.0001) %MON surfExpan_theta_mean         =   1.0734867835893E-14
(PID.TID 0000.0001) %MON surfExpan_salt_mean          =   3.9531737248966E-15
(PID.TID 0000.0001) // =======================================================
(PID.TID 0000.0001) // End MONITOR dynamic field statistics
(PID.TID 0000.0001) // =======================================================
(PID.TID 0000.0001) SOLVE_FOR_PRESSURE: putPmEinXvector =    F
(PID.TID 0000.0001) SOLVE_FOR_PRESSURE: zeroPsNH=    F , zeroMeanPnh=    F
(PID.TID 0000.0001) SOLVE_FOR_PRESSURE: oldFreeSurfTerm =    F
 cg2d: Sum(rhs),rhsMax =  -5.09592368302947E-14  2.22357496006282E-04
(PID.TID 0000.0001)      cg2d_init_res =   1.24184718216607E-03
(PID.TID 0000.0001)      cg2d_iters(min,last) =      -1     178
(PID.TID 0000.0001)      cg2d_last_res =   9.07072255925442E-14
(PID.TID 0000.0001) // =======================================================
(PID.TID 0000.0001) // Begin MONITOR dynamic field statistics
(PID.TID 0000.0001) // =======================================================
(PID.TID 0000.0001) %MON time_tsnumber                =                  8641
(PID.TID 0000.0001) %MON time_secondsf                =   1.5553800000000E+07
(PID.TID 0000.0001) %MON dynstat_eta_max              =   1.0947221047303E-04
(PID.TID 0000.0001) %MON dynstat_eta_min              =  -3.3327549745692E-04
(PID.TID 0000.0001) %MON dynstat_eta_mean             =   7.9190285054253E-20
(PID.TID 0000.0001) %MON dynstat_eta_sd               =   4.9023361661494E-05
(PID.TID 0000.0001) %MON dynstat_eta_del2             =   7.3316335024867E-08
(PID.TID 0000.0001) %MON dynstat_uvel_max             =   1.3449406365955E-04
(PID.TID 0000.0001) %MON dynstat_uvel_min             =  -6.5505968641368E-04
(PID.TID 0000.0001) %MON dynstat_uvel_mean            =   3.2726143835342E-07
(PID.TID 0000.0001) %MON dynstat_uvel_sd              =   6.8341828473484E-05
(PID.TID 0000.0001) %MON dynstat_uvel_del2            =   3.3043209570411E-08
(PID.TID 0000.0001) %MON dynstat_vvel_max             =   5.2652410151992E-04
(PID.TID 0000.0001) %MON dynstat_vvel_min             =  -1.1973914086657E-04
(PID.TID 0000.0001) %MON dynstat_vvel_mean            =   2.3700978057531E-10
(PID.TID 0000.0001) %MON dynstat_vvel_sd              =   1.9424492687608E-05
(PID.TID 0000.0001) %MON dynstat_vvel_del2            =   1.8196762147574E-08
(PID.TID 0000.0001) %MON dynstat_wvel_max             =   3.9972312204256E-06
(PID.TID 0000.0001) %MON dynstat_wvel_min             =  -4.3257642736534E-06
(PID.TID 0000.0001) %MON dynstat_wvel_mean            =   3.1987849326635E-13
(PID.TID 0000.0001) %MON dynstat_wvel_sd              =   1.9497356905926E-07
(PID.TID 0000.0001) %MON dynstat_wvel_del2            =   6.2204753822604E-10
(PID.TID 0000.0001) %MON dynstat_theta_max            =  -1.9000000000000E+00
(PID.TID 0000.0001) %MON dynstat_theta_min            =  -1.9413537447025E+00
(PID.TID 0000.0001) %MON dynstat_theta_mean           =  -1.9016438961707E+00
(PID.TID 0000.0001) %MON dynstat_theta_sd             =   4.8392608703612E-03
(PID.TID 0000.0001) %MON dynstat_theta_del2           =   1.1176568613386E-06
(PID.TID 0000.0001) %MON dynstat_salt_max             =   3.4400000000000E+01
(PID.TID 0000.0001) %MON dynstat_salt_min             =   3.4384755281947E+01
(PID.TID 0000.0001) %MON dynstat_salt_mean            =   3.4399393489770E+01
(PID.TID 0000.0001) %MON dynstat_salt_sd              =   1.7851387990273E-03
(PID.TID 0000.0001) %MON dynstat_salt_del2            =   4.1216291673438E-07
(PID.TID 0000.0001) %MON trAdv_CFL_u_max              =   1.8610008531430E-04
(PID.TID 0000.0001) %MON trAdv_CFL_v_max              =   8.5610070081858E-05
(PID.TID 0000.0001) %MON trAdv_CFL_w_max              =   2.5952287178024E-04
(PID.TID 0000.0001) %MON advcfl_uvel_max              =   1.8611046162501E-04
(PID.TID 0000.0001) %MON advcfl_vvel_max              =   8.5245990411642E-05
(PID.TID 0000.0001) %MON advcfl_wvel_max              =   2.5954585641920E-04
(PID.TID 0000.0001) %MON advcfl_W_hf_max              =   2.5954585641920E-04
(PID.TID 0000.0001) %MON pe_b_mean                    =  -1.4146887461396E-08
(PID.TID 0000.0001) %MON ke_max                       =   2.3541631825980E-07
(PID.TID 0000.0001) %MON ke_mean                      =   2.4741336064131E-09
(PID.TID 0000.0001) %MON ke_vol                       =   2.9241705273105E+14
(PID.TID 0000.0001) %MON vort_r_min                   =  -3.1889536940895E-08
(PID.TID 0000.0001) %MON vort_r_max                   =   8.1274483247579E-08
(PID.TID 0000.0001) %MON vort_a_mean                  =  -1.4007437453849E-04
(PID.TID 0000.0001) %MON vort_a_sd                    =   1.7682652748312E-06
(PID.TID 0000.0001) %MON vort_p_mean                  =  -1.5039772396584E-04
(PID.TID 0000.0001) %MON vort_p_sd                    =   8.7068347070920E-05
(PID.TID 0000.0001) %MON surfExpan_theta_mean         =   1.0736427789851E-14
(PID.TID 0000.0001) %MON surfExpan_salt_mean          =   3.9537480796648E-15
(PID.TID 0000.0001) // =======================================================
(PID.TID 0000.0001) // End MONITOR dynamic field statistics
(PID.TID 0000.0001) // =======================================================
 cg2d: Sum(rhs),rhsMax =  -5.68434188608080E-14  2.22401113277977E-04
(PID.TID 0000.0001)      cg2d_init_res =   1.23989625885741E-03
(PID.TID 0000.0001)      cg2d_iters(min,last) =      -1     178
(PID.TID 0000.0001)      cg2d_last_res =   9.04794172397226E-14
(PID.TID 0000.0001) // =======================================================
(PID.TID 0000.0001) // Begin MONITOR dynamic field statistics
(PID.TID 0000.0001) // =======================================================
(PID.TID 0000.0001) %MON time_tsnumber                =                  8642
(PID.TID 0000.0001) %MON time_secondsf                =   1.5555600000000E+07
(PID.TID 0000.0001) %MON dynstat_eta_max              =   1.0948749275898E-04
(PID.TID 0000.0001) %MON dynstat_eta_min              =  -3.3331369110637E-04
(PID.TID 0000.0001) %MON dynstat_eta_mean             =   7.9988842550598E-20
(PID.TID 0000.0001) %MON dynstat_eta_sd               =   4.9029285431549E-05
(PID.TID 0000.0001) %MON dynstat_eta_del2             =   7.3320193669614E-08
(PID.TID 0000.0001) %MON dynstat_uvel_max             =   1.3450472662478E-04
(PID.TID 0000.0001) %MON dynstat_uvel_min             =  -6.5509628766062E-04
(PID.TID 0000.0001) %MON dynstat_uvel_mean            =   3.2733042793124E-07
(PID.TID 0000.0001) %MON dynstat_uvel_sd              =   6.8347328045394E-05
(PID.TID 0000.0001) %MON dynstat_uvel_del2            =   3.3043844022793E-08
(PID.TID 0000.0001) %MON dynstat_vvel_max             =   5.2660749090457E-04
(PID.TID 0000.0001) %MON dynstat_vvel_min             =  -1.1975500372997E-04
(PID.TID 0000.0001) %MON dynstat_vvel_mean            =   2.3342396552334E-10
(PID.TID 0000.0001) %MON dynstat_vvel_sd              =   1.9428835633601E-05
(PID.TID 0000.0001) %MON dynstat_vvel_del2            =   1.8197506803210E-08
(PID.TID 0000.0001) %MON dynstat_wvel_max             =   3.9975057901412E-06
(PID.TID 0000.0001) %MON dynstat_wvel_min             =  -4.3261461179164E-06
(PID.TID 0000.0001) %MON dynstat_wvel_mean            =   3.1761960085820E-13
(PID.TID 0000.0001) %MON dynstat_wvel_sd              =   1.9499237351562E-07
(PID.TID 0000.0001) %MON dynstat_wvel_del2            =   6.2210755899455E-10
(PID.TID 0000.0001) %MON dynstat_theta_max            =  -1.9000000000000E+00
(PID.TID 0000.0001) %MON dynstat_theta_min            =  -1.9413565863695E+00
(PID.TID 0000.0001) %MON dynstat_theta_mean           =  -1.9016440804040E+00
(PID.TID 0000.0001) %MON dynstat_theta_sd             =   4.8396831976213E-03
(PID.TID 0000.0001) %MON dynstat_theta_del2           =   1.1176340106742E-06
(PID.TID 0000.0001) %MON dynstat_salt_max             =   3.4400000000000E+01
(PID.TID 0000.0001) %MON dynstat_salt_min             =   3.4384754234548E+01
(PID.TID 0000.0001) %MON dynstat_salt_mean            =   3.4399393421799E+01
(PID.TID 0000.0001) %MON dynstat_salt_sd              =   1.7852945884262E-03
(PID.TID 0000.0001) %MON dynstat_salt_del2            =   4.1215450799308E-07
(PID.TID 0000.0001) %MON trAdv_CFL_u_max              =   1.8611048524691E-04
(PID.TID 0000.0001) %MON trAdv_CFL_v_max              =   8.5623399948967E-05
(PID.TID 0000.0001) %MON trAdv_CFL_w_max              =   2.5954585641920E-04
(PID.TID 0000.0001) %MON advcfl_uvel_max              =   1.8612086048653E-04
(PID.TID 0000.0001) %MON advcfl_vvel_max              =   8.5259491428336E-05
(PID.TID 0000.0001) %MON advcfl_wvel_max              =   2.5956876707499E-04
(PID.TID 0000.0001) %MON advcfl_W_hf_max              =   2.5956876707499E-04
(PID.TID 0000.0001) %MON pe_b_mean                    =  -1.4147072239458E-08
(PID.TID 0000.0001) %MON ke_max                       =   2.3545272407936E-07
(PID.TID 0000.0001) %MON ke_mean                      =   2.4745852007523E-09
(PID.TID 0000.0001) %MON ke_vol                       =   2.9241705273105E+14
(PID.TID 0000.0001) %MON vort_r_min                   =  -3.1893269965002E-08
(PID.TID 0000.0001) %MON vort_r_max                   =   8.1287355268301E-08
(PID.TID 0000.0001) %MON vort_a_mean                  =  -1.4007437453891E-04
(PID.TID 0000.0001) %MON vort_a_sd                    =   1.7682652733839E-06
(PID.TID 0000.0001) %MON vort_p_mean                  =  -1.5039772396631E-04
(PID.TID 0000.0001) %MON vort_p_sd                    =   8.7068346042246E-05
(PID.TID 0000.0001) %MON surfExpan_theta_mean         =   1.0664023279863E-14
(PID.TID 0000.0001) %MON surfExpan_salt_mean          =   3.9270580982482E-15
(PID.TID 0000.0001) // =======================================================
(PID.TID 0000.0001) // End MONITOR dynamic field statistics
(PID.TID 0000.0001) // =======================================================
 cg2d: Sum(rhs),rhsMax =  -6.60582699651968E-14  2.22444828515733E-04
(PID.TID 0000.0001)      cg2d_init_res =   1.24145267900140E-03
(PID.TID 0000.0001)      cg2d_iters(min,last) =      -1     177
(PID.TID 0000.0001)      cg2d_last_res =   9.92093784717942E-14
(PID.TID 0000.0001) // =======================================================
(PID.TID 0000.0001) // Begin MONITOR dynamic field statistics
(PID.TID 0000.0001) // =======================================================
(PID.TID 0000.0001) %MON time_tsnumber                =                  8643
(PID.TID 0000.0001) %MON time_secondsf                =   1.5557400000000E+07
(PID.TID 0000.0001) %MON dynstat_eta_max              =   1.0950285085660E-04
(PID.TID 0000.0001) %MON dynstat_eta_min              =  -3.3335188300542E-04
(PID.TID 0000.0001) %MON dynstat_eta_mean             =   8.7442045849822E-20
(PID.TID 0000.0001) %MON dynstat_eta_sd               =   4.9035202838185E-05
(PID.TID 0000.0001) %MON dynstat_eta_del2             =   7.3324060235327E-08
(PID.TID 0000.0001) %MON dynstat_uvel_max             =   1.3451545028893E-04
(PID.TID 0000.0001) %MON dynstat_uvel_min             =  -6.5513408125631E-04
(PID.TID 0000.0001) %MON dynstat_uvel_mean            =   3.2739891720071E-07
(PID.TID 0000.0001) %MON dynstat_uvel_sd              =   6.8352877176959E-05
(PID.TID 0000.0001) %MON dynstat_uvel_del2            =   3.3044501267231E-08
(PID.TID 0000.0001) %MON dynstat_vvel_max             =   5.2669126067343E-04
(PID.TID 0000.0001) %MON dynstat_vvel_min             =  -1.1977091815773E-04
(PID.TID 0000.0001) %MON dynstat_vvel_mean            =   2.2927305170497E-10
(PID.TID 0000.0001) %MON dynstat_vvel_sd              =   1.9433182183111E-05
(PID.TID 0000.0001) %MON dynstat_vvel_del2            =   1.8198299944517E-08
(PID.TID 0000.0001) %MON dynstat_wvel_max             =   3.9977827198141E-06
(PID.TID 0000.0001) %MON dynstat_wvel_min             =  -4.3265294315876E-06
(PID.TID 0000.0001) %MON dynstat_wvel_mean            =   3.1572334294635E-13
(PID.TID 0000.0001) %MON dynstat_wvel_sd              =   1.9501127793948E-07
(PID.TID 0000.0001) %MON dynstat_wvel_del2            =   6.2216782503729E-10
(PID.TID 0000.0001) %MON dynstat_theta_max            =  -1.9000000000000E+00
(PID.TID 0000.0001) %MON dynstat_theta_min            =  -1.9413594276238E+00
(PID.TID 0000.0001) %MON dynstat_theta_mean           =  -1.9016442646357E+00
(PID.TID 0000.0001) %MON dynstat_theta_sd             =   4.8401055024248E-03
(PID.TID 0000.0001) %MON dynstat_theta_del2           =   1.1176142996402E-06
(PID.TID 0000.0001) %MON dynstat_salt_max             =   3.4400000000000E+01
(PID.TID 0000.0001) %MON dynstat_salt_min             =   3.4384753187301E+01
(PID.TID 0000.0001) %MON dynstat_salt_mean            =   3.4399393353830E+01
(PID.TID 0000.0001) %MON dynstat_salt_sd              =   1.7854503695429E-03
(PID.TID 0000.0001) %MON dynstat_salt_del2            =   4.1214725534438E-07
(PID.TID 0000.0001) %MON trAdv_CFL_u_max              =   1.8612088410975E-04
(PID.TID 0000.0001) %MON trAdv_CFL_v_max              =   8.5636960738706E-05
(PID.TID 0000.0001) %MON trAdv_CFL_w_max              =   2.5956876707499E-04
(PID.TID 0000.0001) %MON advcfl_uvel_max              =   1.8613159810890E-04
(PID.TID 0000.0001) %MON advcfl_vvel_max              =   8.5273054030490E-05
(PID.TID 0000.0001) %MON advcfl_wvel_max              =   2.5959176589525E-04
(PID.TID 0000.0001) %MON advcfl_W_hf_max              =   2.5959176589525E-04
(PID.TID 0000.0001) %MON pe_b_mean                    =  -1.4147269653600E-08
(PID.TID 0000.0001) %MON ke_max                       =   2.3548992766229E-07
(PID.TID 0000.0001) %MON ke_mean                      =   2.4750402308181E-09
(PID.TID 0000.0001) %MON ke_vol                       =   2.9241705273105E+14
(PID.TID 0000.0001) %MON vort_r_min                   =  -3.1897029419162E-08
(PID.TID 0000.0001) %MON vort_r_max                   =   8.1300286005293E-08
(PID.TID 0000.0001) %MON vort_a_mean                  =  -1.4007437453933E-04
(PID.TID 0000.0001) %MON vort_a_sd                    =   1.7682652718532E-06
(PID.TID 0000.0001) %MON vort_p_mean                  =  -1.5039772396679E-04
(PID.TID 0000.0001) %MON vort_p_sd                    =   8.7068344987999E-05
(PID.TID 0000.0001) %MON surfExpan_theta_mean         =   1.0604968472324E-14
(PID.TID 0000.0001) %MON surfExpan_salt_mean          =   3.9053033751733E-15
(PID.TID 0000.0001) // =======================================================
(PID.TID 0000.0001) // End MONITOR dynamic field statistics
(PID.TID 0000.0001) // =======================================================
 cg2d: Sum(rhs),rhsMax =  -3.37507799486048E-14  2.22488532397568E-04
(PID.TID 0000.0001)      cg2d_init_res =   1.24106672142520E-03
(PID.TID 0000.0001)      cg2d_iters(min,last) =      -1     177
(PID.TID 0000.0001)      cg2d_last_res =   9.56141444625070E-14
(PID.TID 0000.0001) // =======================================================
(PID.TID 0000.0001) // Begin MONITOR dynamic field statistics
(PID.TID 0000.0001) // =======================================================
(PID.TID 0000.0001) %MON time_tsnumber                =                  8644
(PID.TID 0000.0001) %MON time_secondsf                =   1.5559200000000E+07
(PID.TID 0000.0001) %MON dynstat_eta_max              =   1.0951823242318E-04
(PID.TID 0000.0001) %MON dynstat_eta_min              =  -3.3339004696382E-04
(PID.TID 0000.0001) %MON dynstat_eta_mean             =   8.4913280444728E-20
(PID.TID 0000.0001) %MON dynstat_eta_sd               =   4.9041112133889E-05
(PID.TID 0000.0001) %MON dynstat_eta_del2             =   7.3327936206092E-08
(PID.TID 0000.0001) %MON dynstat_uvel_max             =   1.3452622416315E-04
(PID.TID 0000.0001) %MON dynstat_uvel_min             =  -6.5517276223109E-04
(PID.TID 0000.0001) %MON dynstat_uvel_mean            =   3.2746777990039E-07
(PID.TID 0000.0001) %MON dynstat_uvel_sd              =   6.8358464470990E-05
(PID.TID 0000.0001) %MON dynstat_uvel_del2            =   3.3045178199660E-08
(PID.TID 0000.0001) %MON dynstat_vvel_max             =   5.2677525629203E-04
(PID.TID 0000.0001) %MON dynstat_vvel_min             =  -1.1978685159754E-04
(PID.TID 0000.0001) %MON dynstat_vvel_mean            =   2.2548704614574E-10
(PID.TID 0000.0001) %MON dynstat_vvel_sd              =   1.9437531690681E-05
(PID.TID 0000.0001) %MON dynstat_vvel_del2            =   1.8199010347710E-08
(PID.TID 0000.0001) %MON dynstat_wvel_max             =   3.9980615333521E-06
(PID.TID 0000.0001) %MON dynstat_wvel_min             =  -4.3269137411103E-06
(PID.TID 0000.0001) %MON dynstat_wvel_mean            =   3.1437625291171E-13
(PID.TID 0000.0001) %MON dynstat_wvel_sd              =   1.9503025649268E-07
(PID.TID 0000.0001) %MON dynstat_wvel_del2            =   6.2222812119072E-10
(PID.TID 0000.0001) %MON dynstat_theta_max            =  -1.9000000000000E+00
(PID.TID 0000.0001) %MON dynstat_theta_min            =  -1.9413622684897E+00
(PID.TID 0000.0001) %MON dynstat_theta_mean           =  -1.9016444488658E+00
(PID.TID 0000.0001) %MON dynstat_theta_sd             =   4.8405277845179E-03
(PID.TID 0000.0001) %MON dynstat_theta_del2           =   1.1175972988436E-06
(PID.TID 0000.0001) %MON dynstat_salt_max             =   3.4400000000000E+01
(PID.TID 0000.0001) %MON dynstat_salt_min             =   3.4384752140197E+01
(PID.TID 0000.0001) %MON dynstat_salt_mean            =   3.4399393285861E+01
(PID.TID 0000.0001) %MON dynstat_salt_sd              =   1.7856061422836E-03
(PID.TID 0000.0001) %MON dynstat_salt_del2            =   4.1214100064529E-07
(PID.TID 0000.0001) %MON trAdv_CFL_u_max              =   1.8613162173348E-04
(PID.TID 0000.0001) %MON trAdv_CFL_v_max              =   8.5650583386562E-05
(PID.TID 0000.0001) %MON trAdv_CFL_w_max              =   2.5959176589525E-04
(PID.TID 0000.0001) %MON advcfl_uvel_max              =   1.8614258784651E-04
(PID.TID 0000.0001) %MON advcfl_vvel_max              =   8.5286653198462E-05
(PID.TID 0000.0001) %MON advcfl_wvel_max              =   2.5961482446662E-04
(PID.TID 0000.0001) %MON advcfl_W_hf_max              =   2.5961482446662E-04
(PID.TID 0000.0001) %MON pe_b_mean                    =  -1.4147473639642E-08
(PID.TID 0000.0001) %MON ke_max                       =   2.3552772219659E-07
(PID.TID 0000.0001) %MON ke_mean                      =   2.4754979221524E-09
(PID.TID 0000.0001) %MON ke_vol                       =   2.9241705273105E+14
(PID.TID 0000.0001) %MON vort_r_min                   =  -3.1900811246565E-08
(PID.TID 0000.0001) %MON vort_r_max                   =   8.1313251604544E-08
(PID.TID 0000.0001) %MON vort_a_mean                  =  -1.4007437453974E-04
(PID.TID 0000.0001) %MON vort_a_sd                    =   1.7682652703292E-06
(PID.TID 0000.0001) %MON vort_p_mean                  =  -1.5039772396726E-04
(PID.TID 0000.0001) %MON vort_p_sd                    =   8.7068343921075E-05
(PID.TID 0000.0001) %MON surfExpan_theta_mean         =   1.0561701539217E-14
(PID.TID 0000.0001) %MON surfExpan_salt_mean          =   3.8893658761414E-15
(PID.TID 0000.0001) // =======================================================
(PID.TID 0000.0001) // End MONITOR dynamic field statistics
(PID.TID 0000.0001) // =======================================================
 cg2d: Sum(rhs),rhsMax =  -4.05231403988182E-14  2.22532254834996E-04
(PID.TID 0000.0001)      cg2d_init_res =   1.24120980652002E-03
(PID.TID 0000.0001)      cg2d_iters(min,last) =      -1     177
(PID.TID 0000.0001)      cg2d_last_res =   9.31834208915029E-14
(PID.TID 0000.0001) // =======================================================
(PID.TID 0000.0001) // Begin MONITOR dynamic field statistics
(PID.TID 0000.0001) // =======================================================
(PID.TID 0000.0001) %MON time_tsnumber                =                  8645
(PID.TID 0000.0001) %MON time_secondsf                =   1.5561000000000E+07
(PID.TID 0000.0001) %MON dynstat_eta_max              =   1.0953363600294E-04
(PID.TID 0000.0001) %MON dynstat_eta_min              =  -3.3342820990014E-04
(PID.TID 0000.0001) %MON dynstat_eta_mean             =   8.9305346674628E-20
(PID.TID 0000.0001) %MON dynstat_eta_sd               =   4.9047022784010E-05
(PID.TID 0000.0001) %MON dynstat_eta_del2             =   7.3331818463495E-08
(PID.TID 0000.0001) %MON dynstat_uvel_max             =   1.3453705121713E-04
(PID.TID 0000.0001) %MON dynstat_uvel_min             =  -6.5521240445786E-04
(PID.TID 0000.0001) %MON dynstat_uvel_mean            =   3.2753682690986E-07
(PID.TID 0000.0001) %MON dynstat_uvel_sd              =   6.8364094603577E-05
(PID.TID 0000.0001) %MON dynstat_uvel_del2            =   3.3045877987296E-08
(PID.TID 0000.0001) %MON dynstat_vvel_max             =   5.2685947852233E-04
(PID.TID 0000.0001) %MON dynstat_vvel_min             =  -1.1980279040633E-04
(PID.TID 0000.0001) %MON dynstat_vvel_mean            =   2.2303258907210E-10
(PID.TID 0000.0001) %MON dynstat_vvel_sd              =   1.9441883182019E-05
(PID.TID 0000.0001) %MON dynstat_vvel_del2            =   1.8199653821640E-08
(PID.TID 0000.0001) %MON dynstat_wvel_max             =   3.9983423052693E-06
(PID.TID 0000.0001) %MON dynstat_wvel_min             =  -4.3272992084685E-06
(PID.TID 0000.0001) %MON dynstat_wvel_mean            =   3.1393919464207E-13
(PID.TID 0000.0001) %MON dynstat_wvel_sd              =   1.9504931604137E-07
(PID.TID 0000.0001) %MON dynstat_wvel_del2            =   6.2228846819739E-10
(PID.TID 0000.0001) %MON dynstat_theta_max            =  -1.9000000000000E+00
(PID.TID 0000.0001) %MON dynstat_theta_min            =  -1.9413651089520E+00
(PID.TID 0000.0001) %MON dynstat_theta_mean           =  -1.9016446330944E+00
(PID.TID 0000.0001) %MON dynstat_theta_sd             =   4.8409500440035E-03
(PID.TID 0000.0001) %MON dynstat_theta_del2           =   1.1175826921909E-06
(PID.TID 0000.0001) %MON dynstat_salt_max             =   3.4400000000000E+01
(PID.TID 0000.0001) %MON dynstat_salt_min             =   3.4384751093242E+01
(PID.TID 0000.0001) %MON dynstat_salt_mean            =   3.4399393217892E+01
(PID.TID 0000.0001) %MON dynstat_salt_sd              =   1.7857619066863E-03
(PID.TID 0000.0001) %MON dynstat_salt_del2            =   4.1213562748926E-07
(PID.TID 0000.0001) %MON trAdv_CFL_u_max              =   1.8614261147248E-04
(PID.TID 0000.0001) %MON trAdv_CFL_v_max              =   8.5664242762125E-05
(PID.TID 0000.0001) %MON trAdv_CFL_w_max              =   2.5961482446662E-04
(PID.TID 0000.0001) %MON advcfl_uvel_max              =   1.8615385068756E-04
(PID.TID 0000.0001) %MON advcfl_vvel_max              =   8.5300289055615E-05
(PID.TID 0000.0001) %MON advcfl_wvel_max              =   2.5963795250811E-04
(PID.TID 0000.0001) %MON advcfl_W_hf_max              =   2.5963795250811E-04
(PID.TID 0000.0001) %MON pe_b_mean                    =  -1.4147681768156E-08
(PID.TID 0000.0001) %MON ke_max                       =   2.3556610821247E-07
(PID.TID 0000.0001) %MON ke_mean                      =   2.4759585697930E-09
(PID.TID 0000.0001) %MON ke_vol                       =   2.9241705273105E+14
(PID.TID 0000.0001) %MON vort_r_min                   =  -3.1904617091584E-08
(PID.TID 0000.0001) %MON vort_r_max                   =   8.1326252183674E-08
(PID.TID 0000.0001) %MON vort_a_mean                  =  -1.4007437454016E-04
(PID.TID 0000.0001) %MON vort_a_sd                    =   1.7682652687733E-06
(PID.TID 0000.0001) %MON vort_p_mean                  =  -1.5039772396773E-04
(PID.TID 0000.0001) %MON vort_p_sd                    =   8.7068342838119E-05
(PID.TID 0000.0001) %MON surfExpan_theta_mean         =   1.0548522859063E-14
(PID.TID 0000.0001) %MON surfExpan_salt_mean          =   3.8845101262233E-15
(PID.TID 0000.0001) // =======================================================
(PID.TID 0000.0001) // End MONITOR dynamic field statistics
(PID.TID 0000.0001) // =======================================================
 cg2d: Sum(rhs),rhsMax =  -6.22835116814713E-14  2.22575994970888E-04
(PID.TID 0000.0001)      cg2d_init_res =   1.24131732316673E-03
(PID.TID 0000.0001)      cg2d_iters(min,last) =      -1     176
(PID.TID 0000.0001)      cg2d_last_res =   9.97339161969949E-14
(PID.TID 0000.0001) // =======================================================
(PID.TID 0000.0001) // Begin MONITOR dynamic field statistics
(PID.TID 0000.0001) // =======================================================
(PID.TID 0000.0001) %MON time_tsnumber                =                  8646
(PID.TID 0000.0001) %MON time_secondsf                =   1.5562800000000E+07
(PID.TID 0000.0001) %MON dynstat_eta_max              =   1.0954905790921E-04
(PID.TID 0000.0001) %MON dynstat_eta_min              =  -3.3346640679331E-04
(PID.TID 0000.0001) %MON dynstat_eta_mean             =   9.3298134156355E-20
(PID.TID 0000.0001) %MON dynstat_eta_sd               =   4.9052940569568E-05
(PID.TID 0000.0001) %MON dynstat_eta_del2             =   7.3335706676976E-08
(PID.TID 0000.0001) %MON dynstat_uvel_max             =   1.3454793103275E-04
(PID.TID 0000.0001) %MON dynstat_uvel_min             =  -6.5525300005303E-04
(PID.TID 0000.0001) %MON dynstat_uvel_mean            =   3.2760590507321E-07
(PID.TID 0000.0001) %MON dynstat_uvel_sd              =   6.8369768447399E-05
(PID.TID 0000.0001) %MON dynstat_uvel_del2            =   3.3046603610264E-08
(PID.TID 0000.0001) %MON dynstat_vvel_max             =   5.2694377978544E-04
(PID.TID 0000.0001) %MON dynstat_vvel_min             =  -1.1981872150757E-04
(PID.TID 0000.0001) %MON dynstat_vvel_mean            =   2.2253192084395E-10
(PID.TID 0000.0001) %MON dynstat_vvel_sd              =   1.9446235319284E-05
(PID.TID 0000.0001) %MON dynstat_vvel_del2            =   1.8200234954453E-08
(PID.TID 0000.0001) %MON dynstat_wvel_max             =   3.9986249804670E-06
(PID.TID 0000.0001) %MON dynstat_wvel_min             =  -4.3276859100539E-06
(PID.TID 0000.0001) %MON dynstat_wvel_mean            =   3.1449044472798E-13
(PID.TID 0000.0001) %MON dynstat_wvel_sd              =   1.9506845613984E-07
(PID.TID 0000.0001) %MON dynstat_wvel_del2            =   6.2234884982838E-10
(PID.TID 0000.0001) %MON dynstat_theta_max            =  -1.9000000000000E+00
(PID.TID 0000.0001) %MON dynstat_theta_min            =  -1.9413679489977E+00
(PID.TID 0000.0001) %MON dynstat_theta_mean           =  -1.9016448173213E+00
(PID.TID 0000.0001) %MON dynstat_theta_sd             =   4.8413722809754E-03
(PID.TID 0000.0001) %MON dynstat_theta_del2           =   1.1175702449378E-06
(PID.TID 0000.0001) %MON dynstat_salt_max             =   3.4400000000000E+01
(PID.TID 0000.0001) %MON dynstat_salt_min             =   3.4384750046440E+01
(PID.TID 0000.0001) %MON dynstat_salt_mean            =   3.4399393149924E+01
(PID.TID 0000.0001) %MON dynstat_salt_sd              =   1.7859176627855E-03
(PID.TID 0000.0001) %MON dynstat_salt_del2            =   4.1213104943569E-07
(PID.TID 0000.0001) %MON trAdv_CFL_u_max              =   1.8615387431496E-04
(PID.TID 0000.0001) %MON trAdv_CFL_v_max              =   8.5677938989303E-05
(PID.TID 0000.0001) %MON trAdv_CFL_w_max              =   2.5963795250811E-04
(PID.TID 0000.0001) %MON advcfl_uvel_max              =   1.8616538439221E-04
(PID.TID 0000.0001) %MON advcfl_vvel_max              =   8.5313937708443E-05
(PID.TID 0000.0001) %MON advcfl_wvel_max              =   2.5966115460323E-04
(PID.TID 0000.0001) %MON advcfl_W_hf_max              =   2.5966115460323E-04
(PID.TID 0000.0001) %MON pe_b_mean                    =  -1.4147889168320E-08
(PID.TID 0000.0001) %MON ke_max                       =   2.3560502253948E-07
(PID.TID 0000.0001) %MON ke_mean                      =   2.4764222071621E-09
(PID.TID 0000.0001) %MON ke_vol                       =   2.9241705273105E+14
(PID.TID 0000.0001) %MON vort_r_min                   =  -3.1908449780915E-08
(PID.TID 0000.0001) %MON vort_r_max                   =   8.1339264962342E-08
(PID.TID 0000.0001) %MON vort_a_mean                  =  -1.4007437454058E-04
(PID.TID 0000.0001) %MON vort_a_sd                    =   1.7682652672371E-06
(PID.TID 0000.0001) %MON vort_p_mean                  =  -1.5039772396820E-04
(PID.TID 0000.0001) %MON vort_p_sd                    =   8.7068341740018E-05
(PID.TID 0000.0001) %MON surfExpan_theta_mean         =   1.0568487022173E-14
(PID.TID 0000.0001) %MON surfExpan_salt_mean          =   3.8918629042300E-15
(PID.TID 0000.0001) // =======================================================
(PID.TID 0000.0001) // End MONITOR dynamic field statistics
(PID.TID 0000.0001) // =======================================================
 cg2d: Sum(rhs),rhsMax =  -3.85247389544929E-14  2.22619749018005E-04
(PID.TID 0000.0001)      cg2d_init_res =   1.24137571768654E-03
(PID.TID 0000.0001)      cg2d_iters(min,last) =      -1     176
(PID.TID 0000.0001)      cg2d_last_res =   9.92013437944448E-14
(PID.TID 0000.0001) // =======================================================
(PID.TID 0000.0001) // Begin MONITOR dynamic field statistics
(PID.TID 0000.0001) // =======================================================
(PID.TID 0000.0001) %MON time_tsnumber                =                  8647
(PID.TID 0000.0001) %MON time_secondsf                =   1.5564600000000E+07
(PID.TID 0000.0001) %MON dynstat_eta_max              =   1.0956448444657E-04
(PID.TID 0000.0001) %MON dynstat_eta_min              =  -3.3350465593525E-04
(PID.TID 0000.0001) %MON dynstat_eta_mean             =   7.9855749634540E-20
(PID.TID 0000.0001) %MON dynstat_eta_sd               =   4.9058866290794E-05
(PID.TID 0000.0001) %MON dynstat_eta_del2             =   7.3339600934589E-08
(PID.TID 0000.0001) %MON dynstat_uvel_max             =   1.3455885826699E-04
(PID.TID 0000.0001) %MON dynstat_uvel_min             =  -6.5529446289038E-04
(PID.TID 0000.0001) %MON dynstat_uvel_mean            =   3.2767497264161E-07
(PID.TID 0000.0001) %MON dynstat_uvel_sd              =   6.8375483183340E-05
(PID.TID 0000.0001) %MON dynstat_uvel_del2            =   3.3047353182474E-08
(PID.TID 0000.0001) %MON dynstat_vvel_max             =   5.2702802503373E-04
(PID.TID 0000.0001) %MON dynstat_vvel_min             =  -1.1983463346044E-04
(PID.TID 0000.0001) %MON dynstat_vvel_mean            =   2.2418234457384E-10
(PID.TID 0000.0001) %MON dynstat_vvel_sd              =   1.9450586789000E-05
(PID.TID 0000.0001) %MON dynstat_vvel_del2            =   1.8200755314692E-08
(PID.TID 0000.0001) %MON dynstat_wvel_max             =   3.9989093094617E-06
(PID.TID 0000.0001) %MON dynstat_wvel_min             =  -4.3280737857167E-06
(PID.TID 0000.0001) %MON dynstat_wvel_mean            =   3.1587956680381E-13
(PID.TID 0000.0001) %MON dynstat_wvel_sd              =   1.9508766908070E-07
(PID.TID 0000.0001) %MON dynstat_wvel_del2            =   6.2240922967587E-10
(PID.TID 0000.0001) %MON dynstat_theta_max            =  -1.9000000000000E+00
(PID.TID 0000.0001) %MON dynstat_theta_min            =  -1.9413707886153E+00
(PID.TID 0000.0001) %MON dynstat_theta_mean           =  -1.9016450015467E+00
(PID.TID 0000.0001) %MON dynstat_theta_sd             =   4.8417944955209E-03
(PID.TID 0000.0001) %MON dynstat_theta_del2           =   1.1175597648186E-06
(PID.TID 0000.0001) %MON dynstat_salt_max             =   3.4400000000000E+01
(PID.TID 0000.0001) %MON dynstat_salt_min             =   3.4384748999796E+01
(PID.TID 0000.0001) %MON dynstat_salt_mean            =   3.4399393081957E+01
(PID.TID 0000.0001) %MON dynstat_salt_sd              =   1.7860734106133E-03
(PID.TID 0000.0001) %MON dynstat_salt_del2            =   4.1212719569006E-07
(PID.TID 0000.0001) %MON trAdv_CFL_u_max              =   1.8616540802108E-04
(PID.TID 0000.0001) %MON trAdv_CFL_v_max              =   8.5691648068805E-05
(PID.TID 0000.0001) %MON trAdv_CFL_w_max              =   2.5966115460323E-04
(PID.TID 0000.0001) %MON advcfl_uvel_max              =   1.8617716449097E-04
(PID.TID 0000.0001) %MON advcfl_vvel_max              =   8.5327577292286E-05
(PID.TID 0000.0001) %MON advcfl_wvel_max              =   2.5968442714300E-04
(PID.TID 0000.0001) %MON advcfl_W_hf_max              =   2.5968442714300E-04
(PID.TID 0000.0001) %MON pe_b_mean                    =  -1.4148089367194E-08
(PID.TID 0000.0001) %MON ke_max                       =   2.3564435961372E-07
(PID.TID 0000.0001) %MON ke_mean                      =   2.4768886209117E-09
(PID.TID 0000.0001) %MON ke_vol                       =   2.9241705273105E+14
(PID.TID 0000.0001) %MON vort_r_min                   =  -3.1912309914399E-08
(PID.TID 0000.0001) %MON vort_r_max                   =   8.1352269094539E-08
(PID.TID 0000.0001) %MON vort_a_mean                  =  -1.4007437454099E-04
(PID.TID 0000.0001) %MON vort_a_sd                    =   1.7682652657130E-06
(PID.TID 0000.0001) %MON vort_p_mean                  =  -1.5039772396868E-04
(PID.TID 0000.0001) %MON vort_p_sd                    =   8.7068340628646E-05
(PID.TID 0000.0001) %MON surfExpan_theta_mean         =   1.0615847475337E-14
(PID.TID 0000.0001) %MON surfExpan_salt_mean          =   3.9093089529043E-15
(PID.TID 0000.0001) // =======================================================
(PID.TID 0000.0001) // End MONITOR dynamic field statistics
(PID.TID 0000.0001) // =======================================================
 cg2d: Sum(rhs),rhsMax =  -4.15223411209809E-14  2.22663511923819E-04
(PID.TID 0000.0001)      cg2d_init_res =   1.24138005119299E-03
(PID.TID 0000.0001)      cg2d_iters(min,last) =      -1     177
(PID.TID 0000.0001)      cg2d_last_res =   9.19458069544664E-14
(PID.TID 0000.0001) // =======================================================
(PID.TID 0000.0001) // Begin MONITOR dynamic field statistics
(PID.TID 0000.0001) // =======================================================
(PID.TID 0000.0001) %MON time_tsnumber                =                  8648
(PID.TID 0000.0001) %MON time_secondsf                =   1.5566400000000E+07
(PID.TID 0000.0001) %MON dynstat_eta_max              =   1.0957989742193E-04
(PID.TID 0000.0001) %MON dynstat_eta_min              =  -3.3354295646087E-04
(PID.TID 0000.0001) %MON dynstat_eta_mean             =   8.2517607955692E-20
(PID.TID 0000.0001) %MON dynstat_eta_sd               =   4.9064797973900E-05
(PID.TID 0000.0001) %MON dynstat_eta_del2             =   7.3343501174360E-08
(PID.TID 0000.0001) %MON dynstat_uvel_max             =   1.3456982370181E-04
(PID.TID 0000.0001) %MON dynstat_uvel_min             =  -6.5533664976814E-04
(PID.TID 0000.0001) %MON dynstat_uvel_mean            =   3.2774409404670E-07
(PID.TID 0000.0001) %MON dynstat_uvel_sd              =   6.8381233130939E-05
(PID.TID 0000.0001) %MON dynstat_uvel_del2            =   3.3048121881486E-08
(PID.TID 0000.0001) %MON dynstat_vvel_max             =   5.2711209450995E-04
(PID.TID 0000.0001) %MON dynstat_vvel_min             =  -1.1985051662974E-04
(PID.TID 0000.0001) %MON dynstat_vvel_mean            =   2.2777618610329E-10
(PID.TID 0000.0001) %MON dynstat_vvel_sd              =   1.9454936402410E-05
(PID.TID 0000.0001) %MON dynstat_vvel_del2            =   1.8201215673656E-08
(PID.TID 0000.0001) %MON dynstat_wvel_max             =   3.9991949084298E-06
(PID.TID 0000.0001) %MON dynstat_wvel_min             =  -4.3284626753033E-06
(PID.TID 0000.0001) %MON dynstat_wvel_mean            =   3.1784569237333E-13
(PID.TID 0000.0001) %MON dynstat_wvel_sd              =   1.9510694195167E-07
(PID.TID 0000.0001) %MON dynstat_wvel_del2            =   6.2246956015256E-10
(PID.TID 0000.0001) %MON dynstat_theta_max            =  -1.9000000000000E+00
(PID.TID 0000.0001) %MON dynstat_theta_min            =  -1.9413736277942E+00
(PID.TID 0000.0001) %MON dynstat_theta_mean           =  -1.9016451857705E+00
(PID.TID 0000.0001) %MON dynstat_theta_sd             =   4.8422166877203E-03
(PID.TID 0000.0001) %MON dynstat_theta_del2           =   1.1175510855519E-06
(PID.TID 0000.0001) %MON dynstat_salt_max             =   3.4400000000000E+01
(PID.TID 0000.0001) %MON dynstat_salt_min             =   3.4384747953314E+01
(PID.TID 0000.0001) %MON dynstat_salt_mean            =   3.4399393013990E+01
(PID.TID 0000.0001) %MON dynstat_salt_sd              =   1.7862291501994E-03
(PID.TID 0000.0001) %MON dynstat_salt_del2            =   4.1212400502727E-07
(PID.TID 0000.0001) %MON trAdv_CFL_u_max              =   1.8617718812133E-04
(PID.TID 0000.0001) %MON trAdv_CFL_v_max              =   8.5705348039173E-05
(PID.TID 0000.0001) %MON trAdv_CFL_w_max              =   2.5968442714300E-04
(PID.TID 0000.0001) %MON advcfl_uvel_max              =   1.8618915029846E-04
(PID.TID 0000.0001) %MON advcfl_vvel_max              =   8.5341188418050E-05
(PID.TID 0000.0001) %MON advcfl_wvel_max              =   2.5970776051820E-04
(PID.TID 0000.0001) %MON advcfl_W_hf_max              =   2.5970776051820E-04
(PID.TID 0000.0001) %MON pe_b_mean                    =  -1.4148276440553E-08
(PID.TID 0000.0001) %MON ke_max                       =   2.3568398981068E-07
(PID.TID 0000.0001) %MON ke_mean                      =   2.4773574083756E-09
(PID.TID 0000.0001) %MON ke_vol                       =   2.9241705273105E+14
(PID.TID 0000.0001) %MON vort_r_min                   =  -3.1916197034098E-08
(PID.TID 0000.0001) %MON vort_r_max                   =   8.1365246094483E-08
(PID.TID 0000.0001) %MON vort_a_mean                  =  -1.4007437454141E-04
(PID.TID 0000.0001) %MON vort_a_sd                    =   1.7682652641852E-06
(PID.TID 0000.0001) %MON vort_p_mean                  =  -1.5039772396915E-04
(PID.TID 0000.0001) %MON vort_p_sd                    =   8.7068339506529E-05
(PID.TID 0000.0001) %MON surfExpan_theta_mean         =   1.0681263505281E-14
(PID.TID 0000.0001) %MON surfExpan_salt_mean          =   3.9334075804125E-15
(PID.TID 0000.0001) // =======================================================
(PID.TID 0000.0001) // End MONITOR dynamic field statistics
(PID.TID 0000.0001) // =======================================================
 cg2d: Sum(rhs),rhsMax =  -6.69464483848969E-14  2.22707280542117E-04
(PID.TID 0000.0001)      cg2d_init_res =   1.24131162003954E-03
(PID.TID 0000.0001)      cg2d_iters(min,last) =      -1     177
(PID.TID 0000.0001)      cg2d_last_res =   9.41957389968913E-14
(PID.TID 0000.0001) // =======================================================
(PID.TID 0000.0001) // Begin MONITOR dynamic field statistics
(PID.TID 0000.0001) // =======================================================
(PID.TID 0000.0001) %MON time_tsnumber                =                  8649
(PID.TID 0000.0001) %MON time_secondsf                =   1.5568200000000E+07
(PID.TID 0000.0001) %MON dynstat_eta_max              =   1.0959528044824E-04
(PID.TID 0000.0001) %MON dynstat_eta_min              =  -3.3358129691904E-04
(PID.TID 0000.0001) %MON dynstat_eta_mean             =   8.8639882094340E-20
(PID.TID 0000.0001) %MON dynstat_eta_sd               =   4.9070732999351E-05
(PID.TID 0000.0001) %MON dynstat_eta_del2             =   7.3347407070755E-08
(PID.TID 0000.0001) %MON dynstat_uvel_max             =   1.3458081504164E-04
(PID.TID 0000.0001) %MON dynstat_uvel_min             =  -6.5537937519755E-04
(PID.TID 0000.0001) %MON dynstat_uvel_mean            =   3.2781338266883E-07
(PID.TID 0000.0001) %MON dynstat_uvel_sd              =   6.8387010277509E-05
(PID.TID 0000.0001) %MON dynstat_uvel_del2            =   3.3048902619264E-08
(PID.TID 0000.0001) %MON dynstat_vvel_max             =   5.2719588659779E-04
(PID.TID 0000.0001) %MON dynstat_vvel_min             =  -1.1986636311321E-04
(PID.TID 0000.0001) %MON dynstat_vvel_mean            =   2.3279262932237E-10
(PID.TID 0000.0001) %MON dynstat_vvel_sd              =   1.9459283165073E-05
(PID.TID 0000.0001) %MON dynstat_vvel_del2            =   1.8201616757739E-08
(PID.TID 0000.0001) %MON dynstat_wvel_max             =   3.9994812917791E-06
(PID.TID 0000.0001) %MON dynstat_wvel_min             =  -4.3288523324516E-06
(PID.TID 0000.0001) %MON dynstat_wvel_mean            =   3.2010779783380E-13
(PID.TID 0000.0001) %MON dynstat_wvel_sd              =   1.9512625791350E-07
(PID.TID 0000.0001) %MON dynstat_wvel_del2            =   6.2252978788811E-10
(PID.TID 0000.0001) %MON dynstat_theta_max            =  -1.9000000000000E+00
(PID.TID 0000.0001) %MON dynstat_theta_min            =  -1.9413764665247E+00
(PID.TID 0000.0001) %MON dynstat_theta_mean           =  -1.9016453699926E+00
(PID.TID 0000.0001) %MON dynstat_theta_sd             =   4.8426388576495E-03
(PID.TID 0000.0001) %MON dynstat_theta_del2           =   1.1175440593852E-06
(PID.TID 0000.0001) %MON dynstat_salt_max             =   3.4400000000000E+01
(PID.TID 0000.0001) %MON dynstat_salt_min             =   3.4384746906997E+01
(PID.TID 0000.0001) %MON dynstat_salt_mean            =   3.4399392946024E+01
(PID.TID 0000.0001) %MON dynstat_salt_sd              =   1.7863848815715E-03
(PID.TID 0000.0001) %MON dynstat_salt_del2            =   4.1212142304493E-07
(PID.TID 0000.0001) %MON trAdv_CFL_u_max              =   1.8618917393034E-04
(PID.TID 0000.0001) %MON trAdv_CFL_v_max              =   8.5719019425467E-05
(PID.TID 0000.0001) %MON trAdv_CFL_w_max              =   2.5970776051820E-04
(PID.TID 0000.0001) %MON advcfl_uvel_max              =   1.8620128911505E-04
(PID.TID 0000.0001) %MON advcfl_vvel_max              =   8.5354754633720E-05
(PID.TID 0000.0001) %MON advcfl_wvel_max              =   2.5973113994710E-04
(PID.TID 0000.0001) %MON advcfl_W_hf_max              =   2.5973113994710E-04
(PID.TID 0000.0001) %MON pe_b_mean                    =  -1.4148446429251E-08
(PID.TID 0000.0001) %MON ke_max                       =   2.3572377069845E-07
(PID.TID 0000.0001) %MON ke_mean                      =   2.4778280142566E-09
(PID.TID 0000.0001) %MON ke_vol                       =   2.9241705273105E+14
(PID.TID 0000.0001) %MON vort_r_min                   =  -3.1920109668765E-08
(PID.TID 0000.0001) %MON vort_r_max                   =   8.1378180276642E-08
(PID.TID 0000.0001) %MON vort_a_mean                  =  -1.4007437454183E-04
(PID.TID 0000.0001) %MON vort_a_sd                    =   1.7682652626564E-06
(PID.TID 0000.0001) %MON vort_p_mean                  =  -1.5039772396962E-04
(PID.TID 0000.0001) %MON vort_p_sd                    =   8.7068338376717E-05
(PID.TID 0000.0001) %MON surfExpan_theta_mean         =   1.0755369282840E-14
(PID.TID 0000.0001) %MON surfExpan_salt_mean          =   3.9607084645437E-15
(PID.TID 0000.0001) // =======================================================
(PID.TID 0000.0001) // End MONITOR dynamic field statistics
(PID.TID 0000.0001) // =======================================================
 cg2d: Sum(rhs),rhsMax =  -5.63993296509580E-14  2.22751049784837E-04
(PID.TID 0000.0001)      cg2d_init_res =   1.24117417122866E-03
(PID.TID 0000.0001)      cg2d_iters(min,last) =      -1     177
(PID.TID 0000.0001)      cg2d_last_res =   9.73303770899631E-14
(PID.TID 0000.0001) // =======================================================
(PID.TID 0000.0001) // Begin MONITOR dynamic field statistics
(PID.TID 0000.0001) // =======================================================
(PID.TID 0000.0001) %MON time_tsnumber                =                  8650
(PID.TID 0000.0001) %MON time_secondsf                =   1.5570000000000E+07
(PID.TID 0000.0001) %MON dynstat_eta_max              =   1.0961062208097E-04
(PID.TID 0000.0001) %MON dynstat_eta_min              =  -3.3361966284670E-04
(PID.TID 0000.0001) %MON dynstat_eta_mean             =   9.1168647499434E-20
(PID.TID 0000.0001) %MON dynstat_eta_sd               =   4.9076669171247E-05
(PID.TID 0000.0001) %MON dynstat_eta_del2             =   7.3351318001319E-08
(PID.TID 0000.0001) %MON dynstat_uvel_max             =   1.3459181770659E-04
(PID.TID 0000.0001) %MON dynstat_uvel_min             =  -6.5542242653335E-04
(PID.TID 0000.0001) %MON dynstat_uvel_mean            =   3.2788292845865E-07
(PID.TID 0000.0001) %MON dynstat_uvel_sd              =   6.8392804899708E-05
(PID.TID 0000.0001) %MON dynstat_uvel_del2            =   3.3049686703645E-08
(PID.TID 0000.0001) %MON dynstat_vvel_max             =   5.2727932309442E-04
(PID.TID 0000.0001) %MON dynstat_vvel_min             =  -1.1988216755732E-04
(PID.TID 0000.0001) %MON dynstat_vvel_mean            =   2.3851249370859E-10
(PID.TID 0000.0001) %MON dynstat_vvel_sd              =   1.9463626343159E-05
(PID.TID 0000.0001) %MON dynstat_vvel_del2            =   1.8201959856447E-08
(PID.TID 0000.0001) %MON dynstat_wvel_max             =   3.9997679259645E-06
(PID.TID 0000.0001) %MON dynstat_wvel_min             =  -4.3292424526828E-06
(PID.TID 0000.0001) %MON dynstat_wvel_mean            =   3.2240146321286E-13
(PID.TID 0000.0001) %MON dynstat_wvel_sd              =   1.9514559757119E-07
(PID.TID 0000.0001) %MON dynstat_wvel_del2            =   6.2258985881187E-10
(PID.TID 0000.0001) %MON dynstat_theta_max            =  -1.9000000000000E+00
(PID.TID 0000.0001) %MON dynstat_theta_min            =  -1.9413793047980E+00
(PID.TID 0000.0001) %MON dynstat_theta_mean           =  -1.9016455542132E+00
(PID.TID 0000.0001) %MON dynstat_theta_sd             =   4.8430610053791E-03
(PID.TID 0000.0001) %MON dynstat_theta_del2           =   1.1175385533441E-06
(PID.TID 0000.0001) %MON dynstat_salt_max             =   3.4400000000000E+01
(PID.TID 0000.0001) %MON dynstat_salt_min             =   3.4384745860848E+01
(PID.TID 0000.0001) %MON dynstat_salt_mean            =   3.4399392878058E+01
(PID.TID 0000.0001) %MON dynstat_salt_sd              =   1.7865406047559E-03
(PID.TID 0000.0001) %MON dynstat_salt_del2            =   4.1211940078238E-07
(PID.TID 0000.0001) %MON trAdv_CFL_u_max              =   1.8620131274848E-04
(PID.TID 0000.0001) %MON trAdv_CFL_v_max              =   8.5732645702839E-05
(PID.TID 0000.0001) %MON trAdv_CFL_w_max              =   2.5973113994710E-04
(PID.TID 0000.0001) %MON advcfl_uvel_max              =   1.8621352052564E-04
(PID.TID 0000.0001) %MON advcfl_vvel_max              =   8.5368263277998E-05
(PID.TID 0000.0001) %MON advcfl_wvel_max              =   2.5975454716097E-04
(PID.TID 0000.0001) %MON advcfl_W_hf_max              =   2.5975454716097E-04
(PID.TID 0000.0001) %MON pe_b_mean                    =  -1.4148597825264E-08
(PID.TID 0000.0001) %MON ke_max                       =   2.3576355741752E-07
(PID.TID 0000.0001) %MON ke_mean                      =   2.4782997734583E-09
(PID.TID 0000.0001) %MON ke_vol                       =   2.9241705273105E+14
(PID.TID 0000.0001) %MON vort_r_min                   =  -3.1924045414220E-08
(PID.TID 0000.0001) %MON vort_r_max                   =   8.1391059569589E-08
(PID.TID 0000.0001) %MON vort_a_mean                  =  -1.4007437454224E-04
(PID.TID 0000.0001) %MON vort_a_sd                    =   1.7682652611567E-06
(PID.TID 0000.0001) %MON vort_p_mean                  =  -1.5039772397009E-04
(PID.TID 0000.0001) %MON vort_p_sd                    =   8.7068337242560E-05
(PID.TID 0000.0001) %MON surfExpan_theta_mean         =   1.0829810588957E-14
(PID.TID 0000.0001) %MON surfExpan_salt_mean          =   3.9881336177950E-15
(PID.TID 0000.0001) // =======================================================
(PID.TID 0000.0001) // End MONITOR dynamic field statistics
(PID.TID 0000.0001) // =======================================================
 cg2d: Sum(rhs),rhsMax =  -3.28626015289046E-14  2.22794819681298E-04
(PID.TID 0000.0001)      cg2d_init_res =   1.24097121790797E-03
(PID.TID 0000.0001)      cg2d_iters(min,last) =      -1     178
(PID.TID 0000.0001)      cg2d_last_res =   8.58961274378736E-14
(PID.TID 0000.0001) // =======================================================
(PID.TID 0000.0001) // Begin MONITOR dynamic field statistics
(PID.TID 0000.0001) // =======================================================
(PID.TID 0000.0001) %MON time_tsnumber                =                  8651
(PID.TID 0000.0001) %MON time_secondsf                =   1.5571800000000E+07
(PID.TID 0000.0001) %MON dynstat_eta_max              =   1.0962591701153E-04
(PID.TID 0000.0001) %MON dynstat_eta_min              =  -3.3365803964200E-04
(PID.TID 0000.0001) %MON dynstat_eta_mean             =   7.8258634641850E-20
(PID.TID 0000.0001) %MON dynstat_eta_sd               =   4.9082604964787E-05
(PID.TID 0000.0001) %MON dynstat_eta_del2             =   7.3355233233452E-08
(PID.TID 0000.0001) %MON dynstat_uvel_max             =   1.3460281619339E-04
(PID.TID 0000.0001) %MON dynstat_uvel_min             =  -6.5546557959692E-04
(PID.TID 0000.0001) %MON dynstat_uvel_mean            =   3.2795275887056E-07
(PID.TID 0000.0001) %MON dynstat_uvel_sd              =   6.8398606284561E-05
(PID.TID 0000.0001) %MON dynstat_uvel_del2            =   3.3050464522202E-08
(PID.TID 0000.0001) %MON dynstat_vvel_max             =   5.2736235244700E-04
(PID.TID 0000.0001) %MON dynstat_vvel_min             =  -1.1989792764763E-04
(PID.TID 0000.0001) %MON dynstat_vvel_mean            =   2.4414003228206E-10
(PID.TID 0000.0001) %MON dynstat_vvel_sd              =   1.9467965513841E-05
(PID.TID 0000.0001) %MON dynstat_vvel_del2            =   1.8202247181284E-08
(PID.TID 0000.0001) %MON dynstat_wvel_max             =   4.0000542618464E-06
(PID.TID 0000.0001) %MON dynstat_wvel_min             =  -4.3296326911243E-06
(PID.TID 0000.0001) %MON dynstat_wvel_mean            =   3.2448405134390E-13
(PID.TID 0000.0001) %MON dynstat_wvel_sd              =   1.9516494050314E-07
(PID.TID 0000.0001) %MON dynstat_wvel_del2            =   6.2264972489250E-10
(PID.TID 0000.0001) %MON dynstat_theta_max            =  -1.9000000000000E+00
(PID.TID 0000.0001) %MON dynstat_theta_min            =  -1.9413821426061E+00
(PID.TID 0000.0001) %MON dynstat_theta_mean           =  -1.9016457384322E+00
(PID.TID 0000.0001) %MON dynstat_theta_sd             =   4.8434831309755E-03
(PID.TID 0000.0001) %MON dynstat_theta_del2           =   1.1175344470384E-06
(PID.TID 0000.0001) %MON dynstat_salt_max             =   3.4400000000000E+01
(PID.TID 0000.0001) %MON dynstat_salt_min             =   3.4384744814870E+01
(PID.TID 0000.0001) %MON dynstat_salt_mean            =   3.4399392810093E+01
(PID.TID 0000.0001) %MON dynstat_salt_sd              =   1.7866963197770E-03
(PID.TID 0000.0001) %MON dynstat_salt_del2            =   4.1211789391251E-07
(PID.TID 0000.0001) %MON trAdv_CFL_u_max              =   1.8621354416061E-04
(PID.TID 0000.0001) %MON trAdv_CFL_v_max              =   8.5746214153932E-05
(PID.TID 0000.0001) %MON trAdv_CFL_w_max              =   2.5975454716097E-04
(PID.TID 0000.0001) %MON advcfl_uvel_max              =   1.8622578083832E-04
(PID.TID 0000.0001) %MON advcfl_vvel_max              =   8.5381706004312E-05
(PID.TID 0000.0001) %MON advcfl_wvel_max              =   2.5977796146746E-04
(PID.TID 0000.0001) %MON advcfl_W_hf_max              =   2.5977796146746E-04
(PID.TID 0000.0001) %MON pe_b_mean                    =  -1.4148731529592E-08
(PID.TID 0000.0001) %MON ke_max                       =   2.3580321266563E-07
(PID.TID 0000.0001) %MON ke_mean                      =   2.4787719603075E-09
(PID.TID 0000.0001) %MON ke_vol                       =   2.9241705273105E+14
(PID.TID 0000.0001) %MON vort_r_min                   =  -3.1928001048096E-08
(PID.TID 0000.0001) %MON vort_r_max                   =   8.1403876015609E-08
(PID.TID 0000.0001) %MON vort_a_mean                  =  -1.4007437454266E-04
(PID.TID 0000.0001) %MON vort_a_sd                    =   1.7682652595026E-06
(PID.TID 0000.0001) %MON vort_p_mean                  =  -1.5039772397057E-04
(PID.TID 0000.0001) %MON vort_p_sd                    =   8.7068336107487E-05
(PID.TID 0000.0001) %MON surfExpan_theta_mean         =   1.0897089446527E-14
(PID.TID 0000.0001) %MON surfExpan_salt_mean          =   4.0129204326637E-15
(PID.TID 0000.0001) // =======================================================
(PID.TID 0000.0001) // End MONITOR dynamic field statistics
(PID.TID 0000.0001) // =======================================================
 cg2d: Sum(rhs),rhsMax =  -6.05071548420710E-14  2.22838586942099E-04
(PID.TID 0000.0001)      cg2d_init_res =   1.24070908845687E-03
(PID.TID 0000.0001)      cg2d_iters(min,last) =      -1     178
(PID.TID 0000.0001)      cg2d_last_res =   8.86063797704038E-14
(PID.TID 0000.0001) // =======================================================
(PID.TID 0000.0001) // Begin MONITOR dynamic field statistics
(PID.TID 0000.0001) // =======================================================
(PID.TID 0000.0001) %MON time_tsnumber                =                  8652
(PID.TID 0000.0001) %MON time_secondsf                =   1.5573600000000E+07
(PID.TID 0000.0001) %MON dynstat_eta_max              =   1.0964116554756E-04
(PID.TID 0000.0001) %MON dynstat_eta_min              =  -3.3369641262035E-04
(PID.TID 0000.0001) %MON dynstat_eta_mean             =   8.5978023773188E-20
(PID.TID 0000.0001) %MON dynstat_eta_sd               =   4.9088539404919E-05
(PID.TID 0000.0001) %MON dynstat_eta_del2             =   7.3359151873764E-08
(PID.TID 0000.0001) %MON dynstat_uvel_max             =   1.3461379478685E-04
(PID.TID 0000.0001) %MON dynstat_uvel_min             =  -6.5550861438251E-04
(PID.TID 0000.0001) %MON dynstat_uvel_mean            =   3.2802283794003E-07
(PID.TID 0000.0001) %MON dynstat_uvel_sd              =   6.8404403497044E-05
(PID.TID 0000.0001) %MON dynstat_uvel_del2            =   3.3051226240927E-08
(PID.TID 0000.0001) %MON dynstat_vvel_max             =   5.2744495108640E-04
(PID.TID 0000.0001) %MON dynstat_vvel_min             =  -1.1991364413504E-04
(PID.TID 0000.0001) %MON dynstat_vvel_mean            =   2.4891809851401E-10
(PID.TID 0000.0001) %MON dynstat_vvel_sd              =   1.9472300589617E-05
(PID.TID 0000.0001) %MON dynstat_vvel_del2            =   1.8202482042077E-08
(PID.TID 0000.0001) %MON dynstat_wvel_max             =   4.0003397853251E-06
(PID.TID 0000.0001) %MON dynstat_wvel_min             =  -4.3300227010829E-06
(PID.TID 0000.0001) %MON dynstat_wvel_mean            =   3.2613799118264E-13
(PID.TID 0000.0001) %MON dynstat_wvel_sd              =   1.9518426677353E-07
(PID.TID 0000.0001) %MON dynstat_wvel_del2            =   6.2270934649130E-10
(PID.TID 0000.0001) %MON dynstat_theta_max            =  -1.9000000000000E+00
(PID.TID 0000.0001) %MON dynstat_theta_min            =  -1.9413849799413E+00
(PID.TID 0000.0001) %MON dynstat_theta_mean           =  -1.9016459226497E+00
(PID.TID 0000.0001) %MON dynstat_theta_sd             =   4.8439052345010E-03
(PID.TID 0000.0001) %MON dynstat_theta_del2           =   1.1175316311586E-06
(PID.TID 0000.0001) %MON dynstat_salt_max             =   3.4400000000000E+01
(PID.TID 0000.0001) %MON dynstat_salt_min             =   3.4384743769067E+01
(PID.TID 0000.0001) %MON dynstat_salt_mean            =   3.4399392742129E+01
(PID.TID 0000.0001) %MON dynstat_salt_sd              =   1.7868520266576E-03
(PID.TID 0000.0001) %MON dynstat_salt_del2            =   4.1211686218787E-07
(PID.TID 0000.0001) %MON trAdv_CFL_u_max              =   1.8622580447485E-04
(PID.TID 0000.0001) %MON trAdv_CFL_v_max              =   8.5759716395222E-05
(PID.TID 0000.0001) %MON trAdv_CFL_w_max              =   2.5977796146746E-04
(PID.TID 0000.0001) %MON advcfl_uvel_max              =   1.8623800754678E-04
(PID.TID 0000.0001) %MON advcfl_vvel_max              =   8.5395078996740E-05
(PID.TID 0000.0001) %MON advcfl_wvel_max              =   2.5980136206498E-04
(PID.TID 0000.0001) %MON advcfl_W_hf_max              =   2.5980136206498E-04
(PID.TID 0000.0001) %MON pe_b_mean                    =  -1.4148850577597E-08
(PID.TID 0000.0001) %MON ke_max                       =   2.3584261515968E-07
(PID.TID 0000.0001) %MON ke_mean                      =   2.4792438404339E-09
(PID.TID 0000.0001) %MON ke_vol                       =   2.9241705273105E+14
(PID.TID 0000.0001) %MON vort_r_min                   =  -3.1931972679401E-08
(PID.TID 0000.0001) %MON vort_r_max                   =   8.1416625976561E-08
(PID.TID 0000.0001) %MON vort_a_mean                  =  -1.4007437454308E-04
(PID.TID 0000.0001) %MON vort_a_sd                    =   1.7682652580655E-06
(PID.TID 0000.0001) %MON vort_p_mean                  =  -1.5039772397104E-04
(PID.TID 0000.0001) %MON vort_p_sd                    =   8.7068334974820E-05
(PID.TID 0000.0001) %MON surfExpan_theta_mean         =   1.0950477472518E-14
(PID.TID 0000.0001) %MON surfExpan_salt_mean          =   4.0325898315987E-15
(PID.TID 0000.0001) // =======================================================
(PID.TID 0000.0001) // End MONITOR dynamic field statistics
(PID.TID 0000.0001) // =======================================================
 cg2d: Sum(rhs),rhsMax =  -4.97379915032070E-14  2.22882349551848E-04
(PID.TID 0000.0001)      cg2d_init_res =   1.24040448175871E-03
(PID.TID 0000.0001)      cg2d_iters(min,last) =      -1     178
(PID.TID 0000.0001)      cg2d_last_res =   9.10926100948352E-14
(PID.TID 0000.0001) // =======================================================
(PID.TID 0000.0001) // Begin MONITOR dynamic field statistics
(PID.TID 0000.0001) // =======================================================
(PID.TID 0000.0001) %MON time_tsnumber                =                  8653
(PID.TID 0000.0001) %MON time_secondsf                =   1.5575400000000E+07
(PID.TID 0000.0001) %MON dynstat_eta_max              =   1.0965637284557E-04
(PID.TID 0000.0001) %MON dynstat_eta_min              =  -3.3373476689080E-04
(PID.TID 0000.0001) %MON dynstat_eta_mean             =   7.4265847160123E-20
(PID.TID 0000.0001) %MON dynstat_eta_sd               =   4.9094471873695E-05
(PID.TID 0000.0001) %MON dynstat_eta_del2             =   7.3363073037076E-08
(PID.TID 0000.0001) %MON dynstat_uvel_max             =   1.3462473929045E-04
(PID.TID 0000.0001) %MON dynstat_uvel_min             =  -6.5555132846616E-04
(PID.TID 0000.0001) %MON dynstat_uvel_mean            =   3.2809308714323E-07
(PID.TID 0000.0001) %MON dynstat_uvel_sd              =   6.8410186139656E-05
(PID.TID 0000.0001) %MON dynstat_uvel_del2            =   3.3051962429472E-08
(PID.TID 0000.0001) %MON dynstat_vvel_max             =   5.2752712308803E-04
(PID.TID 0000.0001) %MON dynstat_vvel_min             =  -1.1992932082593E-04
(PID.TID 0000.0001) %MON dynstat_vvel_mean            =   2.5223075604337E-10
(PID.TID 0000.0001) %MON dynstat_vvel_sd              =   1.9476631813910E-05
(PID.TID 0000.0001) %MON dynstat_vvel_del2            =   1.8202668872056E-08
(PID.TID 0000.0001) %MON dynstat_wvel_max             =   4.0006240482085E-06
(PID.TID 0000.0001) %MON dynstat_wvel_min             =  -4.3304121432128E-06
(PID.TID 0000.0001) %MON dynstat_wvel_mean            =   3.2718469505882E-13
(PID.TID 0000.0001) %MON dynstat_wvel_sd              =   1.9520355833388E-07
(PID.TID 0000.0001) %MON dynstat_wvel_del2            =   6.2276869624128E-10
(PID.TID 0000.0001) %MON dynstat_theta_max            =  -1.9000000000000E+00
(PID.TID 0000.0001) %MON dynstat_theta_min            =  -1.9413878167969E+00
(PID.TID 0000.0001) %MON dynstat_theta_mean           =  -1.9016461068655E+00
(PID.TID 0000.0001) %MON dynstat_theta_sd             =   4.8443273160144E-03
(PID.TID 0000.0001) %MON dynstat_theta_del2           =   1.1175300063077E-06
(PID.TID 0000.0001) %MON dynstat_salt_max             =   3.4400000000000E+01
(PID.TID 0000.0001) %MON dynstat_salt_min             =   3.4384742723440E+01
(PID.TID 0000.0001) %MON dynstat_salt_mean            =   3.4399392674165E+01
(PID.TID 0000.0001) %MON dynstat_salt_sd              =   1.7870077254196E-03
(PID.TID 0000.0001) %MON dynstat_salt_del2            =   4.1211626901106E-07
(PID.TID 0000.0001) %MON trAdv_CFL_u_max              =   1.8623803118486E-04
(PID.TID 0000.0001) %MON trAdv_CFL_v_max              =   8.5773148593894E-05
(PID.TID 0000.0001) %MON trAdv_CFL_w_max              =   2.5980136206498E-04
(PID.TID 0000.0001) %MON advcfl_uvel_max              =   1.8625014313990E-04
(PID.TID 0000.0001) %MON advcfl_vvel_max              =   8.5408382915102E-05
(PID.TID 0000.0001) %MON advcfl_wvel_max              =   2.5982472859277E-04
(PID.TID 0000.0001) %MON advcfl_W_hf_max              =   2.5982472859277E-04
(PID.TID 0000.0001) %MON pe_b_mean                    =  -1.4148959707405E-08
(PID.TID 0000.0001) %MON ke_max                       =   2.3588166656264E-07
(PID.TID 0000.0001) %MON ke_mean                      =   2.4797147215947E-09
(PID.TID 0000.0001) %MON ke_vol                       =   2.9241705273105E+14
(PID.TID 0000.0001) %MON vort_r_min                   =  -3.1935955914760E-08
(PID.TID 0000.0001) %MON vort_r_max                   =   8.1429310081524E-08
(PID.TID 0000.0001) %MON vort_a_mean                  =  -1.4007437454350E-04
(PID.TID 0000.0001) %MON vort_a_sd                    =   1.7682652565443E-06
(PID.TID 0000.0001) %MON vort_p_mean                  =  -1.5039772397152E-04
(PID.TID 0000.0001) %MON vort_p_sd                    =   8.7068333847552E-05
(PID.TID 0000.0001) %MON surfExpan_theta_mean         =   1.0984398529523E-14
(PID.TID 0000.0001) %MON surfExpan_salt_mean          =   4.0450875340474E-15
(PID.TID 0000.0001) // =======================================================
(PID.TID 0000.0001) // End MONITOR dynamic field statistics
(PID.TID 0000.0001) // =======================================================
 cg2d: Sum(rhs),rhsMax =  -3.59712259978551E-14  2.22926109434704E-04
(PID.TID 0000.0001)      cg2d_init_res =   1.24007098062887E-03
(PID.TID 0000.0001)      cg2d_iters(min,last) =      -1     178
(PID.TID 0000.0001)      cg2d_last_res =   9.32622533658864E-14
(PID.TID 0000.0001) // =======================================================
(PID.TID 0000.0001) // Begin MONITOR dynamic field statistics
(PID.TID 0000.0001) // =======================================================
(PID.TID 0000.0001) %MON time_tsnumber                =                  8654
(PID.TID 0000.0001) %MON time_secondsf                =   1.5577200000000E+07
(PID.TID 0000.0001) %MON dynstat_eta_max              =   1.0967154752824E-04
(PID.TID 0000.0001) %MON dynstat_eta_min              =  -3.3377308741530E-04
(PID.TID 0000.0001) %MON dynstat_eta_mean             =   7.2003267587144E-20
(PID.TID 0000.0001) %MON dynstat_eta_sd               =   4.9100401953466E-05
(PID.TID 0000.0001) %MON dynstat_eta_del2             =   7.3366995848889E-08
(PID.TID 0000.0001) %MON dynstat_uvel_max             =   1.3463563751627E-04
(PID.TID 0000.0001) %MON dynstat_uvel_min             =  -6.5559354919301E-04
(PID.TID 0000.0001) %MON dynstat_uvel_mean            =   3.2816340900026E-07
(PID.TID 0000.0001) %MON dynstat_uvel_sd              =   6.8415945054118E-05
(PID.TID 0000.0001) %MON dynstat_uvel_del2            =   3.3052664601784E-08
(PID.TID 0000.0001) %MON dynstat_vvel_max             =   5.2760889814147E-04
(PID.TID 0000.0001) %MON dynstat_vvel_min             =  -1.1994496374520E-04
(PID.TID 0000.0001) %MON dynstat_vvel_mean            =   2.5367983297055E-10
(PID.TID 0000.0001) %MON dynstat_vvel_sd              =   1.9480959730473E-05
(PID.TID 0000.0001) %MON dynstat_vvel_del2            =   1.8202813158826E-08
(PID.TID 0000.0001) %MON dynstat_wvel_max             =   4.0009067024426E-06
(PID.TID 0000.0001) %MON dynstat_wvel_min             =  -4.3308007213418E-06
(PID.TID 0000.0001) %MON dynstat_wvel_mean            =   3.2750466746007E-13
(PID.TID 0000.0001) %MON dynstat_wvel_sd              =   1.9522280028207E-07
(PID.TID 0000.0001) %MON dynstat_wvel_del2            =   6.2282776188231E-10
(PID.TID 0000.0001) %MON dynstat_theta_max            =  -1.9000000000000E+00
(PID.TID 0000.0001) %MON dynstat_theta_min            =  -1.9413906531665E+00
(PID.TID 0000.0001) %MON dynstat_theta_mean           =  -1.9016462910798E+00
(PID.TID 0000.0001) %MON dynstat_theta_sd             =   4.8447493755712E-03
(PID.TID 0000.0001) %MON dynstat_theta_del2           =   1.1175294820204E-06
(PID.TID 0000.0001) %MON dynstat_salt_max             =   3.4400000000000E+01
(PID.TID 0000.0001) %MON dynstat_salt_min             =   3.4384741677992E+01
(PID.TID 0000.0001) %MON dynstat_salt_mean            =   3.4399392606202E+01
(PID.TID 0000.0001) %MON dynstat_salt_sd              =   1.7871634160832E-03
(PID.TID 0000.0001) %MON dynstat_salt_del2            =   4.1211608107290E-07
(PID.TID 0000.0001) %MON trAdv_CFL_u_max              =   1.8625016677953E-04
(PID.TID 0000.0001) %MON trAdv_CFL_v_max              =   8.5786511412688E-05
(PID.TID 0000.0001) %MON trAdv_CFL_w_max              =   2.5982472859277E-04
(PID.TID 0000.0001) %MON advcfl_uvel_max              =   1.8626213856433E-04
(PID.TID 0000.0001) %MON advcfl_vvel_max              =   8.5421622566243E-05
(PID.TID 0000.0001) %MON advcfl_wvel_max              =   2.5984804328051E-04
(PID.TID 0000.0001) %MON advcfl_W_hf_max              =   2.5984804328051E-04
(PID.TID 0000.0001) %MON pe_b_mean                    =  -1.4149064780434E-08
(PID.TID 0000.0001) %MON ke_max                       =   2.3592029638955E-07
(PID.TID 0000.0001) %MON ke_mean                      =   2.4801840001446E-09
(PID.TID 0000.0001) %MON ke_vol                       =   2.9241705273105E+14
(PID.TID 0000.0001) %MON vort_r_min                   =  -3.1939946042264E-08
(PID.TID 0000.0001) %MON vort_r_max                   =   8.1441932913398E-08
(PID.TID 0000.0001) %MON vort_a_mean                  =  -1.4007437454392E-04
(PID.TID 0000.0001) %MON vort_a_sd                    =   1.7682652549865E-06
(PID.TID 0000.0001) %MON vort_p_mean                  =  -1.5039772397199E-04
(PID.TID 0000.0001) %MON vort_p_sd                    =   8.7068332728209E-05
(PID.TID 0000.0001) %MON surfExpan_theta_mean         =   1.0995084374146E-14
(PID.TID 0000.0001) %MON surfExpan_salt_mean          =   4.0490250467570E-15
(PID.TID 0000.0001) // =======================================================
(PID.TID 0000.0001) // End MONITOR dynamic field statistics
(PID.TID 0000.0001) // =======================================================
 cg2d: Sum(rhs),rhsMax =  -5.01820807130571E-14  2.22969864834309E-04
(PID.TID 0000.0001)      cg2d_init_res =   1.23972529594418E-03
(PID.TID 0000.0001)      cg2d_iters(min,last) =      -1     178
(PID.TID 0000.0001)      cg2d_last_res =   9.50577074733115E-14
(PID.TID 0000.0001) // =======================================================
(PID.TID 0000.0001) // Begin MONITOR dynamic field statistics
(PID.TID 0000.0001) // =======================================================
(PID.TID 0000.0001) %MON time_tsnumber                =                  8655
(PID.TID 0000.0001) %MON time_secondsf                =   1.5579000000000E+07
(PID.TID 0000.0001) %MON dynstat_eta_max              =   1.0968670073308E-04
(PID.TID 0000.0001) %MON dynstat_eta_min              =  -3.3381136036661E-04
(PID.TID 0000.0001) %MON dynstat_eta_mean             =   7.5064404656468E-20
(PID.TID 0000.0001) %MON dynstat_eta_sd               =   4.9106329327609E-05
(PID.TID 0000.0001) %MON dynstat_eta_del2             =   7.3370919583786E-08
(PID.TID 0000.0001) %MON dynstat_uvel_max             =   1.3464648051435E-04
(PID.TID 0000.0001) %MON dynstat_uvel_min             =  -6.5563514267062E-04
(PID.TID 0000.0001) %MON dynstat_uvel_mean            =   3.2823370462365E-07
(PID.TID 0000.0001) %MON dynstat_uvel_sd              =   6.8421672919146E-05
(PID.TID 0000.0001) %MON dynstat_uvel_del2            =   3.3053325648084E-08
(PID.TID 0000.0001) %MON dynstat_vvel_max             =   5.2769032787330E-04
(PID.TID 0000.0001) %MON dynstat_vvel_min             =  -1.1996058093102E-04
(PID.TID 0000.0001) %MON dynstat_vvel_mean            =   2.5312316200853E-10
(PID.TID 0000.0001) %MON dynstat_vvel_sd              =   1.9485285131704E-05
(PID.TID 0000.0001) %MON dynstat_vvel_del2            =   1.8202921279980E-08
(PID.TID 0000.0001) %MON dynstat_wvel_max             =   4.0011875184312E-06
(PID.TID 0000.0001) %MON dynstat_wvel_min             =  -4.3311881921140E-06
(PID.TID 0000.0001) %MON dynstat_wvel_mean            =   3.2705554584691E-13
(PID.TID 0000.0001) %MON dynstat_wvel_sd              =   1.9524198175018E-07
(PID.TID 0000.0001) %MON dynstat_wvel_del2            =   6.2288654626472E-10
(PID.TID 0000.0001) %MON dynstat_theta_max            =  -1.9000000000000E+00
(PID.TID 0000.0001) %MON dynstat_theta_min            =  -1.9413934890440E+00
(PID.TID 0000.0001) %MON dynstat_theta_mean           =  -1.9016464752924E+00
(PID.TID 0000.0001) %MON dynstat_theta_sd             =   4.8451714132240E-03
(PID.TID 0000.0001) %MON dynstat_theta_del2           =   1.1175299759070E-06
(PID.TID 0000.0001) %MON dynstat_salt_max             =   3.4400000000000E+01
(PID.TID 0000.0001) %MON dynstat_salt_min             =   3.4384740632726E+01
(PID.TID 0000.0001) %MON dynstat_salt_mean            =   3.4399392538240E+01
(PID.TID 0000.0001) %MON dynstat_salt_sd              =   1.7873190986678E-03
(PID.TID 0000.0001) %MON dynstat_salt_del2            =   4.1211626803785E-07
(PID.TID 0000.0001) %MON trAdv_CFL_u_max              =   1.8626216220548E-04
(PID.TID 0000.0001) %MON trAdv_CFL_v_max              =   8.5799809679731E-05
(PID.TID 0000.0001) %MON trAdv_CFL_w_max              =   2.5984804328051E-04
(PID.TID 0000.0001) %MON advcfl_uvel_max              =   1.8627395577959E-04
(PID.TID 0000.0001) %MON advcfl_vvel_max              =   8.5434806308676E-05
(PID.TID 0000.0001) %MON advcfl_wvel_max              =   2.5987129152684E-04
(PID.TID 0000.0001) %MON advcfl_W_hf_max              =   2.5987129152684E-04
(PID.TID 0000.0001) %MON pe_b_mean                    =  -1.4149172079383E-08
(PID.TID 0000.0001) %MON ke_max                       =   2.3595846463934E-07
(PID.TID 0000.0001) %MON ke_mean                      =   2.4806512001549E-09
(PID.TID 0000.0001) %MON ke_vol                       =   2.9241705273105E+14
(PID.TID 0000.0001) %MON vort_r_min                   =  -3.1943938207839E-08
(PID.TID 0000.0001) %MON vort_r_max                   =   8.1454502441282E-08
(PID.TID 0000.0001) %MON vort_a_mean                  =  -1.4007437454434E-04
(PID.TID 0000.0001) %MON vort_a_sd                    =   1.7682652533652E-06
(PID.TID 0000.0001) %MON vort_p_mean                  =  -1.5039772397247E-04
(PID.TID 0000.0001) %MON vort_p_sd                    =   8.7068331618710E-05
(PID.TID 0000.0001) %MON surfExpan_theta_mean         =   1.0981176621502E-14
(PID.TID 0000.0001) %MON surfExpan_salt_mean          =   4.0439018687128E-15
(PID.TID 0000.0001) // =======================================================
(PID.TID 0000.0001) // End MONITOR dynamic field statistics
(PID.TID 0000.0001) // =======================================================
 cg2d: Sum(rhs),rhsMax =  -5.49560397189452E-14  2.23013617767426E-04
(PID.TID 0000.0001)      cg2d_init_res =   1.23938234767114E-03
(PID.TID 0000.0001)      cg2d_iters(min,last) =      -1     178
(PID.TID 0000.0001)      cg2d_last_res =   9.64357282663656E-14
(PID.TID 0000.0001) // =======================================================
(PID.TID 0000.0001) // Begin MONITOR dynamic field statistics
(PID.TID 0000.0001) // =======================================================
(PID.TID 0000.0001) %MON time_tsnumber                =                  8656
(PID.TID 0000.0001) %MON time_secondsf                =   1.5580800000000E+07
(PID.TID 0000.0001) %MON dynstat_eta_max              =   1.0970184485002E-04
(PID.TID 0000.0001) %MON dynstat_eta_min              =  -3.3384957462711E-04
(PID.TID 0000.0001) %MON dynstat_eta_mean             =   8.3715444200210E-20
(PID.TID 0000.0001) %MON dynstat_eta_sd               =   4.9112253745155E-05
(PID.TID 0000.0001) %MON dynstat_eta_del2             =   7.3374843541334E-08
(PID.TID 0000.0001) %MON dynstat_uvel_max             =   1.3465726283414E-04
(PID.TID 0000.0001) %MON dynstat_uvel_min             =  -6.5567601981281E-04
(PID.TID 0000.0001) %MON dynstat_uvel_mean            =   3.2830388537884E-07
(PID.TID 0000.0001) %MON dynstat_uvel_sd              =   6.8427364705049E-05
(PID.TID 0000.0001) %MON dynstat_uvel_del2            =   3.3053940153589E-08
(PID.TID 0000.0001) %MON dynstat_vvel_max             =   5.2777148122464E-04
(PID.TID 0000.0001) %MON dynstat_vvel_min             =  -1.1997618145293E-04
(PID.TID 0000.0001) %MON dynstat_vvel_mean            =   2.5067362787068E-10
(PID.TID 0000.0001) %MON dynstat_vvel_sd              =   1.9489608992596E-05
(PID.TID 0000.0001) %MON dynstat_vvel_del2            =   1.8203000301928E-08
(PID.TID 0000.0001) %MON dynstat_wvel_max             =   4.0014663957959E-06
(PID.TID 0000.0001) %MON dynstat_wvel_min             =  -4.3315743848413E-06
(PID.TID 0000.0001) %MON dynstat_wvel_mean            =   3.2588029452363E-13
(PID.TID 0000.0001) %MON dynstat_wvel_sd              =   1.9526109654567E-07
(PID.TID 0000.0001) %MON dynstat_wvel_del2            =   6.2294506802081E-10
(PID.TID 0000.0001) %MON dynstat_theta_max            =  -1.9000000000000E+00
(PID.TID 0000.0001) %MON dynstat_theta_min            =  -1.9413963244242E+00
(PID.TID 0000.0001) %MON dynstat_theta_mean           =  -1.9016466595035E+00
(PID.TID 0000.0001) %MON dynstat_theta_sd             =   4.8455934290224E-03
(PID.TID 0000.0001) %MON dynstat_theta_del2           =   1.1175314128898E-06
(PID.TID 0000.0001) %MON dynstat_salt_max             =   3.4400000000000E+01
(PID.TID 0000.0001) %MON dynstat_salt_min             =   3.4384739587642E+01
(PID.TID 0000.0001) %MON dynstat_salt_mean            =   3.4399392470277E+01
(PID.TID 0000.0001) %MON dynstat_salt_sd              =   1.7874747731917E-03
(PID.TID 0000.0001) %MON dynstat_salt_del2            =   4.1211680226227E-07
(PID.TID 0000.0001) %MON trAdv_CFL_u_max              =   1.8627397942223E-04
(PID.TID 0000.0001) %MON trAdv_CFL_v_max              =   8.5813051790541E-05
(PID.TID 0000.0001) %MON trAdv_CFL_w_max              =   2.5987129152684E-04
(PID.TID 0000.0001) %MON advcfl_uvel_max              =   1.8628556947519E-04
(PID.TID 0000.0001) %MON advcfl_vvel_max              =   8.5447945304194E-05
(PID.TID 0000.0001) %MON advcfl_wvel_max              =   2.5989446309048E-04
(PID.TID 0000.0001) %MON advcfl_W_hf_max              =   2.5989446309048E-04
(PID.TID 0000.0001) %MON pe_b_mean                    =  -1.4149287570101E-08
(PID.TID 0000.0001) %MON ke_max                       =   2.3599616223520E-07
(PID.TID 0000.0001) %MON ke_mean                      =   2.4811160026762E-09
(PID.TID 0000.0001) %MON ke_vol                       =   2.9241705273105E+14
(PID.TID 0000.0001) %MON vort_r_min                   =  -3.1947927608428E-08
(PID.TID 0000.0001) %MON vort_r_max                   =   8.1467029306956E-08
(PID.TID 0000.0001) %MON vort_a_mean                  =  -1.4007437454475E-04
(PID.TID 0000.0001) %MON vort_a_sd                    =   1.7682652518495E-06
(PID.TID 0000.0001) %MON vort_p_mean                  =  -1.5039772397294E-04
(PID.TID 0000.0001) %MON vort_p_sd                    =   8.7068330520281E-05
(PID.TID 0000.0001) %MON surfExpan_theta_mean         =   1.0944016019525E-14
(PID.TID 0000.0001) %MON surfExpan_salt_mean          =   4.0302118971585E-15
(PID.TID 0000.0001) // =======================================================
(PID.TID 0000.0001) // End MONITOR dynamic field statistics
(PID.TID 0000.0001) // =======================================================
 cg2d: Sum(rhs),rhsMax =  -4.57411886145564E-14  2.23057369049588E-04
(PID.TID 0000.0001)      cg2d_init_res =   1.23906116654468E-03
(PID.TID 0000.0001)      cg2d_iters(min,last) =      -1     178
(PID.TID 0000.0001)      cg2d_last_res =   9.73605047617204E-14
(PID.TID 0000.0001) // =======================================================
(PID.TID 0000.0001) // Begin MONITOR dynamic field statistics
(PID.TID 0000.0001) // =======================================================
(PID.TID 0000.0001) %MON time_tsnumber                =                  8657
(PID.TID 0000.0001) %MON time_secondsf                =   1.5582600000000E+07
(PID.TID 0000.0001) %MON dynstat_eta_max              =   1.0971699221552E-04
(PID.TID 0000.0001) %MON dynstat_eta_min              =  -3.3388772342608E-04
(PID.TID 0000.0001) %MON dynstat_eta_mean             =   8.9438439590685E-20
(PID.TID 0000.0001) %MON dynstat_eta_sd               =   4.9118175025988E-05
(PID.TID 0000.0001) %MON dynstat_eta_del2             =   7.3378767261510E-08
(PID.TID 0000.0001) %MON dynstat_uvel_max             =   1.3466798279433E-04
(PID.TID 0000.0001) %MON dynstat_uvel_min             =  -6.5571613913111E-04
(PID.TID 0000.0001) %MON dynstat_uvel_mean            =   3.2837388020843E-07
(PID.TID 0000.0001) %MON dynstat_uvel_sd              =   6.8433017959105E-05
(PID.TID 0000.0001) %MON dynstat_uvel_del2            =   3.3054504590326E-08
(PID.TID 0000.0001) %MON dynstat_vvel_max             =   5.2785243883580E-04
(PID.TID 0000.0001) %MON dynstat_vvel_min             =  -1.1999177464097E-04
(PID.TID 0000.0001) %MON dynstat_vvel_mean            =   2.4666213239129E-10
(PID.TID 0000.0001) %MON dynstat_vvel_sd              =   1.9493932395518E-05
(PID.TID 0000.0001) %MON dynstat_vvel_del2            =   1.8203057739887E-08
(PID.TID 0000.0001) %MON dynstat_wvel_max             =   4.0017433667998E-06
(PID.TID 0000.0001) %MON dynstat_wvel_min             =  -4.3319592077951E-06
(PID.TID 0000.0001) %MON dynstat_wvel_mean            =   3.2410275753490E-13
(PID.TID 0000.0001) %MON dynstat_wvel_sd              =   1.9528014335553E-07
(PID.TID 0000.0001) %MON dynstat_wvel_del2            =   6.2300335979436E-10
(PID.TID 0000.0001) %MON dynstat_theta_max            =  -1.9000000000000E+00
(PID.TID 0000.0001) %MON dynstat_theta_min            =  -1.9413991593020E+00
(PID.TID 0000.0001) %MON dynstat_theta_mean           =  -1.9016468437130E+00
(PID.TID 0000.0001) %MON dynstat_theta_sd             =   4.8460154230135E-03
(PID.TID 0000.0001) %MON dynstat_theta_del2           =   1.1175337245175E-06
(PID.TID 0000.0001) %MON dynstat_salt_max             =   3.4400000000000E+01
(PID.TID 0000.0001) %MON dynstat_salt_min             =   3.4384738542744E+01
(PID.TID 0000.0001) %MON dynstat_salt_mean            =   3.4399392402316E+01
(PID.TID 0000.0001) %MON dynstat_salt_sd              =   1.7876304396723E-03
(PID.TID 0000.0001) %MON dynstat_salt_del2            =   4.1211765854261E-07
(PID.TID 0000.0001) %MON trAdv_CFL_u_max              =   1.8628559311931E-04
(PID.TID 0000.0001) %MON trAdv_CFL_v_max              =   8.5826248956329E-05
(PID.TID 0000.0001) %MON trAdv_CFL_w_max              =   2.5989446309048E-04
(PID.TID 0000.0001) %MON advcfl_uvel_max              =   1.8629696786377E-04
(PID.TID 0000.0001) %MON advcfl_vvel_max              =   8.5461052608731E-05
(PID.TID 0000.0001) %MON advcfl_wvel_max              =   2.5991755246770E-04
(PID.TID 0000.0001) %MON advcfl_W_hf_max              =   2.5991755246770E-04
(PID.TID 0000.0001) %MON pe_b_mean                    =  -1.4149416222083E-08
(PID.TID 0000.0001) %MON ke_max                       =   2.3603340951059E-07
(PID.TID 0000.0001) %MON ke_mean                      =   2.4815782634924E-09
(PID.TID 0000.0001) %MON ke_vol                       =   2.9241705273105E+14
(PID.TID 0000.0001) %MON vort_r_min                   =  -3.1951909668093E-08
(PID.TID 0000.0001) %MON vort_r_max                   =   8.1479525958094E-08
(PID.TID 0000.0001) %MON vort_a_mean                  =  -1.4007437454517E-04
(PID.TID 0000.0001) %MON vort_a_sd                    =   1.7682652502964E-06
(PID.TID 0000.0001) %MON vort_p_mean                  =  -1.5039772397342E-04
(PID.TID 0000.0001) %MON vort_p_sd                    =   8.7068329433400E-05
(PID.TID 0000.0001) %MON surfExpan_theta_mean         =   1.0887523605426E-14
(PID.TID 0000.0001) %MON surfExpan_salt_mean          =   4.0093998358479E-15
(PID.TID 0000.0001) // =======================================================
(PID.TID 0000.0001) // End MONITOR dynamic field statistics
(PID.TID 0000.0001) // =======================================================
 cg2d: Sum(rhs),rhsMax =  -7.59392548843607E-14  2.23101121477802E-04
(PID.TID 0000.0001)      cg2d_init_res =   1.23877310265469E-03
(PID.TID 0000.0001)      cg2d_iters(min,last) =      -1     178
(PID.TID 0000.0001)      cg2d_last_res =   9.78092471309620E-14
(PID.TID 0000.0001) // =======================================================
(PID.TID 0000.0001) // Begin MONITOR dynamic field statistics
(PID.TID 0000.0001) // =======================================================
(PID.TID 0000.0001) %MON time_tsnumber                =                  8658
(PID.TID 0000.0001) %MON time_secondsf                =   1.5584400000000E+07
(PID.TID 0000.0001) %MON dynstat_eta_max              =   1.0973215424524E-04
(PID.TID 0000.0001) %MON dynstat_eta_min              =  -3.3392580543413E-04
(PID.TID 0000.0001) %MON dynstat_eta_mean             =   8.9704625422800E-20
(PID.TID 0000.0001) %MON dynstat_eta_sd               =   4.9124093094440E-05
(PID.TID 0000.0001) %MON dynstat_eta_del2             =   7.3382690386969E-08
(PID.TID 0000.0001) %MON dynstat_uvel_max             =   1.3467864286325E-04
(PID.TID 0000.0001) %MON dynstat_uvel_min             =  -6.5575550607500E-04
(PID.TID 0000.0001) %MON dynstat_uvel_mean            =   3.2844364108637E-07
(PID.TID 0000.0001) %MON dynstat_uvel_sd              =   6.8438632905998E-05
(PID.TID 0000.0001) %MON dynstat_uvel_del2            =   3.3055017393993E-08
(PID.TID 0000.0001) %MON dynstat_vvel_max             =   5.2793328691152E-04
(PID.TID 0000.0001) %MON dynstat_vvel_min             =  -1.2000736935165E-04
(PID.TID 0000.0001) %MON dynstat_vvel_mean            =   2.4157769733585E-10
(PID.TID 0000.0001) %MON dynstat_vvel_sd              =   1.9498256451375E-05
(PID.TID 0000.0001) %MON dynstat_vvel_del2            =   1.8203101303228E-08
(PID.TID 0000.0001) %MON dynstat_wvel_max             =   4.0020185897840E-06
(PID.TID 0000.0001) %MON dynstat_wvel_min             =  -4.3323426482880E-06
(PID.TID 0000.0001) %MON dynstat_wvel_mean            =   3.2191112689979E-13
(PID.TID 0000.0001) %MON dynstat_wvel_sd              =   1.9529912568398E-07
(PID.TID 0000.0001) %MON dynstat_wvel_del2            =   6.2306146572454E-10
(PID.TID 0000.0001) %MON dynstat_theta_max            =  -1.9000000000000E+00
(PID.TID 0000.0001) %MON dynstat_theta_min            =  -1.9414019936731E+00
(PID.TID 0000.0001) %MON dynstat_theta_mean           =  -1.9016470279210E+00
(PID.TID 0000.0001) %MON dynstat_theta_sd             =   4.8464373952423E-03
(PID.TID 0000.0001) %MON dynstat_theta_del2           =   1.1175368483459E-06
(PID.TID 0000.0001) %MON dynstat_salt_max             =   3.4400000000000E+01
(PID.TID 0000.0001) %MON dynstat_salt_min             =   3.4384737498032E+01
(PID.TID 0000.0001) %MON dynstat_salt_mean            =   3.4399392334355E+01
(PID.TID 0000.0001) %MON dynstat_salt_sd              =   1.7877860981263E-03
(PID.TID 0000.0001) %MON dynstat_salt_del2            =   4.1211881388695E-07
(PID.TID 0000.0001) %MON trAdv_CFL_u_max              =   1.8629699150934E-04
(PID.TID 0000.0001) %MON trAdv_CFL_v_max              =   8.5839414290830E-05
(PID.TID 0000.0001) %MON trAdv_CFL_w_max              =   2.5991755246770E-04
(PID.TID 0000.0001) %MON advcfl_uvel_max              =   1.8630815249359E-04
(PID.TID 0000.0001) %MON advcfl_vvel_max              =   8.5474142179119E-05
(PID.TID 0000.0001) %MON advcfl_wvel_max              =   2.5994055889728E-04
(PID.TID 0000.0001) %MON advcfl_W_hf_max              =   2.5994055889728E-04
(PID.TID 0000.0001) %MON pe_b_mean                    =  -1.4149561484256E-08
(PID.TID 0000.0001) %MON ke_max                       =   2.3607025294673E-07
(PID.TID 0000.0001) %MON ke_mean                      =   2.4820380184113E-09
(PID.TID 0000.0001) %MON ke_vol                       =   2.9241705273105E+14
(PID.TID 0000.0001) %MON vort_r_min                   =  -3.1955880202914E-08
(PID.TID 0000.0001) %MON vort_r_max                   =   8.1492005701293E-08
(PID.TID 0000.0001) %MON vort_a_mean                  =  -1.4007437454559E-04
(PID.TID 0000.0001) %MON vort_a_sd                    =   1.7682652487902E-06
(PID.TID 0000.0001) %MON vort_p_mean                  =  -1.5039772397389E-04
(PID.TID 0000.0001) %MON vort_p_sd                    =   8.7068328357812E-05
(PID.TID 0000.0001) %MON surfExpan_theta_mean         =   1.0817689467732E-14
(PID.TID 0000.0001) %MON surfExpan_salt_mean          =   3.9836723734810E-15
(PID.TID 0000.0001) // =======================================================
(PID.TID 0000.0001) // End MONITOR dynamic field statistics
(PID.TID 0000.0001) // =======================================================
 cg2d: Sum(rhs),rhsMax =  -4.37427871702312E-14  2.23144877808296E-04
(PID.TID 0000.0001)      cg2d_init_res =   1.23852970652360E-03
(PID.TID 0000.0001)      cg2d_iters(min,last) =      -1     178
(PID.TID 0000.0001)      cg2d_last_res =   9.77752553758015E-14
(PID.TID 0000.0001) // =======================================================
(PID.TID 0000.0001) // Begin MONITOR dynamic field statistics
(PID.TID 0000.0001) // =======================================================
(PID.TID 0000.0001) %MON time_tsnumber                =                  8659
(PID.TID 0000.0001) %MON time_secondsf                =   1.5586200000000E+07
(PID.TID 0000.0001) %MON dynstat_eta_max              =   1.0974734016019E-04
(PID.TID 0000.0001) %MON dynstat_eta_min              =  -3.3396382508046E-04
(PID.TID 0000.0001) %MON dynstat_eta_mean             =   7.2535639251374E-20
(PID.TID 0000.0001) %MON dynstat_eta_sd               =   4.9130008019862E-05
(PID.TID 0000.0001) %MON dynstat_eta_del2             =   7.3386612790824E-08
(PID.TID 0000.0001) %MON dynstat_uvel_max             =   1.3468924914474E-04
(PID.TID 0000.0001) %MON dynstat_uvel_min             =  -6.5579416984787E-04
(PID.TID 0000.0001) %MON dynstat_uvel_mean            =   3.2851314576265E-07
(PID.TID 0000.0001) %MON dynstat_uvel_sd              =   6.8444212362243E-05
(PID.TID 0000.0001) %MON dynstat_uvel_del2            =   3.3055478908016E-08
(PID.TID 0000.0001) %MON dynstat_vvel_max             =   5.2801411152329E-04
(PID.TID 0000.0001) %MON dynstat_vvel_min             =  -1.2002297340740E-04
(PID.TID 0000.0001) %MON dynstat_vvel_mean            =   2.3599426156780E-10
(PID.TID 0000.0001) %MON dynstat_vvel_sd              =   1.9502582221946E-05
(PID.TID 0000.0001) %MON dynstat_vvel_del2            =   1.8203138667142E-08
(PID.TID 0000.0001) %MON dynstat_wvel_max             =   4.0022923294073E-06
(PID.TID 0000.0001) %MON dynstat_wvel_min             =  -4.3327247695531E-06
(PID.TID 0000.0001) %MON dynstat_wvel_mean            =   3.1953262192088E-13
(PID.TID 0000.0001) %MON dynstat_wvel_sd              =   1.9531805141432E-07
(PID.TID 0000.0001) %MON dynstat_wvel_del2            =   6.2311943955466E-10
(PID.TID 0000.0001) %MON dynstat_theta_max            =  -1.9000000000000E+00
(PID.TID 0000.0001) %MON dynstat_theta_min            =  -1.9414048275335E+00
(PID.TID 0000.0001) %MON dynstat_theta_mean           =  -1.9016472121273E+00
(PID.TID 0000.0001) %MON dynstat_theta_sd             =   4.8468593457516E-03
(PID.TID 0000.0001) %MON dynstat_theta_del2           =   1.1175407273784E-06
(PID.TID 0000.0001) %MON dynstat_salt_max             =   3.4400000000000E+01
(PID.TID 0000.0001) %MON dynstat_salt_min             =   3.4384736453508E+01
(PID.TID 0000.0001) %MON dynstat_salt_mean            =   3.4399392266395E+01
(PID.TID 0000.0001) %MON dynstat_salt_sd              =   1.7879417485692E-03
(PID.TID 0000.0001) %MON dynstat_salt_del2            =   4.1212024730894E-07
(PID.TID 0000.0001) %MON trAdv_CFL_u_max              =   1.8630817614058E-04
(PID.TID 0000.0001) %MON trAdv_CFL_v_max              =   8.5852561812667E-05
(PID.TID 0000.0001) %MON trAdv_CFL_w_max              =   2.5994055889728E-04
(PID.TID 0000.0001) %MON advcfl_uvel_max              =   1.8631913734393E-04
(PID.TID 0000.0001) %MON advcfl_vvel_max              =   8.5487227950616E-05
(PID.TID 0000.0001) %MON advcfl_wvel_max              =   2.5996348617319E-04
(PID.TID 0000.0001) %MON advcfl_W_hf_max              =   2.5996348617319E-04
(PID.TID 0000.0001) %MON pe_b_mean                    =  -1.4149724976218E-08
(PID.TID 0000.0001) %MON ke_max                       =   2.3610676017952E-07
(PID.TID 0000.0001) %MON ke_mean                      =   2.4824954761063E-09
(PID.TID 0000.0001) %MON ke_vol                       =   2.9241705273105E+14
(PID.TID 0000.0001) %MON vort_r_min                   =  -3.1959835564511E-08
(PID.TID 0000.0001) %MON vort_r_max                   =   8.1504481822589E-08
(PID.TID 0000.0001) %MON vort_a_mean                  =  -1.4007437454601E-04
(PID.TID 0000.0001) %MON vort_a_sd                    =   1.7682652472792E-06
(PID.TID 0000.0001) %MON vort_p_mean                  =  -1.5039772397436E-04
(PID.TID 0000.0001) %MON vort_p_sd                    =   8.7068327292573E-05
(PID.TID 0000.0001) %MON surfExpan_theta_mean         =   1.0741771788892E-14
(PID.TID 0000.0001) %MON surfExpan_salt_mean          =   3.9557035016294E-15
(PID.TID 0000.0001) // =======================================================
(PID.TID 0000.0001) // End MONITOR dynamic field statistics
(PID.TID 0000.0001) // =======================================================
 cg2d: Sum(rhs),rhsMax =  -6.53921361504217E-14  2.23188639388376E-04
(PID.TID 0000.0001)      cg2d_init_res =   1.23833667186199E-03
(PID.TID 0000.0001)      cg2d_iters(min,last) =      -1     178
(PID.TID 0000.0001)      cg2d_last_res =   9.72728301871255E-14
(PID.TID 0000.0001) // =======================================================
(PID.TID 0000.0001) // Begin MONITOR dynamic field statistics
(PID.TID 0000.0001) // =======================================================
(PID.TID 0000.0001) %MON time_tsnumber                =                  8660
(PID.TID 0000.0001) %MON time_secondsf                =   1.5588000000000E+07
(PID.TID 0000.0001) %MON dynstat_eta_max              =   1.0976255647552E-04
(PID.TID 0000.0001) %MON dynstat_eta_min              =  -3.3400179226216E-04
(PID.TID 0000.0001) %MON dynstat_eta_mean             =   8.7042767101649E-20
(PID.TID 0000.0001) %MON dynstat_eta_sd               =   4.9135920041224E-05
(PID.TID 0000.0001) %MON dynstat_eta_del2             =   7.3390534462097E-08
(PID.TID 0000.0001) %MON dynstat_uvel_max             =   1.3469981084925E-04
(PID.TID 0000.0001) %MON dynstat_uvel_min             =  -6.5583221717881E-04
(PID.TID 0000.0001) %MON dynstat_uvel_mean            =   3.2858239836416E-07
(PID.TID 0000.0001) %MON dynstat_uvel_sd              =   6.8449761474379E-05
(PID.TID 0000.0001) %MON dynstat_uvel_del2            =   3.3055891256357E-08
(PID.TID 0000.0001) %MON dynstat_vvel_max             =   5.2809499278125E-04
(PID.TID 0000.0001) %MON dynstat_vvel_min             =  -1.2003859313775E-04
(PID.TID 0000.0001) %MON dynstat_vvel_mean            =   2.3049730734026E-10
(PID.TID 0000.0001) %MON dynstat_vvel_sd              =   1.9506910648246E-05
(PID.TID 0000.0001) %MON dynstat_vvel_del2            =   1.8203177222221E-08
(PID.TID 0000.0001) %MON dynstat_wvel_max             =   4.0025649417650E-06
(PID.TID 0000.0001) %MON dynstat_wvel_min             =  -4.3331057062030E-06
(PID.TID 0000.0001) %MON dynstat_wvel_mean            =   3.1720390877916E-13
(PID.TID 0000.0001) %MON dynstat_wvel_sd              =   1.9533693205230E-07
(PID.TID 0000.0001) %MON dynstat_wvel_del2            =   6.2317733935854E-10
(PID.TID 0000.0001) %MON dynstat_theta_max            =  -1.9000000000000E+00
(PID.TID 0000.0001) %MON dynstat_theta_min            =  -1.9414076608797E+00
(PID.TID 0000.0001) %MON dynstat_theta_mean           =  -1.9016473963321E+00
(PID.TID 0000.0001) %MON dynstat_theta_sd             =   4.8472812745821E-03
(PID.TID 0000.0001) %MON dynstat_theta_del2           =   1.1175453095603E-06
(PID.TID 0000.0001) %MON dynstat_salt_max             =   3.4400000000000E+01
(PID.TID 0000.0001) %MON dynstat_salt_min             =   3.4384735409174E+01
(PID.TID 0000.0001) %MON dynstat_salt_mean            =   3.4399392198435E+01
(PID.TID 0000.0001) %MON dynstat_salt_sd              =   1.7880973910162E-03
(PID.TID 0000.0001) %MON dynstat_salt_del2            =   4.1212193964200E-07
(PID.TID 0000.0001) %MON trAdv_CFL_u_max              =   1.8631916099231E-04
(PID.TID 0000.0001) %MON trAdv_CFL_v_max              =   8.5865705518794E-05
(PID.TID 0000.0001) %MON trAdv_CFL_w_max              =   2.5996348617319E-04
(PID.TID 0000.0001) %MON advcfl_uvel_max              =   1.8632994705558E-04
(PID.TID 0000.0001) %MON advcfl_vvel_max              =   8.5500322893317E-05
(PID.TID 0000.0001) %MON advcfl_wvel_max              =   2.5998634237218E-04
(PID.TID 0000.0001) %MON advcfl_W_hf_max              =   2.5998634237218E-04
(PID.TID 0000.0001) %MON pe_b_mean                    =  -1.4149906421707E-08
(PID.TID 0000.0001) %MON ke_max                       =   2.3614301434247E-07
(PID.TID 0000.0001) %MON ke_mean                      =   2.4829509992490E-09
(PID.TID 0000.0001) %MON ke_vol                       =   2.9241705273105E+14
(PID.TID 0000.0001) %MON vort_r_min                   =  -3.1963772776109E-08
(PID.TID 0000.0001) %MON vort_r_max                   =   8.1516966687813E-08
(PID.TID 0000.0001) %MON vort_a_mean                  =  -1.4007437454643E-04
(PID.TID 0000.0001) %MON vort_a_sd                    =   1.7682652457439E-06
(PID.TID 0000.0001) %MON vort_p_mean                  =  -1.5039772397484E-04
(PID.TID 0000.0001) %MON vort_p_sd                    =   8.7068326236131E-05
(PID.TID 0000.0001) %MON surfExpan_theta_mean         =   1.0667357065472E-14
(PID.TID 0000.0001) %MON surfExpan_salt_mean          =   3.9282882937130E-15
(PID.TID 0000.0001) // =======================================================
(PID.TID 0000.0001) // End MONITOR dynamic field statistics
(PID.TID 0000.0001) // =======================================================
(PID.TID 0000.0001) %CHECKPOINT      8660 ckptA
(PID.TID 0000.0001)   Seconds in section "ALL                    [THE_MODEL_MAIN]":
(PID.TID 0000.0001)           User time:   27.873967304360121
(PID.TID 0000.0001)         System time:  0.46694801468402147
(PID.TID 0000.0001)     Wall clock time:   28.770398855209351
(PID.TID 0000.0001)          No. starts:           1
(PID.TID 0000.0001)           No. stops:           1
(PID.TID 0000.0001)   Seconds in section "INITIALISE_FIXED       [THE_MODEL_MAIN]":
(PID.TID 0000.0001)           User time:  0.42588099977001548
(PID.TID 0000.0001)         System time:  0.10675399843603373
(PID.TID 0000.0001)     Wall clock time:  0.54379081726074219
(PID.TID 0000.0001)          No. starts:           1
(PID.TID 0000.0001)           No. stops:           1
(PID.TID 0000.0001)   Seconds in section "THE_MAIN_LOOP          [THE_MODEL_MAIN]":
(PID.TID 0000.0001)           User time:   27.444154530763626
(PID.TID 0000.0001)         System time:  0.36017601191997528
(PID.TID 0000.0001)     Wall clock time:   28.222666025161743
(PID.TID 0000.0001)          No. starts:           1
(PID.TID 0000.0001)           No. stops:           1
(PID.TID 0000.0001)   Seconds in section "INITIALISE_VARIA    [THE_MAIN_LOOP]":
(PID.TID 0000.0001)           User time:  0.56653901934623718
(PID.TID 0000.0001)         System time:  0.22069700062274933
(PID.TID 0000.0001)     Wall clock time:   1.1993308067321777
(PID.TID 0000.0001)          No. starts:           1
(PID.TID 0000.0001)           No. stops:           1
(PID.TID 0000.0001)   Seconds in section "MAIN LOOP           [THE_MAIN_LOOP]":
(PID.TID 0000.0001)           User time:   26.877594769001007
(PID.TID 0000.0001)         System time:  0.13947302103042603
(PID.TID 0000.0001)     Wall clock time:   27.023310899734497
(PID.TID 0000.0001)          No. starts:           1
(PID.TID 0000.0001)           No. stops:           1
(PID.TID 0000.0001)   Seconds in section "MAIN_DO_LOOP        [THE_MAIN_LOOP]":
(PID.TID 0000.0001)           User time:   26.877457380294800
(PID.TID 0000.0001)         System time:  0.13946905732154846
(PID.TID 0000.0001)     Wall clock time:   27.023168563842773
(PID.TID 0000.0001)          No. starts:          20
(PID.TID 0000.0001)           No. stops:          20
(PID.TID 0000.0001)   Seconds in section "FORWARD_STEP        [MAIN_DO_LOOP]":
(PID.TID 0000.0001)           User time:   26.877153337001801
(PID.TID 0000.0001)         System time:  0.13946104049682617
(PID.TID 0000.0001)     Wall clock time:   27.022853851318359
(PID.TID 0000.0001)          No. starts:          20
(PID.TID 0000.0001)           No. stops:          20
(PID.TID 0000.0001)   Seconds in section "DO_STATEVARS_DIAGS  [FORWARD_STEP]":
(PID.TID 0000.0001)           User time:   1.2185905575752258
(PID.TID 0000.0001)         System time:   4.6930015087127686E-003
(PID.TID 0000.0001)     Wall clock time:   1.2233810424804688
(PID.TID 0000.0001)          No. starts:          40
(PID.TID 0000.0001)           No. stops:          40
(PID.TID 0000.0001)   Seconds in section "LOAD_FIELDS_DRIVER  [FORWARD_STEP]":
(PID.TID 0000.0001)           User time:   4.9328804016113281E-004
(PID.TID 0000.0001)         System time:   1.2964010238647461E-005
(PID.TID 0000.0001)     Wall clock time:   5.0473213195800781E-004
(PID.TID 0000.0001)          No. starts:          20
(PID.TID 0000.0001)           No. stops:          20
(PID.TID 0000.0001)   Seconds in section "EXTERNAL_FLDS_LOAD [LOAD_FLDS_DRIVER]":
(PID.TID 0000.0001)           User time:   1.7249584197998047E-004
(PID.TID 0000.0001)         System time:   3.9935111999511719E-006
(PID.TID 0000.0001)     Wall clock time:   1.7094612121582031E-004
(PID.TID 0000.0001)          No. starts:          20
(PID.TID 0000.0001)           No. stops:          20
(PID.TID 0000.0001)   Seconds in section "DO_ATMOSPHERIC_PHYS [FORWARD_STEP]":
(PID.TID 0000.0001)           User time:   2.0873546600341797E-004
(PID.TID 0000.0001)         System time:   1.8984079360961914E-005
(PID.TID 0000.0001)     Wall clock time:   2.3126602172851562E-004
(PID.TID 0000.0001)          No. starts:          20
(PID.TID 0000.0001)           No. stops:          20
(PID.TID 0000.0001)   Seconds in section "DO_OCEANIC_PHYS     [FORWARD_STEP]":
(PID.TID 0000.0001)           User time:   1.1931296586990356
(PID.TID 0000.0001)         System time:   8.0459713935852051E-003
(PID.TID 0000.0001)     Wall clock time:   1.2033023834228516
(PID.TID 0000.0001)          No. starts:          20
(PID.TID 0000.0001)           No. stops:          20
(PID.TID 0000.0001)   Seconds in section "SHELFICE_THERMODYNAMICS [DO_OCEANIC_PHYS]":
(PID.TID 0000.0001)           User time:   7.9334974288940430E-002
(PID.TID 0000.0001)         System time:   1.8900632858276367E-004
(PID.TID 0000.0001)     Wall clock time:   7.9548358917236328E-002
(PID.TID 0000.0001)          No. starts:          20
(PID.TID 0000.0001)           No. stops:          20
(PID.TID 0000.0001)   Seconds in section "THERMODYNAMICS      [FORWARD_STEP]":
(PID.TID 0000.0001)           User time:   6.2469160556793213
(PID.TID 0000.0001)         System time:   1.6611963510513306E-002
(PID.TID 0000.0001)     Wall clock time:   6.2648520469665527
(PID.TID 0000.0001)          No. starts:          20
(PID.TID 0000.0001)           No. stops:          20
(PID.TID 0000.0001)   Seconds in section "DYNAMICS            [FORWARD_STEP]":
(PID.TID 0000.0001)           User time:   9.0219078063964844
(PID.TID 0000.0001)         System time:   1.7320007085800171E-002
(PID.TID 0000.0001)     Wall clock time:   9.0403988361358643
(PID.TID 0000.0001)          No. starts:          20
(PID.TID 0000.0001)           No. stops:          20
(PID.TID 0000.0001)   Seconds in section "UPDATE_SURF_DR      [FORWARD_STEP]":
(PID.TID 0000.0001)           User time:   1.2695550918579102E-002
(PID.TID 0000.0001)         System time:   1.7401576042175293E-004
(PID.TID 0000.0001)     Wall clock time:   1.2891530990600586E-002
(PID.TID 0000.0001)          No. starts:          20
(PID.TID 0000.0001)           No. stops:          20
(PID.TID 0000.0001)   Seconds in section "UPDATE_CG2D         [FORWARD_STEP]":
(PID.TID 0000.0001)           User time:  0.19081974029541016
(PID.TID 0000.0001)         System time:   4.6044588088989258E-005
(PID.TID 0000.0001)     Wall clock time:  0.19090199470520020
(PID.TID 0000.0001)          No. starts:          20
(PID.TID 0000.0001)           No. stops:          20
(PID.TID 0000.0001)   Seconds in section "SOLVE_FOR_PRESSURE  [FORWARD_STEP]":
(PID.TID 0000.0001)           User time:   4.6247634887695312
(PID.TID 0000.0001)         System time:   2.7999281883239746E-004
(PID.TID 0000.0001)     Wall clock time:   4.6254088878631592
(PID.TID 0000.0001)          No. starts:          20
(PID.TID 0000.0001)           No. stops:          20
(PID.TID 0000.0001)   Seconds in section "MOM_CORRECTION_STEP [FORWARD_STEP]":
(PID.TID 0000.0001)           User time:  0.33398389816284180
(PID.TID 0000.0001)         System time:   4.1991472244262695E-005
(PID.TID 0000.0001)     Wall clock time:  0.33407068252563477
(PID.TID 0000.0001)          No. starts:          20
(PID.TID 0000.0001)           No. stops:          20
(PID.TID 0000.0001)   Seconds in section "INTEGR_CONTINUITY   [FORWARD_STEP]":
(PID.TID 0000.0001)           User time:  0.57579088211059570
(PID.TID 0000.0001)         System time:   3.9011240005493164E-005
(PID.TID 0000.0001)     Wall clock time:  0.57624840736389160
(PID.TID 0000.0001)          No. starts:          20
(PID.TID 0000.0001)           No. stops:          20
(PID.TID 0000.0001)   Seconds in section "CALC_SURF_DR      [FORWARD_STEP]":
(PID.TID 0000.0001)           User time:   2.3684978485107422E-002
(PID.TID 0000.0001)         System time:   1.1999905109405518E-003
(PID.TID 0000.0001)     Wall clock time:   2.4910449981689453E-002
(PID.TID 0000.0001)          No. starts:          20
(PID.TID 0000.0001)           No. stops:          20
(PID.TID 0000.0001)   Seconds in section "TRC_CORRECTION_STEP [FORWARD_STEP]":
(PID.TID 0000.0001)           User time:   1.4948844909667969E-004
(PID.TID 0000.0001)         System time:   9.9837779998779297E-006
(PID.TID 0000.0001)     Wall clock time:   1.6260147094726562E-004
(PID.TID 0000.0001)          No. starts:          20
(PID.TID 0000.0001)           No. stops:          20
(PID.TID 0000.0001)   Seconds in section "BLOCKING_EXCHANGES  [FORWARD_STEP]":
(PID.TID 0000.0001)           User time:  0.27843904495239258
(PID.TID 0000.0001)         System time:   1.4699041843414307E-002
(PID.TID 0000.0001)     Wall clock time:  0.29320883750915527
(PID.TID 0000.0001)          No. starts:          20
(PID.TID 0000.0001)           No. stops:          20
(PID.TID 0000.0001)   Seconds in section "MONITOR             [FORWARD_STEP]":
(PID.TID 0000.0001)           User time:   2.9620256423950195
(PID.TID 0000.0001)         System time:   8.1609785556793213E-003
(PID.TID 0000.0001)     Wall clock time:   2.9713556766510010
(PID.TID 0000.0001)          No. starts:          20
(PID.TID 0000.0001)           No. stops:          20
(PID.TID 0000.0001)   Seconds in section "DO_THE_MODEL_IO     [FORWARD_STEP]":
(PID.TID 0000.0001)           User time:  0.15649509429931641
(PID.TID 0000.0001)         System time:   2.3992002010345459E-002
(PID.TID 0000.0001)     Wall clock time:  0.18048810958862305
(PID.TID 0000.0001)          No. starts:          20
(PID.TID 0000.0001)           No. stops:          20
(PID.TID 0000.0001)   Seconds in section "DO_WRITE_PICKUP     [FORWARD_STEP]":
(PID.TID 0000.0001)           User time:   3.3214330673217773E-002
(PID.TID 0000.0001)         System time:   4.3990999460220337E-002
(PID.TID 0000.0001)     Wall clock time:   7.7208518981933594E-002
(PID.TID 0000.0001)          No. starts:          20
(PID.TID 0000.0001)           No. stops:          20
(PID.TID 0000.0001) // ======================================================
(PID.TID 0000.0001) // Tile <-> Tile communication statistics
(PID.TID 0000.0001) // ======================================================
(PID.TID 0000.0001) // o Tile number: 000001
(PID.TID 0000.0001) //         No. X exchanges =              0
(PID.TID 0000.0001) //            Max. X spins =              0
(PID.TID 0000.0001) //            Min. X spins =     1000000000
(PID.TID 0000.0001) //          Total. X spins =              0
(PID.TID 0000.0001) //            Avg. X spins =       0.00E+00
(PID.TID 0000.0001) //         No. Y exchanges =              0
(PID.TID 0000.0001) //            Max. Y spins =              0
(PID.TID 0000.0001) //            Min. Y spins =     1000000000
(PID.TID 0000.0001) //          Total. Y spins =              0
(PID.TID 0000.0001) //            Avg. Y spins =       0.00E+00
(PID.TID 0000.0001) // o Tile number: 000002
(PID.TID 0000.0001) //         No. X exchanges =              0
(PID.TID 0000.0001) //            Max. X spins =              0
(PID.TID 0000.0001) //            Min. X spins =     1000000000
(PID.TID 0000.0001) //          Total. X spins =              0
(PID.TID 0000.0001) //            Avg. X spins =       0.00E+00
(PID.TID 0000.0001) //         No. Y exchanges =              0
(PID.TID 0000.0001) //            Max. Y spins =              0
(PID.TID 0000.0001) //            Min. Y spins =     1000000000
(PID.TID 0000.0001) //          Total. Y spins =              0
(PID.TID 0000.0001) //            Avg. Y spins =       0.00E+00
(PID.TID 0000.0001) // o Tile number: 000003
(PID.TID 0000.0001) //         No. X exchanges =              0
(PID.TID 0000.0001) //            Max. X spins =              0
(PID.TID 0000.0001) //            Min. X spins =     1000000000
(PID.TID 0000.0001) //          Total. X spins =              0
(PID.TID 0000.0001) //            Avg. X spins =       0.00E+00
(PID.TID 0000.0001) //         No. Y exchanges =              0
(PID.TID 0000.0001) //            Max. Y spins =              0
(PID.TID 0000.0001) //            Min. Y spins =     1000000000
(PID.TID 0000.0001) //          Total. Y spins =              0
(PID.TID 0000.0001) //            Avg. Y spins =       0.00E+00
(PID.TID 0000.0001) // o Tile number: 000004
(PID.TID 0000.0001) //         No. X exchanges =              0
(PID.TID 0000.0001) //            Max. X spins =              0
(PID.TID 0000.0001) //            Min. X spins =     1000000000
(PID.TID 0000.0001) //          Total. X spins =              0
(PID.TID 0000.0001) //            Avg. X spins =       0.00E+00
(PID.TID 0000.0001) //         No. Y exchanges =              0
(PID.TID 0000.0001) //            Max. Y spins =              0
(PID.TID 0000.0001) //            Min. Y spins =     1000000000
(PID.TID 0000.0001) //          Total. Y spins =              0
(PID.TID 0000.0001) //            Avg. Y spins =       0.00E+00
(PID.TID 0000.0001) // o Tile number: 000005
(PID.TID 0000.0001) //         No. X exchanges =              0
(PID.TID 0000.0001) //            Max. X spins =              0
(PID.TID 0000.0001) //            Min. X spins =     1000000000
(PID.TID 0000.0001) //          Total. X spins =              0
(PID.TID 0000.0001) //            Avg. X spins =       0.00E+00
(PID.TID 0000.0001) //         No. Y exchanges =              0
(PID.TID 0000.0001) //            Max. Y spins =              0
(PID.TID 0000.0001) //            Min. Y spins =     1000000000
(PID.TID 0000.0001) //          Total. Y spins =              0
(PID.TID 0000.0001) //            Avg. Y spins =       0.00E+00
(PID.TID 0000.0001) // o Tile number: 000006
(PID.TID 0000.0001) //         No. X exchanges =              0
(PID.TID 0000.0001) //            Max. X spins =              0
(PID.TID 0000.0001) //            Min. X spins =     1000000000
(PID.TID 0000.0001) //          Total. X spins =              0
(PID.TID 0000.0001) //            Avg. X spins =       0.00E+00
(PID.TID 0000.0001) //         No. Y exchanges =              0
(PID.TID 0000.0001) //            Max. Y spins =              0
(PID.TID 0000.0001) //            Min. Y spins =     1000000000
(PID.TID 0000.0001) //          Total. Y spins =              0
(PID.TID 0000.0001) //            Avg. Y spins =       0.00E+00
(PID.TID 0000.0001) // o Tile number: 000007
(PID.TID 0000.0001) //         No. X exchanges =              0
(PID.TID 0000.0001) //            Max. X spins =              0
(PID.TID 0000.0001) //            Min. X spins =     1000000000
(PID.TID 0000.0001) //          Total. X spins =              0
(PID.TID 0000.0001) //            Avg. X spins =       0.00E+00
(PID.TID 0000.0001) //         No. Y exchanges =              0
(PID.TID 0000.0001) //            Max. Y spins =              0
(PID.TID 0000.0001) //            Min. Y spins =     1000000000
(PID.TID 0000.0001) //          Total. Y spins =              0
(PID.TID 0000.0001) //            Avg. Y spins =       0.00E+00
(PID.TID 0000.0001) // o Tile number: 000008
(PID.TID 0000.0001) //         No. X exchanges =              0
(PID.TID 0000.0001) //            Max. X spins =              0
(PID.TID 0000.0001) //            Min. X spins =     1000000000
(PID.TID 0000.0001) //          Total. X spins =              0
(PID.TID 0000.0001) //            Avg. X spins =       0.00E+00
(PID.TID 0000.0001) //         No. Y exchanges =              0
(PID.TID 0000.0001) //            Max. Y spins =              0
(PID.TID 0000.0001) //            Min. Y spins =     1000000000
(PID.TID 0000.0001) //          Total. Y spins =              0
(PID.TID 0000.0001) //            Avg. Y spins =       0.00E+00
(PID.TID 0000.0001) // o Thread number: 000001
(PID.TID 0000.0001) //            No. barriers =          24880
(PID.TID 0000.0001) //      Max. barrier spins =              1
(PID.TID 0000.0001) //      Min. barrier spins =              1
(PID.TID 0000.0001) //     Total barrier spins =          24880
(PID.TID 0000.0001) //      Avg. barrier spins =       1.00E+00
PROGRAM MAIN: Execution ended Normally
