(PID.TID 0000.0001) 
(PID.TID 0000.0001) // ======================================================
(PID.TID 0000.0001) //                      MITgcm UV
(PID.TID 0000.0001) //                      =========
(PID.TID 0000.0001) // ======================================================
(PID.TID 0000.0001) // execution environment starting up...
(PID.TID 0000.0001) 
(PID.TID 0000.0001) // MITgcmUV version:  checkpoint67h
(PID.TID 0000.0001) // Build user:        jmc
(PID.TID 0000.0001) // Build host:        baudelaire
(PID.TID 0000.0001) // Build date:        Fri Mar 22 00:15:15 EDT 2019
(PID.TID 0000.0001) 
(PID.TID 0000.0001) // =======================================================
(PID.TID 0000.0001) // Execution Environment parameter file "eedata"
(PID.TID 0000.0001) // =======================================================
(PID.TID 0000.0001) ># Example "eedata" file
(PID.TID 0000.0001) ># Lines beginning "#" are comments
(PID.TID 0000.0001) ># nTx - No. threads per process in X
(PID.TID 0000.0001) ># nTy - No. threads per process in Y
(PID.TID 0000.0001) > &EEPARMS
(PID.TID 0000.0001) > /
(PID.TID 0000.0001) ># Note: Some systems use & as the
(PID.TID 0000.0001) ># namelist terminator. Other systems
(PID.TID 0000.0001) ># use a / character (as shown here).
(PID.TID 0000.0001) 
(PID.TID 0000.0001) // =======================================================
(PID.TID 0000.0001) // Computational Grid Specification ( see files "SIZE.h" )
(PID.TID 0000.0001) //                                  ( and "eedata"       )
(PID.TID 0000.0001) // =======================================================
(PID.TID 0000.0001)      nPx =    1 ; /* No. processes in X */
(PID.TID 0000.0001)      nPy =    1 ; /* No. processes in Y */
(PID.TID 0000.0001)      nSx =    2 ; /* No. tiles in X per process */
(PID.TID 0000.0001)      nSy =    4 ; /* No. tiles in Y per process */
(PID.TID 0000.0001)      sNx =   25 ; /* Tile size in X */
(PID.TID 0000.0001)      sNy =   25 ; /* Tile size in Y */
(PID.TID 0000.0001)      OLx =    3 ; /* Tile overlap distance in X */
(PID.TID 0000.0001)      OLy =    3 ; /* Tile overlap distance in Y */
(PID.TID 0000.0001)      nTx =    1 ; /* No. threads in X per process */
(PID.TID 0000.0001)      nTy =    1 ; /* No. threads in Y per process */
(PID.TID 0000.0001)       Nr =   30 ; /* No. levels in the vertical   */
(PID.TID 0000.0001)       Nx =   50 ; /* Total domain size in X ( = nPx*nSx*sNx ) */
(PID.TID 0000.0001)       Ny =  100 ; /* Total domain size in Y ( = nPy*nSy*sNy ) */
(PID.TID 0000.0001)   nTiles =    8 ; /* Total no. tiles per process ( = nSx*nSy ) */
(PID.TID 0000.0001)   nProcs =    1 ; /* Total no. processes ( = nPx*nPy ) */
(PID.TID 0000.0001) nThreads =    1 ; /* Total no. threads per process ( = nTx*nTy ) */
(PID.TID 0000.0001) usingMPI =    F ; /* Flag used to control whether MPI is in use */
(PID.TID 0000.0001)                   /*  note: To execute a program with MPI calls */
(PID.TID 0000.0001)                   /*  it must be launched appropriately e.g     */
(PID.TID 0000.0001)                   /*  "mpirun -np 64 ......"                    */
(PID.TID 0000.0001) useCoupler=    F ;/* Flag used to control communications with   */
(PID.TID 0000.0001)                   /*  other model components, through a coupler */
(PID.TID 0000.0001) useNest2W_parent =    F ;/* Control 2-W Nesting comm */
(PID.TID 0000.0001) useNest2W_child  =    F ;/* Control 2-W Nesting comm */
(PID.TID 0000.0001) debugMode =    F ; /* print debug msg. (sequence of S/R calls)  */
(PID.TID 0000.0001) printMapIncludesZeros=    F ; /* print zeros in Std.Output maps */
(PID.TID 0000.0001) maxLengthPrt1D=   65 /* maxLength of 1D array printed to StdOut */
(PID.TID 0000.0001) 
(PID.TID 0000.0001) // ======================================================
(PID.TID 0000.0001) // Mapping of tiles to threads
(PID.TID 0000.0001) // ======================================================
(PID.TID 0000.0001) // -o- Thread   1, tiles (   1:   2,   1:   4)
(PID.TID 0000.0001) 
(PID.TID 0000.0001) // ======================================================
(PID.TID 0000.0001) // Tile <-> Tile connectvity table
(PID.TID 0000.0001) // ======================================================
(PID.TID 0000.0001) // Tile number: 000001 (process no. = 000000)
(PID.TID 0000.0001) //        WEST: Tile = 000002, Process = 000000, Comm = put
(PID.TID 0000.0001) //                bi = 000002, bj = 000001
(PID.TID 0000.0001) //        EAST: Tile = 000002, Process = 000000, Comm = put
(PID.TID 0000.0001) //                bi = 000002, bj = 000001
(PID.TID 0000.0001) //       SOUTH: Tile = 000007, Process = 000000, Comm = put
(PID.TID 0000.0001) //                bi = 000001, bj = 000004
(PID.TID 0000.0001) //       NORTH: Tile = 000003, Process = 000000, Comm = put
(PID.TID 0000.0001) //                bi = 000001, bj = 000002
(PID.TID 0000.0001) // Tile number: 000002 (process no. = 000000)
(PID.TID 0000.0001) //        WEST: Tile = 000001, Process = 000000, Comm = put
(PID.TID 0000.0001) //                bi = 000001, bj = 000001
(PID.TID 0000.0001) //        EAST: Tile = 000001, Process = 000000, Comm = put
(PID.TID 0000.0001) //                bi = 000001, bj = 000001
(PID.TID 0000.0001) //       SOUTH: Tile = 000008, Process = 000000, Comm = put
(PID.TID 0000.0001) //                bi = 000002, bj = 000004
(PID.TID 0000.0001) //       NORTH: Tile = 000004, Process = 000000, Comm = put
(PID.TID 0000.0001) //                bi = 000002, bj = 000002
(PID.TID 0000.0001) // Tile number: 000003 (process no. = 000000)
(PID.TID 0000.0001) //        WEST: Tile = 000004, Process = 000000, Comm = put
(PID.TID 0000.0001) //                bi = 000002, bj = 000002
(PID.TID 0000.0001) //        EAST: Tile = 000004, Process = 000000, Comm = put
(PID.TID 0000.0001) //                bi = 000002, bj = 000002
(PID.TID 0000.0001) //       SOUTH: Tile = 000001, Process = 000000, Comm = put
(PID.TID 0000.0001) //                bi = 000001, bj = 000001
(PID.TID 0000.0001) //       NORTH: Tile = 000005, Process = 000000, Comm = put
(PID.TID 0000.0001) //                bi = 000001, bj = 000003
(PID.TID 0000.0001) // Tile number: 000004 (process no. = 000000)
(PID.TID 0000.0001) //        WEST: Tile = 000003, Process = 000000, Comm = put
(PID.TID 0000.0001) //                bi = 000001, bj = 000002
(PID.TID 0000.0001) //        EAST: Tile = 000003, Process = 000000, Comm = put
(PID.TID 0000.0001) //                bi = 000001, bj = 000002
(PID.TID 0000.0001) //       SOUTH: Tile = 000002, Process = 000000, Comm = put
(PID.TID 0000.0001) //                bi = 000002, bj = 000001
(PID.TID 0000.0001) //       NORTH: Tile = 000006, Process = 000000, Comm = put
(PID.TID 0000.0001) //                bi = 000002, bj = 000003
(PID.TID 0000.0001) // Tile number: 000005 (process no. = 000000)
(PID.TID 0000.0001) //        WEST: Tile = 000006, Process = 000000, Comm = put
(PID.TID 0000.0001) //                bi = 000002, bj = 000003
(PID.TID 0000.0001) //        EAST: Tile = 000006, Process = 000000, Comm = put
(PID.TID 0000.0001) //                bi = 000002, bj = 000003
(PID.TID 0000.0001) //       SOUTH: Tile = 000003, Process = 000000, Comm = put
(PID.TID 0000.0001) //                bi = 000001, bj = 000002
(PID.TID 0000.0001) //       NORTH: Tile = 000007, Process = 000000, Comm = put
(PID.TID 0000.0001) //                bi = 000001, bj = 000004
(PID.TID 0000.0001) // Tile number: 000006 (process no. = 000000)
(PID.TID 0000.0001) //        WEST: Tile = 000005, Process = 000000, Comm = put
(PID.TID 0000.0001) //                bi = 000001, bj = 000003
(PID.TID 0000.0001) //        EAST: Tile = 000005, Process = 000000, Comm = put
(PID.TID 0000.0001) //                bi = 000001, bj = 000003
(PID.TID 0000.0001) //       SOUTH: Tile = 000004, Process = 000000, Comm = put
(PID.TID 0000.0001) //                bi = 000002, bj = 000002
(PID.TID 0000.0001) //       NORTH: Tile = 000008, Process = 000000, Comm = put
(PID.TID 0000.0001) //                bi = 000002, bj = 000004
(PID.TID 0000.0001) // Tile number: 000007 (process no. = 000000)
(PID.TID 0000.0001) //        WEST: Tile = 000008, Process = 000000, Comm = put
(PID.TID 0000.0001) //                bi = 000002, bj = 000004
(PID.TID 0000.0001) //        EAST: Tile = 000008, Process = 000000, Comm = put
(PID.TID 0000.0001) //                bi = 000002, bj = 000004
(PID.TID 0000.0001) //       SOUTH: Tile = 000005, Process = 000000, Comm = put
(PID.TID 0000.0001) //                bi = 000001, bj = 000003
(PID.TID 0000.0001) //       NORTH: Tile = 000001, Process = 000000, Comm = put
(PID.TID 0000.0001) //                bi = 000001, bj = 000001
(PID.TID 0000.0001) // Tile number: 000008 (process no. = 000000)
(PID.TID 0000.0001) //        WEST: Tile = 000007, Process = 000000, Comm = put
(PID.TID 0000.0001) //                bi = 000001, bj = 000004
(PID.TID 0000.0001) //        EAST: Tile = 000007, Process = 000000, Comm = put
(PID.TID 0000.0001) //                bi = 000001, bj = 000004
(PID.TID 0000.0001) //       SOUTH: Tile = 000006, Process = 000000, Comm = put
(PID.TID 0000.0001) //                bi = 000002, bj = 000003
(PID.TID 0000.0001) //       NORTH: Tile = 000002, Process = 000000, Comm = put
(PID.TID 0000.0001) //                bi = 000002, bj = 000001
(PID.TID 0000.0001) 
(PID.TID 0000.0001)  INI_PARMS: opening model parameter file "data"
(PID.TID 0000.0001)  OPEN_COPY_DATA_FILE: opening file data
(PID.TID 0000.0001) // =======================================================
(PID.TID 0000.0001) // Parameter file "data"
(PID.TID 0000.0001) // =======================================================
(PID.TID 0000.0001) ># ====================
(PID.TID 0000.0001) ># | Model parameters |
(PID.TID 0000.0001) ># ====================
(PID.TID 0000.0001) >#
(PID.TID 0000.0001) ># Continuous equation parameters
(PID.TID 0000.0001) > &PARM01
(PID.TID 0000.0001) > Tref = 30*-1.9,
(PID.TID 0000.0001) > Sref = 30*34.4,
(PID.TID 0000.0001) > viscAz=1.E-3,
(PID.TID 0000.0001) > viscAh=1000.,
(PID.TID 0000.0001) > no_slip_sides=.FALSE.,
(PID.TID 0000.0001) > no_slip_bottom=.FALSE.,
(PID.TID 0000.0001) > diffKhT=100.0,
(PID.TID 0000.0001) > diffKzT=5.E-5,
(PID.TID 0000.0001) > diffKhS=100.0,
(PID.TID 0000.0001) > diffKzS=5.E-5,
(PID.TID 0000.0001) > ivdc_kappa=1.,
(PID.TID 0000.0001) > implicitDiffusion=.TRUE.,
(PID.TID 0000.0001) > implicitViscosity=.TRUE.,
(PID.TID 0000.0001) > bottomDragQuadratic=2.5E-3,
(PID.TID 0000.0001) >#selectBotDragQuadr=2,
(PID.TID 0000.0001) >#useCDScheme = .TRUE.,
(PID.TID 0000.0001) > useJamartWetPoints=.TRUE.,
(PID.TID 0000.0001) >#--
(PID.TID 0000.0001) > eosType='JMD95Z',
(PID.TID 0000.0001) > HeatCapacity_Cp = 3974.,
(PID.TID 0000.0001) > rhoConst=1030.,
(PID.TID 0000.0001) > gravity=9.81,
(PID.TID 0000.0001) > convertFW2Salt = 33.4,
(PID.TID 0000.0001) > implicitFreeSurface=.TRUE.,
(PID.TID 0000.0001) > exactConserv=.TRUE.,
(PID.TID 0000.0001) >#select_rStar=2,
(PID.TID 0000.0001) > nonlinFreeSurf=4,
(PID.TID 0000.0001) > hFacInf=0.02,
(PID.TID 0000.0001) > hFacSup=2.0,
(PID.TID 0000.0001) >#useRealFreshWaterFlux=.TRUE.,
(PID.TID 0000.0001) > hFacMin=0.05,
(PID.TID 0000.0001) >#--
(PID.TID 0000.0001) > readBinaryPrec=64,
(PID.TID 0000.0001) >#writeBinaryPrec=64,
(PID.TID 0000.0001) >#globalFiles=.TRUE.,
(PID.TID 0000.0001) >#debugLevel=3,
(PID.TID 0000.0001) > plotLevel =0,
(PID.TID 0000.0001) > /
(PID.TID 0000.0001) >
(PID.TID 0000.0001) ># Elliptic solver parameters
(PID.TID 0000.0001) > &PARM02
(PID.TID 0000.0001) > cg2dMaxIters=1000,
(PID.TID 0000.0001) > cg2dTargetResidual=1.E-13,
(PID.TID 0000.0001) > cg3dMaxIters=400,
(PID.TID 0000.0001) > cg3dTargetResidual=1.E-13,
(PID.TID 0000.0001) > /
(PID.TID 0000.0001) >
(PID.TID 0000.0001) ># Time stepping parameters
(PID.TID 0000.0001) > &PARM03
(PID.TID 0000.0001) > nIter0 = 8640,
(PID.TID 0000.0001) > nTimeSteps=20,
(PID.TID 0000.0001) > deltaT=1800.,
(PID.TID 0000.0001) > abEps=0.1,
(PID.TID 0000.0001) > momDissip_In_AB=.FALSE.,
(PID.TID 0000.0001) >#cAdjFreq = -1.,
(PID.TID 0000.0001) >#tauCD = 400000.,
(PID.TID 0000.0001) > pChkptFreq= 0.,
(PID.TID 0000.0001) > chkptFreq=  0.,
(PID.TID 0000.0001) > dumpFreq=   0.,
(PID.TID 0000.0001) > monitorSelect=2,
(PID.TID 0000.0001) > monitorFreq=1.,
(PID.TID 0000.0001) > /
(PID.TID 0000.0001) >
(PID.TID 0000.0001) ># Gridding parameters
(PID.TID 0000.0001) > &PARM04
(PID.TID 0000.0001) > usingSphericalPolarGrid=.TRUE.,
(PID.TID 0000.0001) > ygOrigin = -80.0,
(PID.TID 0000.0001) > delX=50*0.3,
(PID.TID 0000.0001) > delY=100*0.1,
(PID.TID 0000.0001) > delZ=30*30.0,
(PID.TID 0000.0001) >#-
(PID.TID 0000.0001) > pCellMix_select= 20,
(PID.TID 0000.0001) > pCellMix_delR  = 20.,
(PID.TID 0000.0001) ># interViscAr_pCell = .TRUE.,
(PID.TID 0000.0001) ># interDiffKr_pCell = .TRUE.,
(PID.TID 0000.0001) > pCellMix_viscAr = 30*4.e-4,
(PID.TID 0000.0001) > pCellMix_diffKr = 30*2.e-4,
(PID.TID 0000.0001) ># current default: diffKzT=5.E-5, viscAz=1.E-3,
(PID.TID 0000.0001) > /
(PID.TID 0000.0001) >
(PID.TID 0000.0001) ># Input datasets
(PID.TID 0000.0001) > &PARM05
(PID.TID 0000.0001) > bathyFile='bathy.box',
(PID.TID 0000.0001) > /
(PID.TID 0000.0001) 
(PID.TID 0000.0001)  INI_PARMS ; starts to read PARM01
(PID.TID 0000.0001)  INI_PARMS ; read PARM01 : OK
(PID.TID 0000.0001)  INI_PARMS ; starts to read PARM02
(PID.TID 0000.0001)  INI_PARMS ; read PARM02 : OK
(PID.TID 0000.0001)  INI_PARMS ; starts to read PARM03
(PID.TID 0000.0001)  INI_PARMS ; read PARM03 : OK
(PID.TID 0000.0001)  INI_PARMS ; starts to read PARM04
(PID.TID 0000.0001)  INI_PARMS ; read PARM04 : OK
(PID.TID 0000.0001)  INI_PARMS ; starts to read PARM05
(PID.TID 0000.0001)  INI_PARMS ; read PARM05 : OK
(PID.TID 0000.0001)  INI_PARMS: finished reading file "data"
(PID.TID 0000.0001)  PACKAGES_BOOT: opening data.pkg
(PID.TID 0000.0001)  OPEN_COPY_DATA_FILE: opening file data.pkg
(PID.TID 0000.0001) // =======================================================
(PID.TID 0000.0001) // Parameter file "data.pkg"
(PID.TID 0000.0001) // =======================================================
(PID.TID 0000.0001) ># Packages
(PID.TID 0000.0001) > &PACKAGES
(PID.TID 0000.0001) > useShelfIce=.TRUE.,
(PID.TID 0000.0001) > useDiagnostics=.TRUE.,
(PID.TID 0000.0001) > useMNC=.TRUE.,
(PID.TID 0000.0001) > /
(PID.TID 0000.0001) 
(PID.TID 0000.0001)  PACKAGES_BOOT: finished reading data.pkg
(PID.TID 0000.0001)  PACKAGES_BOOT: On/Off package Summary
 --------  pkgs with a standard "usePKG" On/Off switch in "data.pkg":  --------
 pkg/shelfice             compiled   and   used ( useShelfIce              = T )
 pkg/icefront             compiled but not used ( useICEFRONT              = F )
 pkg/diagnostics          compiled   and   used ( useDiagnostics           = T )
 pkg/mnc                  compiled   and   used ( useMNC                   = T )
 -------- pkgs without standard "usePKG" On/Off switch in "data.pkg":  --------
 pkg/generic_advdiff      compiled   and   used ( useGAD                   = T )
 pkg/mom_common           compiled   and   used ( momStepping              = T )
 pkg/mom_vecinv           compiled but not used ( +vectorInvariantMomentum = F )
 pkg/mom_fluxform         compiled   and   used ( & not vectorInvariantMom = T )
 pkg/cd_code              compiled but not used ( useCDscheme              = F )
 pkg/monitor              compiled   and   used ( monitorFreq > 0.         = T )
 pkg/debug                compiled but not used ( debugMode                = F )
 pkg/rw                   compiled   and   used
 pkg/mdsio                compiled   and   used
(PID.TID 0000.0001)  PACKAGES_BOOT: End of package Summary
(PID.TID 0000.0001) 
(PID.TID 0000.0001)  MNC_READPARMS: opening file 'data.mnc'
(PID.TID 0000.0001)  OPEN_COPY_DATA_FILE: opening file data.mnc
(PID.TID 0000.0001) // =======================================================
(PID.TID 0000.0001) // Parameter file "data.mnc"
(PID.TID 0000.0001) // =======================================================
(PID.TID 0000.0001) ># Example "data.mnc" file
(PID.TID 0000.0001) ># Lines beginning "#" are comments
(PID.TID 0000.0001) > &MNC_01
(PID.TID 0000.0001) ># mnc_echo_gvtypes=.FALSE.,
(PID.TID 0000.0001) ># mnc_use_indir=.FALSE.,
(PID.TID 0000.0001) > mnc_use_outdir=.TRUE.,
(PID.TID 0000.0001) > mnc_outdir_str='mnc_test_',
(PID.TID 0000.0001) >#mnc_outdir_date=.TRUE.,
(PID.TID 0000.0001) > monitor_mnc=.FALSE.,
(PID.TID 0000.0001) >#snapshot_mnc=.FALSE.,
(PID.TID 0000.0001) >#timeave_mnc=.FALSE.,
(PID.TID 0000.0001) > pickup_read_mnc=.FALSE.,
(PID.TID 0000.0001) > pickup_write_mnc=.FALSE.,
(PID.TID 0000.0001) > /
(PID.TID 0000.0001) ># Note: Some systems use & as the
(PID.TID 0000.0001) ># namelist terminator. Other systems
(PID.TID 0000.0001) ># use a / character (as shown here).
(PID.TID 0000.0001) 
(PID.TID 0000.0001)  MNC_READPARMS: finished reading data.mnc
(PID.TID 0000.0001)  SHELFICE_READPARMS: opening data.shelfice
(PID.TID 0000.0001)  OPEN_COPY_DATA_FILE: opening file data.shelfice
(PID.TID 0000.0001) // =======================================================
(PID.TID 0000.0001) // Parameter file "data.shelfice"
(PID.TID 0000.0001) // =======================================================
(PID.TID 0000.0001) ># ===================================
(PID.TID 0000.0001) ># | Parameters for SHELFICE package |
(PID.TID 0000.0001) ># ===================================
(PID.TID 0000.0001) > &SHELFICE_PARM01
(PID.TID 0000.0001) > SHELFICEconserve = .TRUE.,
(PID.TID 0000.0001) >#SHELFICEboundaryLayer = .TRUE.,
(PID.TID 0000.0001) > SHELFICEtopoFile='icetopo.exp1',
(PID.TID 0000.0001) >#SHELFICEloadAnomalyFile = 'phi0surf.exp1.jmd95z',
(PID.TID 0000.0001) > SHELFICEmassFile='iceShelf_Mass.bin',
(PID.TID 0000.0001) > SHELFICEadvDiffHeatFlux = .TRUE.,
(PID.TID 0000.0001) >#no_slip_shelfice = .FALSE.,   <- the default is: =no_slip_bottom (=F here), free-slip BC
(PID.TID 0000.0001) > SHELFICEuseGammaFrict = .TRUE.,
(PID.TID 0000.0001) > SHELFICEselectDragQuadr=1,
(PID.TID 0000.0001) >#SHELFICE_oldCalcUStar=.TRUE., <- the default is: =F
(PID.TID 0000.0001) >#----
(PID.TID 0000.0001) > SHELFICEwriteState = .TRUE.,
(PID.TID 0000.0001) > /
(PID.TID 0000.0001) 
(PID.TID 0000.0001)  SHELFICE_READPARMS: finished reading data.shelfice
(PID.TID 0000.0001)  DIAGNOSTICS_READPARMS: opening data.diagnostics
(PID.TID 0000.0001)  OPEN_COPY_DATA_FILE: opening file data.diagnostics
(PID.TID 0000.0001) // =======================================================
(PID.TID 0000.0001) // Parameter file "data.diagnostics"
(PID.TID 0000.0001) // =======================================================
(PID.TID 0000.0001) ># Diagnostic Package Choices
(PID.TID 0000.0001) >#--------------------
(PID.TID 0000.0001) >#  dumpAtLast (logical): always write output at the end of simulation (default=F)
(PID.TID 0000.0001) >#  diag_mnc   (logical): write to NetCDF files (default=useMNC)
(PID.TID 0000.0001) >#--for each output-stream:
(PID.TID 0000.0001) >#  fileName(n) : prefix of the output file name (max 80c long) for outp.stream n
(PID.TID 0000.0001) >#  frequency(n):< 0 : write snap-shot output every |frequency| seconds
(PID.TID 0000.0001) >#               > 0 : write time-average output every frequency seconds
(PID.TID 0000.0001) >#  timePhase(n)     : write at time = timePhase + multiple of |frequency|
(PID.TID 0000.0001) >#    averagingFreq  : frequency (in s) for periodic averaging interval
(PID.TID 0000.0001) >#    averagingPhase : phase     (in s) for periodic averaging interval
(PID.TID 0000.0001) >#    repeatCycle    : number of averaging intervals in 1 cycle
(PID.TID 0000.0001) >#  levels(:,n) : list of levels to write to file (Notes: declared as REAL)
(PID.TID 0000.0001) >#                when this entry is missing, select all common levels of this list
(PID.TID 0000.0001) >#  fields(:,n) : list of selected diagnostics fields (8.c) in outp.stream n
(PID.TID 0000.0001) >#                (see "available_diagnostics.log" file for the full list of diags)
(PID.TID 0000.0001) >#  missing_value(n) : missing value for real-type fields in output file "n"
(PID.TID 0000.0001) >#  fileFlags(n)     : specific code (8c string) for output file "n"
(PID.TID 0000.0001) >#--------------------
(PID.TID 0000.0001) > &DIAGNOSTICS_LIST
(PID.TID 0000.0001) ># diag_mnc     = .FALSE.,
(PID.TID 0000.0001) >#--
(PID.TID 0000.0001) >  fields(1:12,1) = 'ETAN    ','ETANSQ  ','DETADT2 ',
(PID.TID 0000.0001) >                   'SHIuStar','SHIgammT','SHIgammS',
(PID.TID 0000.0001) >                   'SHIfwFlx','SHIhtFlx','SHIForcT','SHIForcS',
(PID.TID 0000.0001) >                   'TFLUX   ','SFLUX   ',
(PID.TID 0000.0001) >#                  'oceTAUX ','oceTAUY ',
(PID.TID 0000.0001) >#                  'TRELAX  ','SRELAX  ','oceFreez',
(PID.TID 0000.0001) >   fileName(1) = 'surfDiag',
(PID.TID 0000.0001) >  frequency(1) =  5184000.,
(PID.TID 0000.0001) >
(PID.TID 0000.0001) >  fields(1:11,2) = 'UVEL    ','VVEL    ','WVEL    ','PHIHYD  ',
(PID.TID 0000.0001) >                   'VVELMASS','UVELMASS','WVELSQ  ',
(PID.TID 0000.0001) >                   'THETA   ','SALT    ','SHIUDrag','SHIVDrag',
(PID.TID 0000.0001) ># do not specify levels => all levels are selected
(PID.TID 0000.0001) >   fileName(2) = 'dynDiag',
(PID.TID 0000.0001) >  frequency(2) =  5184000.,
(PID.TID 0000.0001) >
(PID.TID 0000.0001) >  fields(1:7,4) =  'ADVx_TH ','ADVy_TH ','ADVr_TH ',
(PID.TID 0000.0001) >                   'DFxE_TH ','DFyE_TH ','DFrE_TH ',
(PID.TID 0000.0001) >                   'DFrI_TH ',
(PID.TID 0000.0001) >#                  'ADVx_SLT',
(PID.TID 0000.0001) >#  fileName(4) = 'flxDiag',
(PID.TID 0000.0001) >  frequency(4) = 1728000.,
(PID.TID 0000.0001) > /
(PID.TID 0000.0001) >
(PID.TID 0000.0001) >#--------------------
(PID.TID 0000.0001) ># Parameter for Diagnostics of per level statistics:
(PID.TID 0000.0001) >#--------------------
(PID.TID 0000.0001) >#  diagSt_mnc (logical): write stat-diags to NetCDF files (default=diag_mnc)
(PID.TID 0000.0001) >#  diagSt_regMaskFile : file containing the region-mask to read-in
(PID.TID 0000.0001) >#  nSetRegMskFile   : number of region-mask sets within the region-mask file
(PID.TID 0000.0001) >#  set_regMask(i)   : region-mask set-index that identifies the region "i"
(PID.TID 0000.0001) >#  val_regMask(i)   : region "i" identifier value in the region mask
(PID.TID 0000.0001) >#--for each output-stream:
(PID.TID 0000.0001) >#  stat_fName(n) : prefix of the output file name (max 80c long) for outp.stream n
(PID.TID 0000.0001) >#  stat_freq(n):< 0 : write snap-shot output every |stat_freq| seconds
(PID.TID 0000.0001) >#               > 0 : write time-average output every stat_freq seconds
(PID.TID 0000.0001) >#  stat_phase(n)    : write at time = stat_phase + multiple of |stat_freq|
(PID.TID 0000.0001) >#  stat_region(:,n) : list of "regions" (default: 1 region only=global)
(PID.TID 0000.0001) >#  stat_fields(:,n) : list of selected diagnostics fields (8.c) in outp.stream n
(PID.TID 0000.0001) >#                (see "available_diagnostics.log" file for the full list of diags)
(PID.TID 0000.0001) >#--------------------
(PID.TID 0000.0001) > &DIAG_STATIS_PARMS
(PID.TID 0000.0001) ># an example just to check the agreement with MONITOR output:
(PID.TID 0000.0001) > stat_fields(1:6,1)  = 'ETAN    ','UVEL    ','VVEL    ','WVEL    ',
(PID.TID 0000.0001) >                       'THETA   ','SALT    ',
(PID.TID 0000.0001) >  stat_fName(1) = 'dynStDiag',
(PID.TID 0000.0001) >   stat_freq(1) = 86400.,
(PID.TID 0000.0001) ># stat_phase(1) = 0.,
(PID.TID 0000.0001) > /
(PID.TID 0000.0001) >
(PID.TID 0000.0001) 
(PID.TID 0000.0001) S/R DIAGNOSTICS_READPARMS, read namelist "diagnostics_list": start
(PID.TID 0000.0001) S/R DIAGNOSTICS_READPARMS, read namelist "diagnostics_list": OK
(PID.TID 0000.0001) S/R DIAGNOSTICS_READPARMS, read namelist "DIAG_STATIS_PARMS": start
(PID.TID 0000.0001) S/R DIAGNOSTICS_READPARMS, read namelist "DIAG_STATIS_PARMS": OK
(PID.TID 0000.0001)  DIAGNOSTICS_READPARMS: global parameter summary:
(PID.TID 0000.0001)  dumpAtLast = /* always write time-ave diags at the end */
(PID.TID 0000.0001)                   F
(PID.TID 0000.0001)     ;
(PID.TID 0000.0001)  diag_mnc =   /* write NetCDF output files */
(PID.TID 0000.0001)                   T
(PID.TID 0000.0001)     ;
(PID.TID 0000.0001)  useMissingValue = /* put MissingValue where mask = 0 */
(PID.TID 0000.0001)                   F
(PID.TID 0000.0001)     ;
(PID.TID 0000.0001)  diagCG_maxIters = /* max number of iters in diag_cg2d */
(PID.TID 0000.0001)                    1000
(PID.TID 0000.0001)     ;
(PID.TID 0000.0001)  diagCG_resTarget = /* residual target for diag_cg2d */
(PID.TID 0000.0001)                 1.000000000000000E-13
(PID.TID 0000.0001)     ;
(PID.TID 0000.0001)  diagCG_pcOffDFac = /* preconditioner off-diagonal factor */
(PID.TID 0000.0001)                 9.611687812379854E-01
(PID.TID 0000.0001)     ;
(PID.TID 0000.0001) -----------------------------------------------------
(PID.TID 0000.0001)  DIAGNOSTICS_READPARMS: active diagnostics summary:
(PID.TID 0000.0001) -----------------------------------------------------
(PID.TID 0000.0001) Creating Output Stream: surfDiag
(PID.TID 0000.0001) Output Frequency:    5184000.000000 ; Phase:           0.000000
(PID.TID 0000.0001)  Averaging Freq.:    5184000.000000 , Phase:           0.000000 , Cycle:   1
(PID.TID 0000.0001)  missing value: -9.990000000000E+02
(PID.TID 0000.0001)  Levels:    will be set later
(PID.TID 0000.0001)  Fields:    ETAN     ETANSQ   DETADT2  SHIuStar SHIgammT SHIgammS SHIfwFlx SHIhtFlx SHIForcT SHIForcS
(PID.TID 0000.0001)  Fields:    TFLUX    SFLUX
(PID.TID 0000.0001) Creating Output Stream: dynDiag
(PID.TID 0000.0001) Output Frequency:    5184000.000000 ; Phase:           0.000000
(PID.TID 0000.0001)  Averaging Freq.:    5184000.000000 , Phase:           0.000000 , Cycle:   1
(PID.TID 0000.0001)  missing value: -9.990000000000E+02
(PID.TID 0000.0001)  Levels:    will be set later
(PID.TID 0000.0001)  Fields:    UVEL     VVEL     WVEL     PHIHYD   VVELMASS UVELMASS WVELSQ   THETA    SALT     SHIUDrag
(PID.TID 0000.0001)  Fields:    SHIVDrag
(PID.TID 0000.0001) -----------------------------------------------------
(PID.TID 0000.0001)  DIAGNOSTICS_READPARMS: statistics diags. summary:
(PID.TID 0000.0001) Creating Stats. Output Stream: dynStDiag
(PID.TID 0000.0001) Output Frequency:      86400.000000 ; Phase:           0.000000
(PID.TID 0000.0001)  Regions:   0
(PID.TID 0000.0001)  Fields:    ETAN     UVEL     VVEL     WVEL     THETA    SALT
(PID.TID 0000.0001) -----------------------------------------------------
(PID.TID 0000.0001) 
(PID.TID 0000.0001) SET_PARMS: done
(PID.TID 0000.0001) Enter INI_VERTICAL_GRID: setInterFDr=    T ; setCenterDr=    F
(PID.TID 0000.0001) %MON XC_max                       =   1.4850000000000E+01
(PID.TID 0000.0001) %MON XC_min                       =   1.5000000000000E-01
(PID.TID 0000.0001) %MON XC_mean                      =   7.5000000000000E+00
(PID.TID 0000.0001) %MON XC_sd                        =   4.3292609068985E+00
(PID.TID 0000.0001) %MON XG_max                       =   1.4700000000000E+01
(PID.TID 0000.0001) %MON XG_min                       =   1.1102230246252E-16
(PID.TID 0000.0001) %MON XG_mean                      =   7.3500000000000E+00
(PID.TID 0000.0001) %MON XG_sd                        =   4.3292609068985E+00
(PID.TID 0000.0001) %MON DXC_max                      =   1.1380125394806E+04
(PID.TID 0000.0001) %MON DXC_min                      =   5.8203914905589E+03
(PID.TID 0000.0001) %MON DXC_mean                     =   8.6215028627207E+03
(PID.TID 0000.0001) %MON DXC_sd                       =   1.6219001271572E+03
(PID.TID 0000.0001) %MON DXF_max                      =   1.1380125394806E+04
(PID.TID 0000.0001) %MON DXF_min                      =   5.8203914905589E+03
(PID.TID 0000.0001) %MON DXF_mean                     =   8.6215028627207E+03
(PID.TID 0000.0001) %MON DXF_sd                       =   1.6219001271572E+03
(PID.TID 0000.0001) %MON DXG_max                      =   1.1352761512017E+04
(PID.TID 0000.0001) %MON DXG_min                      =   5.7917296935586E+03
(PID.TID 0000.0001) %MON DXG_mean                     =   8.5934208253080E+03
(PID.TID 0000.0001) %MON DXG_sd                       =   1.6222785520817E+03
(PID.TID 0000.0001) %MON DXV_max                      =   1.1352761512017E+04
(PID.TID 0000.0001) %MON DXV_min                      =   5.7917296935586E+03
(PID.TID 0000.0001) %MON DXV_mean                     =   8.5934208253080E+03
(PID.TID 0000.0001) %MON DXV_sd                       =   1.6222785520817E+03
(PID.TID 0000.0001) %MON YC_max                       =  -7.0050000000001E+01
(PID.TID 0000.0001) %MON YC_min                       =  -7.9950000000000E+01
(PID.TID 0000.0001) %MON YC_mean                      =  -7.5000000000000E+01
(PID.TID 0000.0001) %MON YC_sd                        =   2.8866070047720E+00
(PID.TID 0000.0001) %MON YG_max                       =  -7.0100000000001E+01
(PID.TID 0000.0001) %MON YG_min                       =  -8.0000000000000E+01
(PID.TID 0000.0001) %MON YG_mean                      =  -7.5050000000000E+01
(PID.TID 0000.0001) %MON YG_sd                        =   2.8866070047721E+00
(PID.TID 0000.0001) %MON DYC_max                      =   1.1117747335204E+04
(PID.TID 0000.0001) %MON DYC_min                      =   1.1117747335204E+04
(PID.TID 0000.0001) %MON DYC_mean                     =   1.1117747335204E+04
(PID.TID 0000.0001) %MON DYC_sd                       =   4.1836756281555E-11
(PID.TID 0000.0001) %MON DYF_max                      =   1.1117747335204E+04
(PID.TID 0000.0001) %MON DYF_min                      =   1.1117747335204E+04
(PID.TID 0000.0001) %MON DYF_mean                     =   1.1117747335204E+04
(PID.TID 0000.0001) %MON DYF_sd                       =   4.1836756281555E-11
(PID.TID 0000.0001) %MON DYG_max                      =   1.1117747335204E+04
(PID.TID 0000.0001) %MON DYG_min                      =   1.1117747335204E+04
(PID.TID 0000.0001) %MON DYG_mean                     =   1.1117747335204E+04
(PID.TID 0000.0001) %MON DYG_sd                       =   4.1836756281555E-11
(PID.TID 0000.0001) %MON DYU_max                      =   1.1117747335204E+04
(PID.TID 0000.0001) %MON DYU_min                      =   1.1117747335204E+04
(PID.TID 0000.0001) %MON DYU_mean                     =   1.1117747335204E+04
(PID.TID 0000.0001) %MON DYU_sd                       =   4.1836756281555E-11
(PID.TID 0000.0001) %MON RA_max                       =   1.2652134272379E+08
(PID.TID 0000.0001) %MON RA_min                       =   6.4709633770803E+07
(PID.TID 0000.0001) %MON RA_mean                      =   9.5851678311587E+07
(PID.TID 0000.0001) %MON RA_sd                        =   1.8031873527992E+07
(PID.TID 0000.0001) %MON RAW_max                      =   1.2652134272379E+08
(PID.TID 0000.0001) %MON RAW_min                      =   6.4709633770803E+07
(PID.TID 0000.0001) %MON RAW_mean                     =   9.5851678311587E+07
(PID.TID 0000.0001) %MON RAW_sd                       =   1.8031873527992E+07
(PID.TID 0000.0001) %MON RAS_max                      =   1.2621711802744E+08
(PID.TID 0000.0001) %MON RAS_min                      =   6.4390979194019E+07
(PID.TID 0000.0001) %MON RAS_mean                     =   9.5539469354603E+07
(PID.TID 0000.0001) %MON RAS_sd                       =   1.8036080760153E+07
(PID.TID 0000.0001) %MON RAZ_max                      =   1.2621711802744E+08
(PID.TID 0000.0001) %MON RAZ_min                      =   6.4390979194019E+07
(PID.TID 0000.0001) %MON RAZ_mean                     =   9.5539469354603E+07
(PID.TID 0000.0001) %MON RAZ_sd                       =   1.8036080760153E+07
(PID.TID 0000.0001) %MON AngleCS_max                  =   1.0000000000000E+00
(PID.TID 0000.0001) %MON AngleCS_min                  =   1.0000000000000E+00
(PID.TID 0000.0001) %MON AngleCS_mean                 =   1.0000000000000E+00
(PID.TID 0000.0001) %MON AngleCS_sd                   =   0.0000000000000E+00
(PID.TID 0000.0001) %MON AngleSN_max                  =   0.0000000000000E+00
(PID.TID 0000.0001) %MON AngleSN_min                  =   0.0000000000000E+00
(PID.TID 0000.0001) %MON AngleSN_mean                 =   0.0000000000000E+00
(PID.TID 0000.0001) %MON AngleSN_sd                   =   0.0000000000000E+00
(PID.TID 0000.0001)  MDS_READ_FIELD: opening global file: bathy.box
(PID.TID 0000.0001)  MDS_READ_FIELD: opening global file: icetopo.exp1
(PID.TID 0000.0001) GAD_INIT_FIXED: GAD_OlMinSize=  1  0  1
(PID.TID 0000.0001) 
(PID.TID 0000.0001) // ===================================
(PID.TID 0000.0001) // GAD parameters :
(PID.TID 0000.0001) // ===================================
(PID.TID 0000.0001) tempAdvScheme =   /* Temp. Horiz.Advection scheme selector */
(PID.TID 0000.0001)                       2
(PID.TID 0000.0001)     ;
(PID.TID 0000.0001) tempVertAdvScheme =   /* Temp. Vert. Advection scheme selector */
(PID.TID 0000.0001)                       2
(PID.TID 0000.0001)     ;
(PID.TID 0000.0001) tempMultiDimAdvec =   /* use Muti-Dim Advec method for Temp */
(PID.TID 0000.0001)                   F
(PID.TID 0000.0001)     ;
(PID.TID 0000.0001) tempSOM_Advection = /* use 2nd Order Moment Advection for Temp */
(PID.TID 0000.0001)                   F
(PID.TID 0000.0001)     ;
(PID.TID 0000.0001) AdamsBashforthGt = /* apply Adams-Bashforth extrapolation on Gt */
(PID.TID 0000.0001)                   T
(PID.TID 0000.0001)     ;
(PID.TID 0000.0001) AdamsBashforth_T = /* apply Adams-Bashforth extrapolation on Temp */
(PID.TID 0000.0001)                   F
(PID.TID 0000.0001)     ;
(PID.TID 0000.0001) saltAdvScheme =   /* Salt. Horiz.advection scheme selector */
(PID.TID 0000.0001)                       2
(PID.TID 0000.0001)     ;
(PID.TID 0000.0001) saltVertAdvScheme =   /* Salt. Vert. Advection scheme selector */
(PID.TID 0000.0001)                       2
(PID.TID 0000.0001)     ;
(PID.TID 0000.0001) saltMultiDimAdvec =   /* use Muti-Dim Advec method for Salt */
(PID.TID 0000.0001)                   F
(PID.TID 0000.0001)     ;
(PID.TID 0000.0001) saltSOM_Advection = /* use 2nd Order Moment Advection for Salt */
(PID.TID 0000.0001)                   F
(PID.TID 0000.0001)     ;
(PID.TID 0000.0001) AdamsBashforthGs = /* apply Adams-Bashforth extrapolation on Gs */
(PID.TID 0000.0001)                   T
(PID.TID 0000.0001)     ;
(PID.TID 0000.0001) AdamsBashforth_S = /* apply Adams-Bashforth extrapolation on Salt */
(PID.TID 0000.0001)                   F
(PID.TID 0000.0001)     ;
(PID.TID 0000.0001) // ===================================
(PID.TID 0000.0001)  MDS_READ_FIELD: opening global file: iceShelf_Mass.bin
(PID.TID 0000.0001) ------------------------------------------------------------
(PID.TID 0000.0001) DIAGNOSTICS_SET_LEVELS: done
(PID.TID 0000.0001)  Total Nb of available Diagnostics: ndiagt=   204
(PID.TID 0000.0001)  write list of available Diagnostics to file: available_diagnostics.log
(PID.TID 0000.0001) SETDIAG: Allocate  1 x  1 Levels for Diagnostic #    23 ETAN
(PID.TID 0000.0001) SETDIAG: Allocate  1 x  1 Levels for Diagnostic #    24 ETANSQ
(PID.TID 0000.0001) SETDIAG: Allocate  1 x  1 Levels for Diagnostic #    25 DETADT2
(PID.TID 0000.0001) SETDIAG: Allocate  1 x  1 Levels for Diagnostic #   203 SHIuStar
(PID.TID 0000.0001) SETDIAG: Allocate  1 x  1 Levels for Diagnostic #   201 SHIgammT
(PID.TID 0000.0001) SETDIAG: Allocate  1 x  1 Levels for Diagnostic #   202 SHIgammS
(PID.TID 0000.0001) SETDIAG: Allocate  1 x  1 Levels for Diagnostic #   195 SHIfwFlx
(PID.TID 0000.0001) SETDIAG: Allocate  1 x  1 Levels for Diagnostic #   196 SHIhtFlx
(PID.TID 0000.0001) SETDIAG: Allocate  1 x  1 Levels for Diagnostic #   199 SHIForcT
(PID.TID 0000.0001) SETDIAG: Allocate  1 x  1 Levels for Diagnostic #   200 SHIForcS
(PID.TID 0000.0001) SETDIAG: Allocate  1 x  1 Levels for Diagnostic #    94 TFLUX
(PID.TID 0000.0001) SETDIAG: Allocate  1 x  1 Levels for Diagnostic #    95 SFLUX
(PID.TID 0000.0001) SETDIAG: Allocate 30 x  1 Levels for Diagnostic #    30 UVEL
(PID.TID 0000.0001) SETDIAG: Allocate 30 x  1 Levels for Diagnostic #    31 VVEL
(PID.TID 0000.0001) SETDIAG: Allocate 30 x  1 Levels for Diagnostic #    32 WVEL
(PID.TID 0000.0001) SETDIAG: Allocate 30 x  1 Levels for Diagnostic #    71 PHIHYD
(PID.TID 0000.0001) SETDIAG: Allocate 30 x  1 Levels for Diagnostic #    46 VVELMASS
(PID.TID 0000.0001) SETDIAG: Allocate 30 x  1 Levels for Diagnostic #    45 UVELMASS
(PID.TID 0000.0001) SETDIAG: Allocate 30 x  1 Levels for Diagnostic #    38 WVELSQ
(PID.TID 0000.0001) SETDIAG: Allocate 30 x  1 Levels for Diagnostic #    26 THETA
(PID.TID 0000.0001) SETDIAG: Allocate 30 x  1 Levels for Diagnostic #    27 SALT
(PID.TID 0000.0001) SETDIAG: Allocate 30 x  1 Levels for Diagnostic #   197 SHIUDrag
(PID.TID 0000.0001) SETDIAG: Allocate 30 x  1 Levels for Diagnostic #   198 SHIVDrag
(PID.TID 0000.0001)   space allocated for all diagnostics:     342 levels
(PID.TID 0000.0001)   set mate pointer for diag #    30  UVEL     , Parms: UUR     MR , mate:    31
(PID.TID 0000.0001)   set mate pointer for diag #    31  VVEL     , Parms: VVR     MR , mate:    30
(PID.TID 0000.0001)   set mate pointer for diag #    46  VVELMASS , Parms: VVr     MR , mate:    45
(PID.TID 0000.0001)   set mate pointer for diag #    45  UVELMASS , Parms: UUr     MR , mate:    46
(PID.TID 0000.0001)   set mate pointer for diag #   197  SHIUDrag , Parms: UU      MR , mate:   198
(PID.TID 0000.0001)   set mate pointer for diag #   198  SHIVDrag , Parms: VV      MR , mate:   197
(PID.TID 0000.0001) DIAGNOSTICS_SET_POINTERS: Set levels for Outp.Stream: surfDiag
(PID.TID 0000.0001)  Levels:       1.
(PID.TID 0000.0001) DIAGNOSTICS_SET_POINTERS: Set levels for Outp.Stream: dynDiag
(PID.TID 0000.0001)  Levels:       1.   2.   3.   4.   5.   6.   7.   8.   9.  10.  11.  12.  13.  14.  15.  16.  17.  18.  19.  20.
(PID.TID 0000.0001)  Levels:      21.  22.  23.  24.  25.  26.  27.  28.  29.  30.
(PID.TID 0000.0001) DIAGNOSTICS_SET_POINTERS: done
(PID.TID 0000.0001) ------------------------------------------------------------
(PID.TID 0000.0001) DIAGSTATS_SET_REGIONS: define no region
(PID.TID 0000.0001) ------------------------------------------------------------
(PID.TID 0000.0001) SETDIAG: Allocate  1 Levels for Stats-Diag #    23 ETAN
(PID.TID 0000.0001) SETDIAG: Allocate 30 Levels for Stats-Diag #    30 UVEL
(PID.TID 0000.0001) SETDIAG: Allocate 30 Levels for Stats-Diag #    31 VVEL
(PID.TID 0000.0001) SETDIAG: Allocate 30 Levels for Stats-Diag #    32 WVEL
(PID.TID 0000.0001) SETDIAG: Allocate 30 Levels for Stats-Diag #    26 THETA
(PID.TID 0000.0001) SETDIAG: Allocate 30 Levels for Stats-Diag #    27 SALT
(PID.TID 0000.0001)   space allocated for all stats-diags:     151 levels
(PID.TID 0000.0001) DIAGSTATS_SET_POINTERS: done
(PID.TID 0000.0001) ------------------------------------------------------------
(PID.TID 0000.0001) %MON fCori_max                    =  -1.3709057042516E-04
(PID.TID 0000.0001) %MON fCori_min                    =  -1.4360464034757E-04
(PID.TID 0000.0001) %MON fCori_mean                   =  -1.4069429304698E-04
(PID.TID 0000.0001) %MON fCori_sd                     =   1.9069739624987E-06
(PID.TID 0000.0001) %MON fCoriG_max                   =  -1.3713394327439E-04
(PID.TID 0000.0001) %MON fCoriG_min                   =  -1.4362679550910E-04
(PID.TID 0000.0001) %MON fCoriG_mean                  =  -1.4072713798624E-04
(PID.TID 0000.0001) %MON fCoriG_sd                    =   1.9008093726821E-06
(PID.TID 0000.0001) %MON fCoriCos_max                 =   4.9761447480159E-05
(PID.TID 0000.0001) %MON fCoriCos_min                 =   2.5450607565678E-05
(PID.TID 0000.0001) %MON fCoriCos_mean                =   3.7698922201606E-05
(PID.TID 0000.0001) %MON fCoriCos_sd                  =   7.0920218535055E-06
(PID.TID 0000.0001) INI_CG2D: CG2D normalisation factor =  1.0404366262810520E-03
(PID.TID 0000.0001) 
(PID.TID 0000.0001) // =======================================================
(PID.TID 0000.0001) // Model configuration
(PID.TID 0000.0001) // =======================================================
(PID.TID 0000.0001) //
(PID.TID 0000.0001) // "Physical" paramters ( PARM01 in namelist )
(PID.TID 0000.0001) //
(PID.TID 0000.0001) buoyancyRelation = /* Type of relation to get Buoyancy */
(PID.TID 0000.0001)               'OCEANIC'
(PID.TID 0000.0001)     ;
(PID.TID 0000.0001) fluidIsAir   =  /* fluid major constituent is Air */
(PID.TID 0000.0001)                   F
(PID.TID 0000.0001)     ;
(PID.TID 0000.0001) fluidIsWater =  /* fluid major constituent is Water */
(PID.TID 0000.0001)                   T
(PID.TID 0000.0001)     ;
(PID.TID 0000.0001) usingPCoords =  /* use p (or p*) vertical coordinate */
(PID.TID 0000.0001)                   F
(PID.TID 0000.0001)     ;
(PID.TID 0000.0001) usingZCoords =  /* use z (or z*) vertical coordinate */
(PID.TID 0000.0001)                   T
(PID.TID 0000.0001)     ;
(PID.TID 0000.0001) tRef =   /* Reference temperature profile ( oC or K ) */
(PID.TID 0000.0001)    30 @ -1.900000000000000E+00              /* K =  1: 30 */
(PID.TID 0000.0001)     ;
(PID.TID 0000.0001) sRef =   /* Reference salinity profile ( psu ) */
(PID.TID 0000.0001)    30 @  3.440000000000000E+01              /* K =  1: 30 */
(PID.TID 0000.0001)     ;
(PID.TID 0000.0001) useStrainTensionVisc= /* Use StrainTension Form of Viscous Operator */
(PID.TID 0000.0001)                   F
(PID.TID 0000.0001)     ;
(PID.TID 0000.0001) useVariableVisc = /* Use variable horizontal viscosity */
(PID.TID 0000.0001)                   F
(PID.TID 0000.0001)     ;
(PID.TID 0000.0001) useHarmonicVisc = /* Use harmonic horizontal viscosity */
(PID.TID 0000.0001)                   T
(PID.TID 0000.0001)     ;
(PID.TID 0000.0001) useBiharmonicVisc= /* Use biharmonic horiz.  viscosity */
(PID.TID 0000.0001)                   F
(PID.TID 0000.0001)     ;
(PID.TID 0000.0001) useSmag3D = /* Use isotropic 3-D Smagorinsky viscosity */
(PID.TID 0000.0001)                   F
(PID.TID 0000.0001)     ;
(PID.TID 0000.0001) viscAh  =   /* Lateral harmonic viscosity ( m^2/s ) */
(PID.TID 0000.0001)                 1.000000000000000E+03
(PID.TID 0000.0001)     ;
(PID.TID 0000.0001) viscA4  =   /* Lateral biharmonic viscosity ( m^4/s ) */
(PID.TID 0000.0001)                 0.000000000000000E+00
(PID.TID 0000.0001)     ;
(PID.TID 0000.0001) no_slip_sides =  /* Viscous BCs: No-slip sides */
(PID.TID 0000.0001)                   F
(PID.TID 0000.0001)     ;
(PID.TID 0000.0001) sideDragFactor = /* side-drag scaling factor (non-dim) */
(PID.TID 0000.0001)                 2.000000000000000E+00
(PID.TID 0000.0001)     ;
(PID.TID 0000.0001) viscArNr = /* vertical profile of vertical viscosity ( m^2/s )*/
(PID.TID 0000.0001)    30 @  1.000000000000000E-03              /* K =  1: 30 */
(PID.TID 0000.0001)     ;
(PID.TID 0000.0001) no_slip_bottom =  /* Viscous BCs: No-slip bottom */
(PID.TID 0000.0001)                   F
(PID.TID 0000.0001)     ;
(PID.TID 0000.0001) bottomVisc_pCell = /* Partial-cell in bottom Visc. BC */
(PID.TID 0000.0001)                   F
(PID.TID 0000.0001)     ;
(PID.TID 0000.0001) bottomDragLinear = /* linear bottom-drag coefficient ( m/s ) */
(PID.TID 0000.0001)                 0.000000000000000E+00
(PID.TID 0000.0001)     ;
(PID.TID 0000.0001) bottomDragQuadratic = /* quadratic bottom-drag coefficient (-) */
(PID.TID 0000.0001)                 2.500000000000000E-03
(PID.TID 0000.0001)     ;
(PID.TID 0000.0001) selectBotDragQuadr = /* select quadratic bottom drag options */
(PID.TID 0000.0001)                       0
(PID.TID 0000.0001)     ;
(PID.TID 0000.0001) diffKhT =   /* Laplacian diffusion of heat laterally ( m^2/s ) */
(PID.TID 0000.0001)                 1.000000000000000E+02
(PID.TID 0000.0001)     ;
(PID.TID 0000.0001) diffK4T =   /* Biharmonic diffusion of heat laterally ( m^4/s ) */
(PID.TID 0000.0001)                 0.000000000000000E+00
(PID.TID 0000.0001)     ;
(PID.TID 0000.0001) diffKhS =   /* Laplacian diffusion of salt laterally ( m^2/s ) */
(PID.TID 0000.0001)                 1.000000000000000E+02
(PID.TID 0000.0001)     ;
(PID.TID 0000.0001) diffK4S =   /* Biharmonic diffusion of salt laterally ( m^4/s ) */
(PID.TID 0000.0001)                 0.000000000000000E+00
(PID.TID 0000.0001)     ;
(PID.TID 0000.0001) diffKrNrT = /* vertical profile of vertical diffusion of Temp ( m^2/s )*/
(PID.TID 0000.0001)    30 @  5.000000000000000E-05              /* K =  1: 30 */
(PID.TID 0000.0001)     ;
(PID.TID 0000.0001) diffKrNrS = /* vertical profile of vertical diffusion of Salt ( m^2/s )*/
(PID.TID 0000.0001)    30 @  5.000000000000000E-05              /* K =  1: 30 */
(PID.TID 0000.0001)     ;
(PID.TID 0000.0001) diffKrBL79surf = /* Surface diffusion for Bryan and Lewis 79 ( m^2/s ) */
(PID.TID 0000.0001)                 0.000000000000000E+00
(PID.TID 0000.0001)     ;
(PID.TID 0000.0001) diffKrBL79deep = /* Deep diffusion for Bryan and Lewis 1979 ( m^2/s ) */
(PID.TID 0000.0001)                 0.000000000000000E+00
(PID.TID 0000.0001)     ;
(PID.TID 0000.0001) diffKrBL79scl = /* Depth scale for Bryan and Lewis 1979 ( m ) */
(PID.TID 0000.0001)                 2.000000000000000E+02
(PID.TID 0000.0001)     ;
(PID.TID 0000.0001) diffKrBL79Ho = /* Turning depth for Bryan and Lewis 1979 ( m ) */
(PID.TID 0000.0001)                -2.000000000000000E+03
(PID.TID 0000.0001)     ;
(PID.TID 0000.0001) ivdc_kappa = /* Implicit Vertical Diffusivity for Convection ( m^2/s) */
(PID.TID 0000.0001)                 1.000000000000000E+00
(PID.TID 0000.0001)     ;
(PID.TID 0000.0001) hMixCriteria=  /* Criteria for mixed-layer diagnostic */
(PID.TID 0000.0001)                -8.000000000000000E-01
(PID.TID 0000.0001)     ;
(PID.TID 0000.0001) dRhoSmall =  /* Parameter for mixed-layer diagnostic */
(PID.TID 0000.0001)                 1.000000000000000E-06
(PID.TID 0000.0001)     ;
(PID.TID 0000.0001) hMixSmooth=  /* Smoothing parameter for mixed-layer diagnostic */
(PID.TID 0000.0001)                 0.000000000000000E+00
(PID.TID 0000.0001)     ;
(PID.TID 0000.0001) eosType =  /* Type of Equation of State */
(PID.TID 0000.0001)               'JMD95Z'
(PID.TID 0000.0001)     ;
(PID.TID 0000.0001) selectP_inEOS_Zc = /* select pressure to use in EOS (0,1,2,3) */
(PID.TID 0000.0001)                       0
(PID.TID 0000.0001)     0= -g*rhoConst*z ; 1= pRef (from tRef,sRef); 2= Hyd P ; 3= Hyd+NH P
(PID.TID 0000.0001)     ;
(PID.TID 0000.0001) HeatCapacity_Cp =  /* Specific heat capacity ( J/kg/K ) */
(PID.TID 0000.0001)                 3.974000000000000E+03
(PID.TID 0000.0001)     ;
(PID.TID 0000.0001) celsius2K = /* 0 degree Celsius converted to Kelvin ( K ) */
(PID.TID 0000.0001)                 2.731500000000000E+02
(PID.TID 0000.0001)     ;
(PID.TID 0000.0001) rhoConst  = /* Reference density (Boussinesq)  ( kg/m^3 ) */
(PID.TID 0000.0001)                 1.030000000000000E+03
(PID.TID 0000.0001)     ;
(PID.TID 0000.0001) rhoFacC = /* normalized Reference density @ cell-Center (-) */
(PID.TID 0000.0001)    30 @  1.000000000000000E+00              /* K =  1: 30 */
(PID.TID 0000.0001)     ;
(PID.TID 0000.0001) rhoFacF = /* normalized Reference density @ W-Interface (-) */
(PID.TID 0000.0001)    31 @  1.000000000000000E+00              /* K =  1: 31 */
(PID.TID 0000.0001)     ;
(PID.TID 0000.0001) rhoConstFresh = /* Fresh-water reference density ( kg/m^3 ) */
(PID.TID 0000.0001)                 1.030000000000000E+03
(PID.TID 0000.0001)     ;
(PID.TID 0000.0001) gravity =   /* Gravitational acceleration ( m/s^2 ) */
(PID.TID 0000.0001)                 9.810000000000000E+00
(PID.TID 0000.0001)     ;
(PID.TID 0000.0001) gBaro =   /* Barotropic gravity ( m/s^2 ) */
(PID.TID 0000.0001)                 9.810000000000000E+00
(PID.TID 0000.0001)     ;
(PID.TID 0000.0001) gravFacC = /* gravity factor (vs surf.) @ cell-Center (-) */
(PID.TID 0000.0001)    30 @  1.000000000000000E+00              /* K =  1: 30 */
(PID.TID 0000.0001)     ;
(PID.TID 0000.0001) gravFacF = /* gravity factor (vs surf.) @ W-Interface (-) */
(PID.TID 0000.0001)    31 @  1.000000000000000E+00              /* K =  1: 31 */
(PID.TID 0000.0001)     ;
(PID.TID 0000.0001) rotationPeriod =   /* Rotation Period ( s ) */
(PID.TID 0000.0001)                 8.616400000000000E+04
(PID.TID 0000.0001)     ;
(PID.TID 0000.0001) omega =   /* Angular velocity ( rad/s ) */
(PID.TID 0000.0001)                 7.292123516990375E-05
(PID.TID 0000.0001)     ;
(PID.TID 0000.0001) f0 =   /* Reference coriolis parameter ( 1/s ) */
(PID.TID 0000.0001)                 1.000000000000000E-04
(PID.TID 0000.0001)     ;
(PID.TID 0000.0001) beta =   /* Beta ( 1/(m.s) ) */
(PID.TID 0000.0001)                 9.999999999999999E-12
(PID.TID 0000.0001)     ;
(PID.TID 0000.0001) fPrime =   /* Second coriolis parameter ( 1/s ) */
(PID.TID 0000.0001)                 0.000000000000000E+00
(PID.TID 0000.0001)     ;
(PID.TID 0000.0001) rigidLid =   /* Rigid lid on/off flag */
(PID.TID 0000.0001)                   F
(PID.TID 0000.0001)     ;
(PID.TID 0000.0001) implicitFreeSurface =   /* Implicit free surface on/off flag */
(PID.TID 0000.0001)                   T
(PID.TID 0000.0001)     ;
(PID.TID 0000.0001) freeSurfFac =   /* Implicit free surface factor */
(PID.TID 0000.0001)                 1.000000000000000E+00
(PID.TID 0000.0001)     ;
(PID.TID 0000.0001) implicSurfPress =  /* Surface Pressure implicit factor (0-1)*/
(PID.TID 0000.0001)                 1.000000000000000E+00
(PID.TID 0000.0001)     ;
(PID.TID 0000.0001) implicDiv2DFlow =  /* Barot. Flow Div. implicit factor (0-1)*/
(PID.TID 0000.0001)                 1.000000000000000E+00
(PID.TID 0000.0001)     ;
(PID.TID 0000.0001) uniformLin_PhiSurf = /* use uniform Bo_surf on/off flag*/
(PID.TID 0000.0001)                   T
(PID.TID 0000.0001)     ;
(PID.TID 0000.0001) uniformFreeSurfLev = /* free-surface level-index is uniform */
(PID.TID 0000.0001)                   F
(PID.TID 0000.0001)     ;
(PID.TID 0000.0001) hFacMin =   /* minimum partial cell factor (hFac) */
(PID.TID 0000.0001)                 5.000000000000000E-02
(PID.TID 0000.0001)     ;
(PID.TID 0000.0001) hFacMinDr = /* minimum partial cell thickness ( m) */
(PID.TID 0000.0001)                 0.000000000000000E+00
(PID.TID 0000.0001)     ;
(PID.TID 0000.0001) exactConserv =  /* Exact Volume Conservation on/off flag*/
(PID.TID 0000.0001)                   T
(PID.TID 0000.0001)     ;
(PID.TID 0000.0001) linFSConserveTr = /* Tracer correction for Lin Free Surface on/off flag*/
(PID.TID 0000.0001)                   F
(PID.TID 0000.0001)     ;
(PID.TID 0000.0001) nonlinFreeSurf = /* Non-linear Free Surf. options (-1,0,1,2,3)*/
(PID.TID 0000.0001)                       4
(PID.TID 0000.0001)      -1,0= Off ; 1,2,3= On, 2=+rescale gU,gV, 3=+update cg2d solv.
(PID.TID 0000.0001)     ;
(PID.TID 0000.0001) hFacInf =   /* lower threshold for hFac (nonlinFreeSurf only)*/
(PID.TID 0000.0001)                 2.000000000000000E-02
(PID.TID 0000.0001)     ;
(PID.TID 0000.0001) hFacSup =   /* upper threshold for hFac (nonlinFreeSurf only)*/
(PID.TID 0000.0001)                 2.000000000000000E+00
(PID.TID 0000.0001)     ;
(PID.TID 0000.0001) select_rStar = /* r* Vertical coord. options (=0 r coord.; >0 uses r*)*/
(PID.TID 0000.0001)                       0
(PID.TID 0000.0001)     ;
(PID.TID 0000.0001) useRealFreshWaterFlux = /* Real Fresh Water Flux on/off flag*/
(PID.TID 0000.0001)                   F
(PID.TID 0000.0001)     ;
(PID.TID 0000.0001) temp_EvPrRn = /* Temp. of Evap/Prec/R (UNSET=use local T)(oC)*/
(PID.TID 0000.0001)                 1.234567000000000E+05
(PID.TID 0000.0001)     ;
(PID.TID 0000.0001) salt_EvPrRn = /* Salin. of Evap/Prec/R (UNSET=use local S)(psu)*/
(PID.TID 0000.0001)                 0.000000000000000E+00
(PID.TID 0000.0001)     ;
(PID.TID 0000.0001) selectAddFluid = /* option for mass source/sink of fluid (=0: off) */
(PID.TID 0000.0001)                       0
(PID.TID 0000.0001)     ;
(PID.TID 0000.0001) temp_addMass = /* Temp. of addMass array (UNSET=use local T)(oC)*/
(PID.TID 0000.0001)                 1.234567000000000E+05
(PID.TID 0000.0001)     ;
(PID.TID 0000.0001) salt_addMass = /* Salin. of addMass array (UNSET=use local S)(psu)*/
(PID.TID 0000.0001)                 0.000000000000000E+00
(PID.TID 0000.0001)     ;
(PID.TID 0000.0001) convertFW2Salt = /* convert F.W. Flux to Salt Flux (-1=use local S)(psu)*/
(PID.TID 0000.0001)                 3.340000000000000E+01
(PID.TID 0000.0001)     ;
(PID.TID 0000.0001) use3Dsolver = /* use 3-D pressure solver on/off flag */
(PID.TID 0000.0001)                   F
(PID.TID 0000.0001)     ;
(PID.TID 0000.0001) nonHydrostatic =  /* Non-Hydrostatic on/off flag */
(PID.TID 0000.0001)                   F
(PID.TID 0000.0001)     ;
(PID.TID 0000.0001) nh_Am2 = /* Non-Hydrostatic terms scaling factor */
(PID.TID 0000.0001)                 1.000000000000000E+00
(PID.TID 0000.0001)     ;
(PID.TID 0000.0001) implicitNHPress = /* Non-Hyd Pressure implicit factor (0-1)*/
(PID.TID 0000.0001)                 1.000000000000000E+00
(PID.TID 0000.0001)     ;
(PID.TID 0000.0001) selectNHfreeSurf = /* Non-Hyd (free-)Surface option */
(PID.TID 0000.0001)                       0
(PID.TID 0000.0001)     ;
(PID.TID 0000.0001) quasiHydrostatic = /* Quasi-Hydrostatic on/off flag */
(PID.TID 0000.0001)                   F
(PID.TID 0000.0001)     ;
(PID.TID 0000.0001) calc_wVelocity = /* vertical velocity calculation on/off flag */
(PID.TID 0000.0001)                   T
(PID.TID 0000.0001)     ;
(PID.TID 0000.0001) momStepping =  /* Momentum equation on/off flag */
(PID.TID 0000.0001)                   T
(PID.TID 0000.0001)     ;
(PID.TID 0000.0001) vectorInvariantMomentum= /* Vector-Invariant Momentum on/off */
(PID.TID 0000.0001)                   F
(PID.TID 0000.0001)     ;
(PID.TID 0000.0001) momAdvection =  /* Momentum advection on/off flag */
(PID.TID 0000.0001)                   T
(PID.TID 0000.0001)     ;
(PID.TID 0000.0001) momViscosity =  /* Momentum viscosity on/off flag */
(PID.TID 0000.0001)                   T
(PID.TID 0000.0001)     ;
(PID.TID 0000.0001) momImplVertAdv= /* Momentum implicit vert. advection on/off*/
(PID.TID 0000.0001)                   F
(PID.TID 0000.0001)     ;
(PID.TID 0000.0001) implicitViscosity = /* Implicit viscosity on/off flag */
(PID.TID 0000.0001)                   T
(PID.TID 0000.0001)     ;
(PID.TID 0000.0001) selectImplicitDrag= /* Implicit bot Drag options (0,1,2)*/
(PID.TID 0000.0001)                       0
(PID.TID 0000.0001)     0= Expl. ; 1= Impl. on provis. Vel ; 2= Fully Impl (with surf.P)
(PID.TID 0000.0001)     ;
(PID.TID 0000.0001) metricTerms =  /* metric-Terms on/off flag */
(PID.TID 0000.0001)                   T
(PID.TID 0000.0001)     ;
(PID.TID 0000.0001) useNHMTerms = /* Non-Hydrostatic Metric-Terms on/off */
(PID.TID 0000.0001)                   F
(PID.TID 0000.0001)     ;
(PID.TID 0000.0001) selectCoriMap = /* Coriolis Map options (0,1,2,3)*/
(PID.TID 0000.0001)                       2
(PID.TID 0000.0001)     0= f-Plane ; 1= Beta-Plane ; 2= Spherical ; 3= read from file
(PID.TID 0000.0001)     ;
(PID.TID 0000.0001) use3dCoriolis = /* 3-D Coriolis on/off flag */
(PID.TID 0000.0001)                   F
(PID.TID 0000.0001)     ;
(PID.TID 0000.0001) useCoriolis =  /* Coriolis on/off flag */
(PID.TID 0000.0001)                   T
(PID.TID 0000.0001)     ;
(PID.TID 0000.0001) useCDscheme =  /* CD scheme on/off flag */
(PID.TID 0000.0001)                   F
(PID.TID 0000.0001)     ;
(PID.TID 0000.0001) useEnergyConservingCoriolis= /* Flx-Form Coriolis scheme flag */
(PID.TID 0000.0001)                   F
(PID.TID 0000.0001)     ;
(PID.TID 0000.0001) useJamartWetPoints= /* Coriolis WetPoints method flag */
(PID.TID 0000.0001)                   T
(PID.TID 0000.0001)     ;
(PID.TID 0000.0001) useJamartMomAdv= /* V.I Non-linear terms Jamart flag */
(PID.TID 0000.0001)                   F
(PID.TID 0000.0001)     ;
(PID.TID 0000.0001) useAbsVorticity= /* V.I Works with f+zeta in Coriolis */
(PID.TID 0000.0001)                   F
(PID.TID 0000.0001)     ;
(PID.TID 0000.0001) selectVortScheme= /* V.I Scheme selector for Vorticity-Term */
(PID.TID 0000.0001)               123456789
(PID.TID 0000.0001)    = 0 : enstrophy (Shallow-Water Eq.) conserving scheme by Sadourny, JAS 75
(PID.TID 0000.0001)    = 1 : same as 0 with modified hFac
(PID.TID 0000.0001)    = 2 : energy conserving scheme (used by Sadourny in JAS 75 paper)
(PID.TID 0000.0001)    = 3 : energy (general) and enstrophy (2D, nonDiv.) conserving scheme
(PID.TID 0000.0001)          from Sadourny (Burridge & Haseler, ECMWF Rep.4, 1977)
(PID.TID 0000.0001)     ;
(PID.TID 0000.0001) upwindVorticity= /* V.I Upwind bias vorticity flag */
(PID.TID 0000.0001)                   F
(PID.TID 0000.0001)     ;
(PID.TID 0000.0001) highOrderVorticity= /* V.I High order vort. advect. flag */
(PID.TID 0000.0001)                   F
(PID.TID 0000.0001)     ;
(PID.TID 0000.0001) upwindShear= /* V.I Upwind vertical Shear advection flag */
(PID.TID 0000.0001)                   F
(PID.TID 0000.0001)     ;
(PID.TID 0000.0001) selectKEscheme= /* V.I Kinetic Energy scheme selector */
(PID.TID 0000.0001)                       0
(PID.TID 0000.0001)     ;
(PID.TID 0000.0001) momForcing =  /* Momentum forcing on/off flag */
(PID.TID 0000.0001)                   T
(PID.TID 0000.0001)     ;
(PID.TID 0000.0001) momTidalForcing = /* Momentum Tidal forcing on/off flag */
(PID.TID 0000.0001)                   T
(PID.TID 0000.0001)     ;
(PID.TID 0000.0001) momPressureForcing =  /* Momentum pressure term on/off flag */
(PID.TID 0000.0001)                   T
(PID.TID 0000.0001)     ;
(PID.TID 0000.0001) implicitIntGravWave= /* Implicit Internal Gravity Wave flag */
(PID.TID 0000.0001)                   F
(PID.TID 0000.0001)     ;
(PID.TID 0000.0001) staggerTimeStep =    /* Stagger time stepping on/off flag */
(PID.TID 0000.0001)                   F
(PID.TID 0000.0001)     ;
(PID.TID 0000.0001) doResetHFactors = /* reset thickness factors @ each time-step */
(PID.TID 0000.0001)                   F
(PID.TID 0000.0001)     ;
(PID.TID 0000.0001) multiDimAdvection =  /* enable/disable Multi-Dim Advection */
(PID.TID 0000.0001)                   T
(PID.TID 0000.0001)     ;
(PID.TID 0000.0001) useMultiDimAdvec =   /* Multi-Dim Advection is/is-not used */
(PID.TID 0000.0001)                   F
(PID.TID 0000.0001)     ;
(PID.TID 0000.0001) implicitDiffusion = /* Implicit Diffusion on/off flag */
(PID.TID 0000.0001)                   T
(PID.TID 0000.0001)     ;
(PID.TID 0000.0001) tempStepping =  /* Temperature equation on/off flag */
(PID.TID 0000.0001)                   T
(PID.TID 0000.0001)     ;
(PID.TID 0000.0001) tempAdvection = /* Temperature advection on/off flag */
(PID.TID 0000.0001)                   T
(PID.TID 0000.0001)     ;
(PID.TID 0000.0001) tempImplVertAdv = /* Temp. implicit vert. advection on/off */
(PID.TID 0000.0001)                   F
(PID.TID 0000.0001)     ;
(PID.TID 0000.0001) tempForcing  =  /* Temperature forcing on/off flag */
(PID.TID 0000.0001)                   T
(PID.TID 0000.0001)     ;
(PID.TID 0000.0001) doThetaClimRelax = /* apply SST relaxation on/off flag */
(PID.TID 0000.0001)                   F
(PID.TID 0000.0001)     ;
(PID.TID 0000.0001) tempIsActiveTr = /* Temp. is a dynamically Active Tracer */
(PID.TID 0000.0001)                   T
(PID.TID 0000.0001)     ;
(PID.TID 0000.0001) saltStepping =  /* Salinity equation on/off flag */
(PID.TID 0000.0001)                   T
(PID.TID 0000.0001)     ;
(PID.TID 0000.0001) saltAdvection = /* Salinity advection on/off flag */
(PID.TID 0000.0001)                   T
(PID.TID 0000.0001)     ;
(PID.TID 0000.0001) saltImplVertAdv = /* Sali. implicit vert. advection on/off */
(PID.TID 0000.0001)                   F
(PID.TID 0000.0001)     ;
(PID.TID 0000.0001) saltForcing  =  /* Salinity forcing on/off flag */
(PID.TID 0000.0001)                   T
(PID.TID 0000.0001)     ;
(PID.TID 0000.0001) doSaltClimRelax = /* apply SSS relaxation on/off flag */
(PID.TID 0000.0001)                   F
(PID.TID 0000.0001)     ;
(PID.TID 0000.0001) saltIsActiveTr = /* Salt  is a dynamically Active Tracer */
(PID.TID 0000.0001)                   T
(PID.TID 0000.0001)     ;
(PID.TID 0000.0001)  readBinaryPrec = /* Precision used for reading binary files */
(PID.TID 0000.0001)                      64
(PID.TID 0000.0001)     ;
(PID.TID 0000.0001) writeBinaryPrec = /* Precision used for writing binary files */
(PID.TID 0000.0001)                      32
(PID.TID 0000.0001)     ;
(PID.TID 0000.0001)  rwSuffixType =   /* select format of mds file suffix */
(PID.TID 0000.0001)                       0
(PID.TID 0000.0001)    = 0 : myIter (I10.10) ;   = 1 : 100*myTime (100th sec) ;
(PID.TID 0000.0001)    = 2 : myTime (seconds);   = 3 : myTime/360 (10th of hr);
(PID.TID 0000.0001)    = 4 : myTime/3600 (hours)
(PID.TID 0000.0001)     ;
(PID.TID 0000.0001)  globalFiles = /* write "global" (=not per tile) files */
(PID.TID 0000.0001)                   F
(PID.TID 0000.0001)     ;
(PID.TID 0000.0001)  useSingleCpuIO = /* only master MPI process does I/O */
(PID.TID 0000.0001)                   F
(PID.TID 0000.0001)     ;
(PID.TID 0000.0001)  useSingleCpuInput = /* only master process reads input */
(PID.TID 0000.0001)                   F
(PID.TID 0000.0001)     ;
(PID.TID 0000.0001) /* debLev[*]  : level of debug & auxiliary message printing */
(PID.TID 0000.0001) debLevZero =  0 ; /* level of disabled aux. msg printing */
(PID.TID 0000.0001)    debLevA =  1 ; /* level of minimum  aux. msg printing */
(PID.TID 0000.0001)    debLevB =  2 ; /* level of low aux. print (report read-file opening)*/
(PID.TID 0000.0001)    debLevC =  3 ; /* level of moderate debug prt (most pkgs debug msg) */
(PID.TID 0000.0001)    debLevD =  4 ; /* level of enhanced debug prt (add DEBUG_STATS prt) */
(PID.TID 0000.0001)    debLevE =  5 ; /* level of extensive debug printing */
(PID.TID 0000.0001) debugLevel =  /* select debug printing level */
(PID.TID 0000.0001)                       2
(PID.TID 0000.0001)     ;
(PID.TID 0000.0001)  plotLevel =  /* select PLOT_FIELD printing level */
(PID.TID 0000.0001)                       0
(PID.TID 0000.0001)     ;
(PID.TID 0000.0001) //
(PID.TID 0000.0001) // Elliptic solver(s) paramters ( PARM02 in namelist )
(PID.TID 0000.0001) //
(PID.TID 0000.0001) cg2dMaxIters =   /* Upper limit on 2d con. grad iterations  */
(PID.TID 0000.0001)                    1000
(PID.TID 0000.0001)     ;
(PID.TID 0000.0001) cg2dChkResFreq =   /* 2d con. grad convergence test frequency */
(PID.TID 0000.0001)                       1
(PID.TID 0000.0001)     ;
(PID.TID 0000.0001) cg2dUseMinResSol= /* use cg2d last-iter(=0) / min-resid.(=1) solution */
(PID.TID 0000.0001)                       0
(PID.TID 0000.0001)     ;
(PID.TID 0000.0001) cg2dTargetResidual =   /* 2d con. grad target residual  */
(PID.TID 0000.0001)                 1.000000000000000E-13
(PID.TID 0000.0001)     ;
(PID.TID 0000.0001) cg2dTargetResWunit =   /* CG2d target residual [W units] */
(PID.TID 0000.0001)                -1.000000000000000E+00
(PID.TID 0000.0001)     ;
(PID.TID 0000.0001) cg2dPreCondFreq =   /* Freq. for updating cg2d preconditioner */
(PID.TID 0000.0001)                       1
(PID.TID 0000.0001)     ;
(PID.TID 0000.0001) useSRCGSolver =  /* use single reduction CG solver(s) */
(PID.TID 0000.0001)                   F
(PID.TID 0000.0001)     ;
(PID.TID 0000.0001) printResidualFreq = /* Freq. for printing CG residual */
(PID.TID 0000.0001)                       0
(PID.TID 0000.0001)     ;
(PID.TID 0000.0001) //
(PID.TID 0000.0001) // Time stepping paramters ( PARM03 in namelist )
(PID.TID 0000.0001) //
(PID.TID 0000.0001) deltaTMom =   /* Momentum equation timestep ( s ) */
(PID.TID 0000.0001)                 1.800000000000000E+03
(PID.TID 0000.0001)     ;
(PID.TID 0000.0001) deltaTFreeSurf = /* FreeSurface equation timestep ( s ) */
(PID.TID 0000.0001)                 1.800000000000000E+03
(PID.TID 0000.0001)     ;
(PID.TID 0000.0001) dTtracerLev =  /* Tracer equation timestep ( s ) */
(PID.TID 0000.0001)    30 @  1.800000000000000E+03              /* K =  1: 30 */
(PID.TID 0000.0001)     ;
(PID.TID 0000.0001) deltaTClock  =   /* Model clock timestep ( s ) */
(PID.TID 0000.0001)                 1.800000000000000E+03
(PID.TID 0000.0001)     ;
(PID.TID 0000.0001) cAdjFreq =   /* Convective adjustment interval ( s ) */
(PID.TID 0000.0001)                 0.000000000000000E+00
(PID.TID 0000.0001)     ;
(PID.TID 0000.0001) momForcingOutAB = /* =1: take Momentum Forcing out of Adams-Bash. stepping */
(PID.TID 0000.0001)                       0
(PID.TID 0000.0001)     ;
(PID.TID 0000.0001) tracForcingOutAB = /* =1: take T,S,pTr Forcing out of Adams-Bash. stepping */
(PID.TID 0000.0001)                       0
(PID.TID 0000.0001)     ;
(PID.TID 0000.0001) momDissip_In_AB = /* put Dissipation Tendency in Adams-Bash. stepping */
(PID.TID 0000.0001)                   F
(PID.TID 0000.0001)     ;
(PID.TID 0000.0001) doAB_onGtGs = /* apply AB on Tendencies (rather than on T,S)*/
(PID.TID 0000.0001)                   T
(PID.TID 0000.0001)     ;
(PID.TID 0000.0001) abEps =   /* Adams-Bashforth-2 stabilizing weight */
(PID.TID 0000.0001)                 1.000000000000000E-01
(PID.TID 0000.0001)     ;
(PID.TID 0000.0001) applyExchUV_early = /* Apply EXCH to U,V earlier in time-step */
(PID.TID 0000.0001)                   F
(PID.TID 0000.0001)     ;
(PID.TID 0000.0001) pickupStrictlyMatch= /* stop if pickup do not strictly match */
(PID.TID 0000.0001)                   T
(PID.TID 0000.0001)     ;
(PID.TID 0000.0001) nIter0   =   /* Run starting timestep number */
(PID.TID 0000.0001)                    8640
(PID.TID 0000.0001)     ;
(PID.TID 0000.0001) nTimeSteps = /* Number of timesteps */
(PID.TID 0000.0001)                      20
(PID.TID 0000.0001)     ;
(PID.TID 0000.0001) nEndIter =   /* Run ending timestep number */
(PID.TID 0000.0001)                    8660
(PID.TID 0000.0001)     ;
(PID.TID 0000.0001) baseTime =   /* Model base time ( s ) */
(PID.TID 0000.0001)                 0.000000000000000E+00
(PID.TID 0000.0001)     ;
(PID.TID 0000.0001) startTime =  /* Run start time ( s ) */
(PID.TID 0000.0001)                 1.555200000000000E+07
(PID.TID 0000.0001)     ;
(PID.TID 0000.0001) endTime  =   /* Integration ending time ( s ) */
(PID.TID 0000.0001)                 1.558800000000000E+07
(PID.TID 0000.0001)     ;
(PID.TID 0000.0001) pChkPtFreq = /* Permanent restart/pickup file interval ( s ) */
(PID.TID 0000.0001)                 0.000000000000000E+00
(PID.TID 0000.0001)     ;
(PID.TID 0000.0001) chkPtFreq  = /* Rolling restart/pickup file interval ( s ) */
(PID.TID 0000.0001)                 0.000000000000000E+00
(PID.TID 0000.0001)     ;
(PID.TID 0000.0001) pickup_write_mdsio =   /* Model IO flag. */
(PID.TID 0000.0001)                   T
(PID.TID 0000.0001)     ;
(PID.TID 0000.0001) pickup_read_mdsio =   /* Model IO flag. */
(PID.TID 0000.0001)                   T
(PID.TID 0000.0001)     ;
(PID.TID 0000.0001) pickup_write_mnc =   /* Model IO flag. */
(PID.TID 0000.0001)                   F
(PID.TID 0000.0001)     ;
(PID.TID 0000.0001) pickup_read_mnc =   /* Model IO flag. */
(PID.TID 0000.0001)                   F
(PID.TID 0000.0001)     ;
(PID.TID 0000.0001) writePickupAtEnd =   /* Model IO flag. */
(PID.TID 0000.0001)                   T
(PID.TID 0000.0001)     ;
(PID.TID 0000.0001) dumpFreq =   /* Model state write out interval ( s ). */
(PID.TID 0000.0001)                 0.000000000000000E+00
(PID.TID 0000.0001)     ;
(PID.TID 0000.0001) dumpInitAndLast= /* write out Initial & Last iter. model state */
(PID.TID 0000.0001)                   T
(PID.TID 0000.0001)     ;
(PID.TID 0000.0001) snapshot_mdsio =   /* Model IO flag. */
(PID.TID 0000.0001)                   F
(PID.TID 0000.0001)     ;
(PID.TID 0000.0001) snapshot_mnc =   /* Model IO flag. */
(PID.TID 0000.0001)                   T
(PID.TID 0000.0001)     ;
(PID.TID 0000.0001) monitorFreq =   /* Monitor output interval ( s ). */
(PID.TID 0000.0001)                 1.000000000000000E+00
(PID.TID 0000.0001)     ;
(PID.TID 0000.0001) monitorSelect = /* select group of variables to monitor */
(PID.TID 0000.0001)                       2
(PID.TID 0000.0001)     ;
(PID.TID 0000.0001) monitor_stdio =   /* Model IO flag. */
(PID.TID 0000.0001)                   T
(PID.TID 0000.0001)     ;
(PID.TID 0000.0001) monitor_mnc =   /* Model IO flag. */
(PID.TID 0000.0001)                   F
(PID.TID 0000.0001)     ;
(PID.TID 0000.0001) externForcingPeriod =   /* forcing period (s) */
(PID.TID 0000.0001)                 0.000000000000000E+00
(PID.TID 0000.0001)     ;
(PID.TID 0000.0001) externForcingCycle =   /* period of the cyle (s). */
(PID.TID 0000.0001)                 0.000000000000000E+00
(PID.TID 0000.0001)     ;
(PID.TID 0000.0001) tauThetaClimRelax =   /* relaxation time scale (s) */
(PID.TID 0000.0001)                 0.000000000000000E+00
(PID.TID 0000.0001)     ;
(PID.TID 0000.0001) tauSaltClimRelax =   /* relaxation time scale (s) */
(PID.TID 0000.0001)                 0.000000000000000E+00
(PID.TID 0000.0001)     ;
(PID.TID 0000.0001) latBandClimRelax =   /* max. Lat. where relaxation */
(PID.TID 0000.0001)                 1.800000000000000E+02
(PID.TID 0000.0001)     ;
(PID.TID 0000.0001) //
(PID.TID 0000.0001) // Gridding paramters ( PARM04 in namelist )
(PID.TID 0000.0001) //
(PID.TID 0000.0001) usingCartesianGrid = /* Cartesian coordinates flag ( True/False ) */
(PID.TID 0000.0001)                   F
(PID.TID 0000.0001)     ;
(PID.TID 0000.0001) usingCylindricalGrid = /* Cylindrical coordinates flag ( True/False ) */
(PID.TID 0000.0001)                   F
(PID.TID 0000.0001)     ;
(PID.TID 0000.0001) usingSphericalPolarGrid = /* Spherical coordinates flag ( True/False ) */
(PID.TID 0000.0001)                   T
(PID.TID 0000.0001)     ;
(PID.TID 0000.0001) usingCurvilinearGrid = /* Curvilinear coordinates flag ( True/False ) */
(PID.TID 0000.0001)                   F
(PID.TID 0000.0001)     ;
(PID.TID 0000.0001) useMin4hFacEdges = /* set hFacW,S as minimum of adjacent hFacC factor */
(PID.TID 0000.0001)                   F
(PID.TID 0000.0001)     ;
(PID.TID 0000.0001) interViscAr_pCell = /* account for partial-cell in interior vert. viscosity */
(PID.TID 0000.0001)                   F
(PID.TID 0000.0001)     ;
(PID.TID 0000.0001) interDiffKr_pCell = /* account for partial-cell in interior vert. diffusion */
(PID.TID 0000.0001)                   F
(PID.TID 0000.0001)     ;
(PID.TID 0000.0001) pCellMix_select = /* option to enhance mixing near surface & bottom */
(PID.TID 0000.0001)                      20
(PID.TID 0000.0001)     ;
(PID.TID 0000.0001) pCellMix_maxFac = /* maximum enhanced mixing factor */
(PID.TID 0000.0001)                 1.000000000000000E+04
(PID.TID 0000.0001)     ;
(PID.TID 0000.0001) pCellMix_delR = /* thickness criteria for too thin partial-cell (  m ) */
(PID.TID 0000.0001)                 2.000000000000000E+01
(PID.TID 0000.0001)     ;
(PID.TID 0000.0001) pCellMix_viscAr = /* vertical viscosity   for too thin partial-cell */
(PID.TID 0000.0001)    30 @  4.000000000000000E-04              /* K =  1: 30 */
(PID.TID 0000.0001)     ;
(PID.TID 0000.0001) pCellMix_diffKr = /* vertical diffusivity for too thin partial-cell */
(PID.TID 0000.0001)    30 @  2.000000000000000E-04              /* K =  1: 30 */
(PID.TID 0000.0001)     ;
(PID.TID 0000.0001) selectSigmaCoord = /* Hybrid-Sigma Vert. Coordinate option */
(PID.TID 0000.0001)                       0
(PID.TID 0000.0001)     ;
(PID.TID 0000.0001) rSigmaBnd = /* r/sigma transition ( units of r ==  m ) */
(PID.TID 0000.0001)                 1.234567000000000E+05
(PID.TID 0000.0001)     ;
(PID.TID 0000.0001) rkSign =   /* index orientation relative to vertical coordinate */
(PID.TID 0000.0001)                -1.000000000000000E+00
(PID.TID 0000.0001)     ;
(PID.TID 0000.0001) gravitySign = /* gravity orientation relative to vertical coordinate */
(PID.TID 0000.0001)                -1.000000000000000E+00
(PID.TID 0000.0001)     ;
(PID.TID 0000.0001) seaLev_Z =  /* reference height of sea-level [m] */
(PID.TID 0000.0001)                 0.000000000000000E+00
(PID.TID 0000.0001)     ;
(PID.TID 0000.0001) top_Pres =  /* reference pressure at the top [Pa] */
(PID.TID 0000.0001)                 0.000000000000000E+00
(PID.TID 0000.0001)     ;
(PID.TID 0000.0001) mass2rUnit = /* convert mass per unit area [kg/m2] to r-units [m] */
(PID.TID 0000.0001)                 9.708737864077669E-04
(PID.TID 0000.0001)     ;
(PID.TID 0000.0001) rUnit2mass = /* convert r-units [m] to mass per unit area [kg/m2] */
(PID.TID 0000.0001)                 1.030000000000000E+03
(PID.TID 0000.0001)     ;
(PID.TID 0000.0001) drC =   /* C spacing ( units of r ) */
(PID.TID 0000.0001)                 1.500000000000000E+01,      /* K =  1 */
(PID.TID 0000.0001)    29 @  3.000000000000000E+01,             /* K =  2: 30 */
(PID.TID 0000.0001)                 1.500000000000000E+01       /* K = 31 */
(PID.TID 0000.0001)     ;
(PID.TID 0000.0001) drF =   /* W spacing ( units of r ) */
(PID.TID 0000.0001)    30 @  3.000000000000000E+01              /* K =  1: 30 */
(PID.TID 0000.0001)     ;
(PID.TID 0000.0001) delX = /* U spacing ( m - cartesian, degrees - spherical ) */
(PID.TID 0000.0001)    50 @  3.000000000000000E-01              /* I =  1: 50 */
(PID.TID 0000.0001)     ;
(PID.TID 0000.0001) delY = /* V spacing ( m - cartesian, degrees - spherical ) */
(PID.TID 0000.0001)   100 @  1.000000000000000E-01              /* J =  1:100 */
(PID.TID 0000.0001)     ;
(PID.TID 0000.0001) xgOrigin = /* X-axis origin of West  edge (cartesian: m, lat-lon: deg) */
(PID.TID 0000.0001)                 0.000000000000000E+00
(PID.TID 0000.0001)     ;
(PID.TID 0000.0001) ygOrigin = /* Y-axis origin of South edge (cartesian: m, lat-lon: deg) */
(PID.TID 0000.0001)                -8.000000000000000E+01
(PID.TID 0000.0001)     ;
(PID.TID 0000.0001) rSphere =  /* Radius ( ignored - cartesian, m - spherical ) */
(PID.TID 0000.0001)                 6.370000000000000E+06
(PID.TID 0000.0001)     ;
(PID.TID 0000.0001) deepAtmosphere = /* Deep/Shallow Atmosphere flag (True/False) */
(PID.TID 0000.0001)                   F
(PID.TID 0000.0001)     ;
(PID.TID 0000.0001) xC =  /* xC(:,1,:,1) : P-point X coord ( deg. or m if cartesian) */
(PID.TID 0000.0001)                 1.500000000000001E-01,      /* I =  1 */
(PID.TID 0000.0001)                 4.500000000000001E-01,      /* I =  2 */
(PID.TID 0000.0001)                 7.500000000000002E-01,      /* I =  3 */
(PID.TID 0000.0001)                 1.050000000000000E+00,      /* I =  4 */
(PID.TID 0000.0001)                 1.350000000000000E+00,      /* I =  5 */
(PID.TID 0000.0001)                 1.650000000000000E+00,      /* I =  6 */
(PID.TID 0000.0001)                 1.950000000000000E+00,      /* I =  7 */
(PID.TID 0000.0001)                 2.250000000000000E+00,      /* I =  8 */
(PID.TID 0000.0001)                 2.550000000000000E+00,      /* I =  9 */
(PID.TID 0000.0001)                 2.850000000000000E+00,      /* I = 10 */
(PID.TID 0000.0001)                 3.149999999999999E+00,      /* I = 11 */
(PID.TID 0000.0001)                 3.449999999999999E+00,      /* I = 12 */
(PID.TID 0000.0001)                 3.749999999999999E+00,      /* I = 13 */
(PID.TID 0000.0001)                 4.049999999999999E+00,      /* I = 14 */
(PID.TID 0000.0001)                 4.350000000000000E+00,      /* I = 15 */
(PID.TID 0000.0001)                 4.649999999999999E+00,      /* I = 16 */
(PID.TID 0000.0001)                 4.949999999999999E+00,      /* I = 17 */
(PID.TID 0000.0001)                 5.249999999999998E+00,      /* I = 18 */
(PID.TID 0000.0001)                 5.549999999999999E+00,      /* I = 19 */
(PID.TID 0000.0001)                 5.849999999999998E+00,      /* I = 20 */
(PID.TID 0000.0001)                 6.149999999999999E+00,      /* I = 21 */
(PID.TID 0000.0001)                 6.449999999999998E+00,      /* I = 22 */
(PID.TID 0000.0001)                 6.749999999999998E+00,      /* I = 23 */
(PID.TID 0000.0001)                 7.049999999999997E+00,      /* I = 24 */
(PID.TID 0000.0001)                 7.349999999999997E+00,      /* I = 25 */
(PID.TID 0000.0001)                 7.649999999999997E+00,      /* I = 26 */
(PID.TID 0000.0001)                 7.949999999999998E+00,      /* I = 27 */
(PID.TID 0000.0001)                 8.249999999999998E+00,      /* I = 28 */
(PID.TID 0000.0001)                 8.549999999999999E+00,      /* I = 29 */
(PID.TID 0000.0001)                 8.850000000000000E+00,      /* I = 30 */
(PID.TID 0000.0001)                 9.150000000000000E+00,      /* I = 31 */
(PID.TID 0000.0001)                 9.450000000000001E+00,      /* I = 32 */
(PID.TID 0000.0001)                 9.750000000000002E+00,      /* I = 33 */
(PID.TID 0000.0001)                 1.005000000000000E+01,      /* I = 34 */
(PID.TID 0000.0001)                 1.035000000000000E+01,      /* I = 35 */
(PID.TID 0000.0001)                 1.065000000000000E+01,      /* I = 36 */
(PID.TID 0000.0001)                 1.095000000000001E+01,      /* I = 37 */
(PID.TID 0000.0001)                 1.125000000000001E+01,      /* I = 38 */
(PID.TID 0000.0001)                 1.155000000000000E+01,      /* I = 39 */
(PID.TID 0000.0001)                 1.185000000000001E+01,      /* I = 40 */
(PID.TID 0000.0001)                 1.215000000000001E+01,      /* I = 41 */
(PID.TID 0000.0001)                 1.245000000000001E+01,      /* I = 42 */
(PID.TID 0000.0001)                 1.275000000000001E+01,      /* I = 43 */
(PID.TID 0000.0001)                 1.305000000000001E+01,      /* I = 44 */
(PID.TID 0000.0001)                 1.335000000000001E+01,      /* I = 45 */
(PID.TID 0000.0001)                 1.365000000000001E+01,      /* I = 46 */
(PID.TID 0000.0001)                 1.395000000000001E+01,      /* I = 47 */
(PID.TID 0000.0001)                 1.425000000000001E+01,      /* I = 48 */
(PID.TID 0000.0001)                 1.455000000000001E+01,      /* I = 49 */
(PID.TID 0000.0001)                 1.485000000000001E+01       /* I = 50 */
(PID.TID 0000.0001)     ;
(PID.TID 0000.0001) yC =  /* yC(1,:,1,:) : P-point Y coord ( deg. or m if cartesian) */
(PID.TID 0000.0001)                -7.995000000000000E+01,      /* J =  1 */
(PID.TID 0000.0001)                -7.985000000000001E+01,      /* J =  2 */
(PID.TID 0000.0001)                -7.975000000000001E+01,      /* J =  3 */
(PID.TID 0000.0001)      . . .
(PID.TID 0000.0001)                -7.775000000000013E+01,      /* J = 23 */
(PID.TID 0000.0001)                -7.765000000000013E+01,      /* J = 24 */
(PID.TID 0000.0001)                -7.755000000000014E+01,      /* J = 25 */
(PID.TID 0000.0001)                -7.745000000000014E+01,      /* J = 26 */
(PID.TID 0000.0001)                -7.735000000000015E+01,      /* J = 27 */
(PID.TID 0000.0001)                -7.725000000000016E+01,      /* J = 28 */
(PID.TID 0000.0001)      . . .
(PID.TID 0000.0001)                -7.525000000000027E+01,      /* J = 48 */
(PID.TID 0000.0001)                -7.515000000000028E+01,      /* J = 49 */
(PID.TID 0000.0001)                -7.505000000000028E+01,      /* J = 50 */
(PID.TID 0000.0001)                -7.495000000000029E+01,      /* J = 51 */
(PID.TID 0000.0001)                -7.485000000000029E+01,      /* J = 52 */
(PID.TID 0000.0001)                -7.475000000000030E+01,      /* J = 53 */
(PID.TID 0000.0001)      . . .
(PID.TID 0000.0001)                -7.275000000000041E+01,      /* J = 73 */
(PID.TID 0000.0001)                -7.265000000000042E+01,      /* J = 74 */
(PID.TID 0000.0001)                -7.255000000000042E+01,      /* J = 75 */
(PID.TID 0000.0001)                -7.245000000000043E+01,      /* J = 76 */
(PID.TID 0000.0001)                -7.235000000000043E+01,      /* J = 77 */
(PID.TID 0000.0001)                -7.225000000000044E+01,      /* J = 78 */
(PID.TID 0000.0001)      . . .
(PID.TID 0000.0001)                -7.025000000000055E+01,      /* J = 98 */
(PID.TID 0000.0001)                -7.015000000000056E+01,      /* J = 99 */
(PID.TID 0000.0001)                -7.005000000000057E+01       /* J =100 */
(PID.TID 0000.0001)     ;
(PID.TID 0000.0001) rcoord = /* P-point R coordinate (  units of r ) */
(PID.TID 0000.0001)                -1.500000000000000E+01,      /* K =  1 */
(PID.TID 0000.0001)                -4.500000000000000E+01,      /* K =  2 */
(PID.TID 0000.0001)                -7.500000000000000E+01,      /* K =  3 */
(PID.TID 0000.0001)                -1.050000000000000E+02,      /* K =  4 */
(PID.TID 0000.0001)                -1.350000000000000E+02,      /* K =  5 */
(PID.TID 0000.0001)                -1.650000000000000E+02,      /* K =  6 */
(PID.TID 0000.0001)                -1.950000000000000E+02,      /* K =  7 */
(PID.TID 0000.0001)                -2.250000000000000E+02,      /* K =  8 */
(PID.TID 0000.0001)                -2.550000000000000E+02,      /* K =  9 */
(PID.TID 0000.0001)                -2.850000000000000E+02,      /* K = 10 */
(PID.TID 0000.0001)                -3.150000000000000E+02,      /* K = 11 */
(PID.TID 0000.0001)                -3.450000000000000E+02,      /* K = 12 */
(PID.TID 0000.0001)                -3.750000000000000E+02,      /* K = 13 */
(PID.TID 0000.0001)                -4.050000000000000E+02,      /* K = 14 */
(PID.TID 0000.0001)                -4.350000000000000E+02,      /* K = 15 */
(PID.TID 0000.0001)                -4.650000000000000E+02,      /* K = 16 */
(PID.TID 0000.0001)                -4.950000000000000E+02,      /* K = 17 */
(PID.TID 0000.0001)                -5.250000000000000E+02,      /* K = 18 */
(PID.TID 0000.0001)                -5.550000000000000E+02,      /* K = 19 */
(PID.TID 0000.0001)                -5.850000000000000E+02,      /* K = 20 */
(PID.TID 0000.0001)                -6.150000000000000E+02,      /* K = 21 */
(PID.TID 0000.0001)                -6.450000000000000E+02,      /* K = 22 */
(PID.TID 0000.0001)                -6.750000000000000E+02,      /* K = 23 */
(PID.TID 0000.0001)                -7.050000000000000E+02,      /* K = 24 */
(PID.TID 0000.0001)                -7.350000000000000E+02,      /* K = 25 */
(PID.TID 0000.0001)                -7.650000000000000E+02,      /* K = 26 */
(PID.TID 0000.0001)                -7.950000000000000E+02,      /* K = 27 */
(PID.TID 0000.0001)                -8.250000000000000E+02,      /* K = 28 */
(PID.TID 0000.0001)                -8.550000000000000E+02,      /* K = 29 */
(PID.TID 0000.0001)                -8.850000000000000E+02       /* K = 30 */
(PID.TID 0000.0001)     ;
(PID.TID 0000.0001) rF =   /* W-Interf. R coordinate (  units of r ) */
(PID.TID 0000.0001)                 0.000000000000000E+00,      /* K =  1 */
(PID.TID 0000.0001)                -3.000000000000000E+01,      /* K =  2 */
(PID.TID 0000.0001)                -6.000000000000000E+01,      /* K =  3 */
(PID.TID 0000.0001)                -9.000000000000000E+01,      /* K =  4 */
(PID.TID 0000.0001)                -1.200000000000000E+02,      /* K =  5 */
(PID.TID 0000.0001)                -1.500000000000000E+02,      /* K =  6 */
(PID.TID 0000.0001)                -1.800000000000000E+02,      /* K =  7 */
(PID.TID 0000.0001)                -2.100000000000000E+02,      /* K =  8 */
(PID.TID 0000.0001)                -2.400000000000000E+02,      /* K =  9 */
(PID.TID 0000.0001)                -2.700000000000000E+02,      /* K = 10 */
(PID.TID 0000.0001)                -3.000000000000000E+02,      /* K = 11 */
(PID.TID 0000.0001)                -3.300000000000000E+02,      /* K = 12 */
(PID.TID 0000.0001)                -3.600000000000000E+02,      /* K = 13 */
(PID.TID 0000.0001)                -3.900000000000000E+02,      /* K = 14 */
(PID.TID 0000.0001)                -4.200000000000000E+02,      /* K = 15 */
(PID.TID 0000.0001)                -4.500000000000000E+02,      /* K = 16 */
(PID.TID 0000.0001)                -4.800000000000000E+02,      /* K = 17 */
(PID.TID 0000.0001)                -5.100000000000000E+02,      /* K = 18 */
(PID.TID 0000.0001)                -5.400000000000000E+02,      /* K = 19 */
(PID.TID 0000.0001)                -5.700000000000000E+02,      /* K = 20 */
(PID.TID 0000.0001)                -6.000000000000000E+02,      /* K = 21 */
(PID.TID 0000.0001)                -6.300000000000000E+02,      /* K = 22 */
(PID.TID 0000.0001)                -6.600000000000000E+02,      /* K = 23 */
(PID.TID 0000.0001)                -6.900000000000000E+02,      /* K = 24 */
(PID.TID 0000.0001)                -7.200000000000000E+02,      /* K = 25 */
(PID.TID 0000.0001)                -7.500000000000000E+02,      /* K = 26 */
(PID.TID 0000.0001)                -7.800000000000000E+02,      /* K = 27 */
(PID.TID 0000.0001)                -8.100000000000000E+02,      /* K = 28 */
(PID.TID 0000.0001)                -8.400000000000000E+02,      /* K = 29 */
(PID.TID 0000.0001)                -8.700000000000000E+02,      /* K = 30 */
(PID.TID 0000.0001)                -9.000000000000000E+02       /* K = 31 */
(PID.TID 0000.0001)     ;
(PID.TID 0000.0001) deepFacC = /* deep-model grid factor @ cell-Center (-) */
(PID.TID 0000.0001)    30 @  1.000000000000000E+00              /* K =  1: 30 */
(PID.TID 0000.0001)     ;
(PID.TID 0000.0001) deepFacF = /* deep-model grid factor @ W-Interface (-) */
(PID.TID 0000.0001)    31 @  1.000000000000000E+00              /* K =  1: 31 */
(PID.TID 0000.0001)     ;
(PID.TID 0000.0001) rVel2wUnit = /* convert units: rVel -> wSpeed (=1 if z-coord)*/
(PID.TID 0000.0001)    31 @  1.000000000000000E+00              /* K =  1: 31 */
(PID.TID 0000.0001)     ;
(PID.TID 0000.0001) wUnit2rVel = /* convert units: wSpeed -> rVel (=1 if z-coord)*/
(PID.TID 0000.0001)    31 @  1.000000000000000E+00              /* K =  1: 31 */
(PID.TID 0000.0001)     ;
(PID.TID 0000.0001) dBdrRef = /* Vertical grad. of reference buoyancy [(m/s/r)^2] */
(PID.TID 0000.0001)    30 @  0.000000000000000E+00              /* K =  1: 30 */
(PID.TID 0000.0001)     ;
(PID.TID 0000.0001) rotateGrid = /* use rotated grid ( True/False ) */
(PID.TID 0000.0001)                   F
(PID.TID 0000.0001)     ;
(PID.TID 0000.0001) phiEuler = /* Euler angle, rotation about original z-coordinate [rad] */
(PID.TID 0000.0001)                 0.000000000000000E+00
(PID.TID 0000.0001)     ;
(PID.TID 0000.0001) thetaEuler = /* Euler angle, rotation about new x-coordinate [rad] */
(PID.TID 0000.0001)                 0.000000000000000E+00
(PID.TID 0000.0001)     ;
(PID.TID 0000.0001) psiEuler = /* Euler angle, rotation about new z-coordinate [rad] */
(PID.TID 0000.0001)                 0.000000000000000E+00
(PID.TID 0000.0001)     ;
(PID.TID 0000.0001) dxF =  /* dxF(:,1,:,1) ( units: m ) */
(PID.TID 0000.0001)    50 @  5.820391490558872E+03              /* I =  1: 50 */
(PID.TID 0000.0001)     ;
(PID.TID 0000.0001) dxF =  /* dxF(1,:,1,:) ( units: m ) */
(PID.TID 0000.0001)                 5.820391490558872E+03,      /* J =  1 */
(PID.TID 0000.0001)                 5.877701765291692E+03,      /* J =  2 */
(PID.TID 0000.0001)                 5.934994135525598E+03,      /* J =  3 */
(PID.TID 0000.0001)      . . .
(PID.TID 0000.0001)                 7.076813247621209E+03,      /* J = 23 */
(PID.TID 0000.0001)                 7.133689397375063E+03,      /* J = 24 */
(PID.TID 0000.0001)                 7.190543816673855E+03,      /* J = 25 */
(PID.TID 0000.0001)                 7.247376332329164E+03,      /* J = 26 */
(PID.TID 0000.0001)                 7.304186771219292E+03,      /* J = 27 */
(PID.TID 0000.0001)                 7.360974960289787E+03,      /* J = 28 */
(PID.TID 0000.0001)      . . .
(PID.TID 0000.0001)                 8.491800393599013E+03,      /* J = 48 */
(PID.TID 0000.0001)                 8.548081485571185E+03,      /* J = 49 */
(PID.TID 0000.0001)                 8.604336538604706E+03,      /* J = 50 */
(PID.TID 0000.0001)                 8.660565381336924E+03,      /* J = 51 */
(PID.TID 0000.0001)                 8.716767842485036E+03,      /* J = 52 */
(PID.TID 0000.0001)                 8.772943750846600E+03,      /* J = 53 */
(PID.TID 0000.0001)      . . .
(PID.TID 0000.0001)                 9.890622914885218E+03,      /* J = 73 */
(PID.TID 0000.0001)                 9.946201814818334E+03,      /* J = 74 */
(PID.TID 0000.0001)                 1.000175041689580E+04,      /* J = 75 */
(PID.TID 0000.0001)                 1.005726855190695E+04,      /* J = 76 */
(PID.TID 0000.0001)                 1.011275605073392E+04,      /* J = 77 */
(PID.TID 0000.0001)                 1.016821274435215E+04,      /* J = 78 */
(PID.TID 0000.0001)      . . .
(PID.TID 0000.0001)                 1.127061807330668E+04,      /* J = 98 */
(PID.TID 0000.0001)                 1.132538898360582E+04,      /* J = 99 */
(PID.TID 0000.0001)                 1.138012539480601E+04       /* J =100 */
(PID.TID 0000.0001)     ;
(PID.TID 0000.0001) dyF =  /* dyF(:,1,:,1) ( units: m ) */
(PID.TID 0000.0001)    50 @  1.111774733520388E+04              /* I =  1: 50 */
(PID.TID 0000.0001)     ;
(PID.TID 0000.0001) dyF =  /* dyF(1,:,1,:) ( units: m ) */
(PID.TID 0000.0001)   100 @  1.111774733520388E+04              /* J =  1:100 */
(PID.TID 0000.0001)     ;
(PID.TID 0000.0001) dxG =  /* dxG(:,1,:,1) ( units: m ) */
(PID.TID 0000.0001)    50 @  5.791729693558576E+03              /* I =  1: 50 */
(PID.TID 0000.0001)     ;
(PID.TID 0000.0001) dxG =  /* dxG(1,:,1,:) ( units: m ) */
(PID.TID 0000.0001)                 5.791729693558576E+03,      /* J =  1 */
(PID.TID 0000.0001)                 5.849048855077854E+03,      /* J =  2 */
(PID.TID 0000.0001)                 5.906350199379949E+03,      /* J =  3 */
(PID.TID 0000.0001)      . . .
(PID.TID 0000.0001)                 7.048367077963129E+03,      /* J = 23 */
(PID.TID 0000.0001)                 7.105254027978149E+03,      /* J = 24 */
(PID.TID 0000.0001)                 7.162119334157175E+03,      /* J = 25 */
(PID.TID 0000.0001)                 7.218962823278620E+03,      /* J = 26 */
(PID.TID 0000.0001)                 7.275784322187360E+03,      /* J = 27 */
(PID.TID 0000.0001)                 7.332583657795253E+03,      /* J = 28 */
(PID.TID 0000.0001)      . . .
(PID.TID 0000.0001)                 8.463650136583461E+03,      /* J = 48 */
(PID.TID 0000.0001)                 8.519944183739159E+03,      /* J = 49 */
(PID.TID 0000.0001)                 8.576212277667308E+03,      /* J = 50 */
(PID.TID 0000.0001)                 8.632454246965530E+03,      /* J = 51 */
(PID.TID 0000.0001)                 8.688669920311038E+03,      /* J = 52 */
(PID.TID 0000.0001)                 8.744859126461139E+03,      /* J = 53 */
(PID.TID 0000.0001)      . . .
(PID.TID 0000.0001)                 9.862822156126382E+03,      /* J = 73 */
(PID.TID 0000.0001)                 9.918416141504455E+03,      /* J = 74 */
(PID.TID 0000.0001)                 9.973979913666863E+03,      /* J = 75 */
(PID.TID 0000.0001)                 1.002951330335672E+04,      /* J = 76 */
(PID.TID 0000.0001)                 1.008501614140969E+04,      /* J = 77 */
(PID.TID 0000.0001)                 1.014048825875450E+04,      /* J = 78 */
(PID.TID 0000.0001)      . . .
(PID.TID 0000.0001)                 1.124321973312895E+04,      /* J = 98 */
(PID.TID 0000.0001)                 1.129800783041847E+04,      /* J = 99 */
(PID.TID 0000.0001)                 1.135276151201679E+04       /* J =100 */
(PID.TID 0000.0001)     ;
(PID.TID 0000.0001) dyG =  /* dyG(:,1,:,1) ( units: m ) */
(PID.TID 0000.0001)    50 @  1.111774733520388E+04              /* I =  1: 50 */
(PID.TID 0000.0001)     ;
(PID.TID 0000.0001) dyG =  /* dyG(1,:,1,:) ( units: m ) */
(PID.TID 0000.0001)   100 @  1.111774733520388E+04              /* J =  1:100 */
(PID.TID 0000.0001)     ;
(PID.TID 0000.0001) dxC =  /* dxC(:,1,:,1) ( units: m ) */
(PID.TID 0000.0001)    50 @  5.820391490558872E+03              /* I =  1: 50 */
(PID.TID 0000.0001)     ;
(PID.TID 0000.0001) dxC =  /* dxC(1,:,1,:) ( units: m ) */
(PID.TID 0000.0001)                 5.820391490558872E+03,      /* J =  1 */
(PID.TID 0000.0001)                 5.877701765291692E+03,      /* J =  2 */
(PID.TID 0000.0001)                 5.934994135525598E+03,      /* J =  3 */
(PID.TID 0000.0001)      . . .
(PID.TID 0000.0001)                 7.076813247621209E+03,      /* J = 23 */
(PID.TID 0000.0001)                 7.133689397375063E+03,      /* J = 24 */
(PID.TID 0000.0001)                 7.190543816673855E+03,      /* J = 25 */
(PID.TID 0000.0001)                 7.247376332329164E+03,      /* J = 26 */
(PID.TID 0000.0001)                 7.304186771219292E+03,      /* J = 27 */
(PID.TID 0000.0001)                 7.360974960289787E+03,      /* J = 28 */
(PID.TID 0000.0001)      . . .
(PID.TID 0000.0001)                 8.491800393599013E+03,      /* J = 48 */
(PID.TID 0000.0001)                 8.548081485571185E+03,      /* J = 49 */
(PID.TID 0000.0001)                 8.604336538604706E+03,      /* J = 50 */
(PID.TID 0000.0001)                 8.660565381336924E+03,      /* J = 51 */
(PID.TID 0000.0001)                 8.716767842485036E+03,      /* J = 52 */
(PID.TID 0000.0001)                 8.772943750846600E+03,      /* J = 53 */
(PID.TID 0000.0001)      . . .
(PID.TID 0000.0001)                 9.890622914885218E+03,      /* J = 73 */
(PID.TID 0000.0001)                 9.946201814818334E+03,      /* J = 74 */
(PID.TID 0000.0001)                 1.000175041689580E+04,      /* J = 75 */
(PID.TID 0000.0001)                 1.005726855190695E+04,      /* J = 76 */
(PID.TID 0000.0001)                 1.011275605073392E+04,      /* J = 77 */
(PID.TID 0000.0001)                 1.016821274435215E+04,      /* J = 78 */
(PID.TID 0000.0001)      . . .
(PID.TID 0000.0001)                 1.127061807330668E+04,      /* J = 98 */
(PID.TID 0000.0001)                 1.132538898360582E+04,      /* J = 99 */
(PID.TID 0000.0001)                 1.138012539480601E+04       /* J =100 */
(PID.TID 0000.0001)     ;
(PID.TID 0000.0001) dyC =  /* dyC(:,1,:,1) ( units: m ) */
(PID.TID 0000.0001)    50 @  1.111774733520388E+04              /* I =  1: 50 */
(PID.TID 0000.0001)     ;
(PID.TID 0000.0001) dyC =  /* dyC(1,:,1,:) ( units: m ) */
(PID.TID 0000.0001)   100 @  1.111774733520388E+04              /* J =  1:100 */
(PID.TID 0000.0001)     ;
(PID.TID 0000.0001) dxV =  /* dxV(:,1,:,1) ( units: m ) */
(PID.TID 0000.0001)    50 @  5.791729693558576E+03              /* I =  1: 50 */
(PID.TID 0000.0001)     ;
(PID.TID 0000.0001) dxV =  /* dxV(1,:,1,:) ( units: m ) */
(PID.TID 0000.0001)                 5.791729693558576E+03,      /* J =  1 */
(PID.TID 0000.0001)                 5.849048855077854E+03,      /* J =  2 */
(PID.TID 0000.0001)                 5.906350199379949E+03,      /* J =  3 */
(PID.TID 0000.0001)      . . .
(PID.TID 0000.0001)                 7.048367077963129E+03,      /* J = 23 */
(PID.TID 0000.0001)                 7.105254027978149E+03,      /* J = 24 */
(PID.TID 0000.0001)                 7.162119334157175E+03,      /* J = 25 */
(PID.TID 0000.0001)                 7.218962823278620E+03,      /* J = 26 */
(PID.TID 0000.0001)                 7.275784322187360E+03,      /* J = 27 */
(PID.TID 0000.0001)                 7.332583657795253E+03,      /* J = 28 */
(PID.TID 0000.0001)      . . .
(PID.TID 0000.0001)                 8.463650136583461E+03,      /* J = 48 */
(PID.TID 0000.0001)                 8.519944183739159E+03,      /* J = 49 */
(PID.TID 0000.0001)                 8.576212277667308E+03,      /* J = 50 */
(PID.TID 0000.0001)                 8.632454246965530E+03,      /* J = 51 */
(PID.TID 0000.0001)                 8.688669920311038E+03,      /* J = 52 */
(PID.TID 0000.0001)                 8.744859126461139E+03,      /* J = 53 */
(PID.TID 0000.0001)      . . .
(PID.TID 0000.0001)                 9.862822156126382E+03,      /* J = 73 */
(PID.TID 0000.0001)                 9.918416141504455E+03,      /* J = 74 */
(PID.TID 0000.0001)                 9.973979913666863E+03,      /* J = 75 */
(PID.TID 0000.0001)                 1.002951330335672E+04,      /* J = 76 */
(PID.TID 0000.0001)                 1.008501614140969E+04,      /* J = 77 */
(PID.TID 0000.0001)                 1.014048825875450E+04,      /* J = 78 */
(PID.TID 0000.0001)      . . .
(PID.TID 0000.0001)                 1.124321973312895E+04,      /* J = 98 */
(PID.TID 0000.0001)                 1.129800783041847E+04,      /* J = 99 */
(PID.TID 0000.0001)                 1.135276151201679E+04       /* J =100 */
(PID.TID 0000.0001)     ;
(PID.TID 0000.0001) dyU =  /* dyU(:,1,:,1) ( units: m ) */
(PID.TID 0000.0001)    50 @  1.111774733520388E+04              /* I =  1: 50 */
(PID.TID 0000.0001)     ;
(PID.TID 0000.0001) dyU =  /* dyU(1,:,1,:) ( units: m ) */
(PID.TID 0000.0001)   100 @  1.111774733520388E+04              /* J =  1:100 */
(PID.TID 0000.0001)     ;
(PID.TID 0000.0001) rA  =  /* rA (:,1,:,1) ( units: m^2 ) */
(PID.TID 0000.0001)    50 @  6.470963377080289E+07              /* I =  1: 50 */
(PID.TID 0000.0001)     ;
(PID.TID 0000.0001) rA  =  /* rA (1,:,1,:) ( units: m^2 ) */
(PID.TID 0000.0001)                 6.470963377080289E+07,      /* J =  1 */
(PID.TID 0000.0001)                 6.534679484410104E+07,      /* J =  2 */
(PID.TID 0000.0001)                 6.598375685977945E+07,      /* J =  3 */
(PID.TID 0000.0001)      . . .
(PID.TID 0000.0001)                 7.867821163932665E+07,      /* J = 23 */
(PID.TID 0000.0001)                 7.931054622142966E+07,      /* J = 24 */
(PID.TID 0000.0001)                 7.994263920984067E+07,      /* J = 25 */
(PID.TID 0000.0001)                 8.057448867913349E+07,      /* J = 26 */
(PID.TID 0000.0001)                 8.120609270456599E+07,      /* J = 27 */
(PID.TID 0000.0001)                 8.183744936212724E+07,      /* J = 28 */
(PID.TID 0000.0001)      . . .
(PID.TID 0000.0001)                 9.440967921416211E+07,      /* J = 48 */
(PID.TID 0000.0001)                 9.503539809503193E+07,      /* J = 49 */
(PID.TID 0000.0001)                 9.566082748163140E+07,      /* J = 50 */
(PID.TID 0000.0001)                 9.628596546870193E+07,      /* J = 51 */
(PID.TID 0000.0001)                 9.691081015209354E+07,      /* J = 52 */
(PID.TID 0000.0001)                 9.753535962826957E+07,      /* J = 53 */
(PID.TID 0000.0001)      . . .
(PID.TID 0000.0001)                 1.099614325987181E+08,      /* J = 73 */
(PID.TID 0000.0001)                 1.105793446869293E+08,      /* J = 74 */
(PID.TID 0000.0001)                 1.111969199312560E+08,      /* J = 75 */
(PID.TID 0000.0001)                 1.118141564504991E+08,      /* J = 76 */
(PID.TID 0000.0001)                 1.124310523644033E+08,      /* J = 77 */
(PID.TID 0000.0001)                 1.130476057938687E+08,      /* J = 78 */
(PID.TID 0000.0001)      . . .
(PID.TID 0000.0001)                 1.253038681465364E+08,      /* J = 98 */
(PID.TID 0000.0001)                 1.259127972112936E+08,      /* J = 99 */
(PID.TID 0000.0001)                 1.265213427237870E+08       /* J =100 */
(PID.TID 0000.0001)     ;
(PID.TID 0000.0001) rAw =  /* rAw(:,1,:,1) ( units: m^2 ) */
(PID.TID 0000.0001)    50 @  6.470963377080289E+07              /* I =  1: 50 */
(PID.TID 0000.0001)     ;
(PID.TID 0000.0001) rAw =  /* rAw(1,:,1,:) ( units: m^2 ) */
(PID.TID 0000.0001)                 6.470963377080289E+07,      /* J =  1 */
(PID.TID 0000.0001)                 6.534679484410104E+07,      /* J =  2 */
(PID.TID 0000.0001)                 6.598375685977945E+07,      /* J =  3 */
(PID.TID 0000.0001)      . . .
(PID.TID 0000.0001)                 7.867821163932665E+07,      /* J = 23 */
(PID.TID 0000.0001)                 7.931054622142966E+07,      /* J = 24 */
(PID.TID 0000.0001)                 7.994263920984067E+07,      /* J = 25 */
(PID.TID 0000.0001)                 8.057448867913349E+07,      /* J = 26 */
(PID.TID 0000.0001)                 8.120609270456599E+07,      /* J = 27 */
(PID.TID 0000.0001)                 8.183744936212724E+07,      /* J = 28 */
(PID.TID 0000.0001)      . . .
(PID.TID 0000.0001)                 9.440967921416211E+07,      /* J = 48 */
(PID.TID 0000.0001)                 9.503539809503193E+07,      /* J = 49 */
(PID.TID 0000.0001)                 9.566082748163140E+07,      /* J = 50 */
(PID.TID 0000.0001)                 9.628596546870193E+07,      /* J = 51 */
(PID.TID 0000.0001)                 9.691081015209354E+07,      /* J = 52 */
(PID.TID 0000.0001)                 9.753535962826957E+07,      /* J = 53 */
(PID.TID 0000.0001)      . . .
(PID.TID 0000.0001)                 1.099614325987181E+08,      /* J = 73 */
(PID.TID 0000.0001)                 1.105793446869293E+08,      /* J = 74 */
(PID.TID 0000.0001)                 1.111969199312560E+08,      /* J = 75 */
(PID.TID 0000.0001)                 1.118141564504991E+08,      /* J = 76 */
(PID.TID 0000.0001)                 1.124310523644033E+08,      /* J = 77 */
(PID.TID 0000.0001)                 1.130476057938687E+08,      /* J = 78 */
(PID.TID 0000.0001)      . . .
(PID.TID 0000.0001)                 1.253038681465364E+08,      /* J = 98 */
(PID.TID 0000.0001)                 1.259127972112936E+08,      /* J = 99 */
(PID.TID 0000.0001)                 1.265213427237870E+08       /* J =100 */
(PID.TID 0000.0001)     ;
(PID.TID 0000.0001) rAs =  /* rAs(:,1,:,1) ( units: m^2 ) */
(PID.TID 0000.0001)    50 @  6.439097919401864E+07              /* I =  1: 50 */
(PID.TID 0000.0001)     ;
(PID.TID 0000.0001) rAs =  /* rAs(1,:,1,:) ( units: m^2 ) */
(PID.TID 0000.0001)                 6.439097919401864E+07,      /* J =  1 */
(PID.TID 0000.0001)                 6.502823906837179E+07,      /* J =  2 */
(PID.TID 0000.0001)                 6.566530085543716E+07,      /* J =  3 */
(PID.TID 0000.0001)      . . .
(PID.TID 0000.0001)                 7.836195435256335E+07,      /* J = 23 */
(PID.TID 0000.0001)                 7.899440900921808E+07,      /* J = 24 */
(PID.TID 0000.0001)                 7.962662303520055E+07,      /* J = 25 */
(PID.TID 0000.0001)                 8.025859450470714E+07,      /* J = 26 */
(PID.TID 0000.0001)                 8.089032149259475E+07,      /* J = 27 */
(PID.TID 0000.0001)                 8.152180207452223E+07,      /* J = 28 */
(PID.TID 0000.0001)      . . .
(PID.TID 0000.0001)                 9.409671180895932E+07,      /* J = 48 */
(PID.TID 0000.0001)                 9.472257472228888E+07,      /* J = 49 */
(PID.TID 0000.0001)                 9.534814909420149E+07,      /* J = 50 */
(PID.TID 0000.0001)                 9.597343301913190E+07,      /* J = 51 */
(PID.TID 0000.0001)                 9.659842459236403E+07,      /* J = 52 */
(PID.TID 0000.0001)                 9.722312190998378E+07,      /* J = 53 */
(PID.TID 0000.0001)      . . .
(PID.TID 0000.0001)                 1.096523508263446E+08,      /* J = 73 */
(PID.TID 0000.0001)                 1.102704306306916E+08,      /* J = 74 */
(PID.TID 0000.0001)                 1.108881745321664E+08,      /* J = 75 */
(PID.TID 0000.0001)                 1.115055806490511E+08,      /* J = 76 */
(PID.TID 0000.0001)                 1.121226471005947E+08,      /* J = 77 */
(PID.TID 0000.0001)                 1.127393720071080E+08,      /* J = 78 */
(PID.TID 0000.0001)      . . .
(PID.TID 0000.0001)                 1.249992603617116E+08,      /* J = 98 */
(PID.TID 0000.0001)                 1.256083805070198E+08,      /* J = 99 */
(PID.TID 0000.0001)                 1.262171180274426E+08       /* J =100 */
(PID.TID 0000.0001)     ;
(PID.TID 0000.0001) globalArea = /* Integrated horizontal Area (m^2) */
(PID.TID 0000.0001)                 4.665024516720074E+11
(PID.TID 0000.0001)     ;
(PID.TID 0000.0001) // =======================================================
(PID.TID 0000.0001) // End of Model config. summary
(PID.TID 0000.0001) // =======================================================
(PID.TID 0000.0001) 
(PID.TID 0000.0001) == Packages configuration : Check & print summary ==
(PID.TID 0000.0001) 
(PID.TID 0000.0001) SHELFICE_CHECK: #define ALLOW_SHELFICE
(PID.TID 0000.0001) 
(PID.TID 0000.0001) SHELFICE_CHECK: start of SHELFICE config. summary
(PID.TID 0000.0001) SHELFICEisOn = /* package is turned on */
(PID.TID 0000.0001)                   T
(PID.TID 0000.0001)     ;
(PID.TID 0000.0001) useISOMIPTD = /* use simple isomip thermodynamics */
(PID.TID 0000.0001)                   F
(PID.TID 0000.0001)     ;
(PID.TID 0000.0001) SHELFICEconserve = /* use a conservative form of boundary conditions */
(PID.TID 0000.0001)                   T
(PID.TID 0000.0001)     ;
(PID.TID 0000.0001) SHELFICEboundaryLayer = /* use simple boundary layer scheme to suppress noise */
(PID.TID 0000.0001)                   F
(PID.TID 0000.0001)     ;
(PID.TID 0000.0001) SHELFICEadvDiffHeatFlux = /* use adv.-diff. instead of just diff. heat flux into the ice shelf */
(PID.TID 0000.0001)                   T
(PID.TID 0000.0001)     ;
(PID.TID 0000.0001) SHELFICEMassStepping = /* step forward ice shelf mass/thickness */
(PID.TID 0000.0001)                   F
(PID.TID 0000.0001)     ;
(PID.TID 0000.0001) no_slip_shelfice = /* use no slip boundary conditions */
(PID.TID 0000.0001)                   F
(PID.TID 0000.0001)     ;
(PID.TID 0000.0001) SHELFICEdragLinear    = /* linear drag coefficient */
(PID.TID 0000.0001)                 0.000000000000000E+00
(PID.TID 0000.0001)     ;
(PID.TID 0000.0001) SHELFICEdragQuadratic = /* quadratic drag coefficient */
(PID.TID 0000.0001)                 1.500000000000000E-03
(PID.TID 0000.0001)     ;
(PID.TID 0000.0001) SHELFICEselectDragQuadr = /* select quadratic drag option */
(PID.TID 0000.0001)                       1
(PID.TID 0000.0001)     ;
(PID.TID 0000.0001) SHELFICElatentHeat      = /* latent heat of ice */
(PID.TID 0000.0001)                 3.340000000000000E+05
(PID.TID 0000.0001)     ;
(PID.TID 0000.0001) SHELFICEheatCapacity_Cp = /* heat capacity of ice shelf */
(PID.TID 0000.0001)                 2.000000000000000E+03
(PID.TID 0000.0001)     ;
(PID.TID 0000.0001) rhoShelfice   = /* density of ice shelf */
(PID.TID 0000.0001)                 9.170000000000000E+02
(PID.TID 0000.0001)     ;
(PID.TID 0000.0001) SHELFICEkappa = /* thermal conductivity of ice shelf */
(PID.TID 0000.0001)                 1.540000000000000E-06
(PID.TID 0000.0001)     ;
(PID.TID 0000.0001) SHELFICEthetaSurface = /* surface temperature above i.s. */
(PID.TID 0000.0001)                -2.000000000000000E+01
(PID.TID 0000.0001)     ;
(PID.TID 0000.0001) SHELFICEheatTransCoeff = /* heat transfer coefficient */
(PID.TID 0000.0001)                 1.000000000000000E-04
(PID.TID 0000.0001)     ;
(PID.TID 0000.0001) SHELFICEsaltTransCoeff = /* salt transfer coefficient */
(PID.TID 0000.0001)                 5.050000000000000E-07
(PID.TID 0000.0001)     ;
(PID.TID 0000.0001) SHELFICEuseGammaFrict = /* use velocity dependent exchange coefficients */
(PID.TID 0000.0001)                   T
(PID.TID 0000.0001)     ;
(PID.TID 0000.0001) SHELFICE_oldCalcUStar = /* use old uStar expression */
(PID.TID 0000.0001)                   F
(PID.TID 0000.0001)     ;
(PID.TID 0000.0001) shiCdrag   = /* quadr. drag coefficient for uStar */
(PID.TID 0000.0001)                 1.500000000000000E-03
(PID.TID 0000.0001)     ;
(PID.TID 0000.0001) shiZetaN   = /* parameter for gammaTurb */
(PID.TID 0000.0001)                 5.200000000000000E-02
(PID.TID 0000.0001)     ;
(PID.TID 0000.0001) shiRc      = /* parameter for gammaTurb (not used) */
(PID.TID 0000.0001)                 2.000000000000000E-01
(PID.TID 0000.0001)     ;
(PID.TID 0000.0001) shiPrandtl = /* const. Prandtl No. for gammaTurb */
(PID.TID 0000.0001)                 1.380000000000000E+01
(PID.TID 0000.0001)     ;
(PID.TID 0000.0001) shiSchmidt = /* const. Schmidt No. for gammaTurb */
(PID.TID 0000.0001)                 2.432000000000000E+03
(PID.TID 0000.0001)     ;
(PID.TID 0000.0001) shiKinVisc = /* const. kin. viscosity for gammaTurb */
(PID.TID 0000.0001)                 1.950000000000000E-06
(PID.TID 0000.0001)     ;
(PID.TID 0000.0001) SHELFICEloadAnomalyFile = /* file name of loaded loadAnomaly field */
(PID.TID 0000.0001)               ''
(PID.TID 0000.0001)     ;
(PID.TID 0000.0001) SHELFICEmassFile = /* file name of loaded mass field */
(PID.TID 0000.0001)               'iceShelf_Mass.bin'
(PID.TID 0000.0001)     ;
(PID.TID 0000.0001) SHELFICEtopoFile = /* file name of loaded under-ice topography */
(PID.TID 0000.0001)               'icetopo.exp1'
(PID.TID 0000.0001)     ;
(PID.TID 0000.0001) SHELFICEMassDynTendFile = /* file name of loaded dynamic mass tendency field */
(PID.TID 0000.0001)               ''
(PID.TID 0000.0001)     ;
(PID.TID 0000.0001) SHELFICEwriteState  = /* do simple standard output */
(PID.TID 0000.0001)                   T
(PID.TID 0000.0001)     ;
(PID.TID 0000.0001) SHELFICE_dump_mdsio = /* use mdsio for snapshots */
(PID.TID 0000.0001)                   F
(PID.TID 0000.0001)     ;
(PID.TID 0000.0001) SHELFICE_tave_mdsio = /* use mdsio for time averages */
(PID.TID 0000.0001)                   F
(PID.TID 0000.0001)     ;
(PID.TID 0000.0001) SHELFICE_dump_mnc   = /* use netcdf for snapshots */
(PID.TID 0000.0001)                   T
(PID.TID 0000.0001)     ;
(PID.TID 0000.0001) SHELFICE_tave_mnc   = /* use netcdf for time averages */
(PID.TID 0000.0001)                   T
(PID.TID 0000.0001)     ;
(PID.TID 0000.0001) SHELFICE_dumpFreq = /* analoguous to dumpFreq */
(PID.TID 0000.0001)                 0.000000000000000E+00
(PID.TID 0000.0001)     ;
(PID.TID 0000.0001) SHELFICE_taveFreq = /* analoguous to taveFreq */
(PID.TID 0000.0001)                 0.000000000000000E+00
(PID.TID 0000.0001)     ;
(PID.TID 0000.0001) SHELFICE_CHECK: end of SHELFICE config. summary
(PID.TID 0000.0001) GAD_CHECK: #define ALLOW_GENERIC_ADVDIFF
(PID.TID 0000.0001) // =======================================================
(PID.TID 0000.0001) // Check Model config. (CONFIG_CHECK):
(PID.TID 0000.0001) // CONFIG_CHECK : Normal End
(PID.TID 0000.0001) // =======================================================
(PID.TID 0000.0001) 
(PID.TID 0000.0001)  MDS_READ_META: opening file: pickup.0000008640.meta
(PID.TID 0000.0001)  nRecords = 243 ; filePrec =  64 ; fileIter =      8640
(PID.TID 0000.0001)     nDims =   2 , dims:
(PID.TID 0000.0001)    1:  50   1  50
(PID.TID 0000.0001)    2: 100   1 100
(PID.TID 0000.0001)     nFlds =  11 , nFl3D =   8 , fields:
(PID.TID 0000.0001)  >Uvel    < >Vvel    < >Theta   < >Salt    < >GuNm1   < >GvNm1   < >GtNm1   < >GsNm1   < >EtaN    < >dEtaHdt < >EtaH    <
(PID.TID 0000.0001) missingVal=  1.00000000000000E+00 ; nTimRec =   1 , timeList:
(PID.TID 0000.0001)   1.555200000000E+07
(PID.TID 0000.0001) READ_MFLDS_3D_RL: read field: "Uvel    ", #   1 in fldList, rec=   1
(PID.TID 0000.0001)  MDS_READ_FIELD: opening global file: pickup.0000008640.data
(PID.TID 0000.0001) READ_MFLDS_3D_RL: read field: "Vvel    ", #   2 in fldList, rec=   2
(PID.TID 0000.0001)  MDS_READ_FIELD: opening global file: pickup.0000008640.data
(PID.TID 0000.0001) READ_MFLDS_3D_RL: read field: "Theta   ", #   3 in fldList, rec=   3
(PID.TID 0000.0001)  MDS_READ_FIELD: opening global file: pickup.0000008640.data
(PID.TID 0000.0001) READ_MFLDS_3D_RL: read field: "Salt    ", #   4 in fldList, rec=   4
(PID.TID 0000.0001)  MDS_READ_FIELD: opening global file: pickup.0000008640.data
(PID.TID 0000.0001) READ_MFLDS_3D_RL: read field: "GuNm1   ", #   5 in fldList, rec=   5
(PID.TID 0000.0001)  MDS_READ_FIELD: opening global file: pickup.0000008640.data
(PID.TID 0000.0001) READ_MFLDS_3D_RL: read field: "GvNm1   ", #   6 in fldList, rec=   6
(PID.TID 0000.0001)  MDS_READ_FIELD: opening global file: pickup.0000008640.data
(PID.TID 0000.0001) READ_MFLDS_3D_RL: read field: "GtNm1   ", #   7 in fldList, rec=   7
(PID.TID 0000.0001)  MDS_READ_FIELD: opening global file: pickup.0000008640.data
(PID.TID 0000.0001) READ_MFLDS_3D_RL: read field: "GsNm1   ", #   8 in fldList, rec=   8
(PID.TID 0000.0001)  MDS_READ_FIELD: opening global file: pickup.0000008640.data
(PID.TID 0000.0001) READ_MFLDS_3D_RL: read field: "EtaN    ", #   9 in fldList, rec= 241
(PID.TID 0000.0001)  MDS_READ_FIELD: opening global file: pickup.0000008640.data
(PID.TID 0000.0001) READ_MFLDS_3D_RL: read field: "dEtaHdt ", #  10 in fldList, rec= 242
(PID.TID 0000.0001)  MDS_READ_FIELD: opening global file: pickup.0000008640.data
(PID.TID 0000.0001) READ_MFLDS_3D_RL: read field: "EtaH    ", #  11 in fldList, rec= 243
(PID.TID 0000.0001)  MDS_READ_FIELD: opening global file: pickup.0000008640.data
(PID.TID 0000.0001) READ_MFLDS_CHECK: - normal end ; reset MFLDS file-name: pickup.0000008640
(PID.TID 0000.0001)  write diagnostics summary to file ioUnit:      6
Iter.Nb:      8640 ; Time(s):  1.5552000000000E+07
------------------------------------------------------------------------
2D/3D diagnostics: Number of lists:     2
------------------------------------------------------------------------
listId=    1 ; file name: surfDiag
 nFlds, nActive,       freq     &     phase        , nLev               
   12  |   12  |   5184000.000000         0.000000 |   1
 levels:   1
 diag# | name   |   ipt  |  iMate | kLev|   count |   mate.C|           
    23 |ETAN    |      1 |      0 |   1 |       0 |
    24 |ETANSQ  |      2 |      0 |   1 |       0 |
    25 |DETADT2 |      3 |      0 |   1 |       0 |
   203 |SHIuStar|      4 |      0 |   1 |       0 |
   201 |SHIgammT|      5 |      0 |   1 |       0 |
   202 |SHIgammS|      6 |      0 |   1 |       0 |
   195 |SHIfwFlx|      7 |      0 |   1 |       0 |
   196 |SHIhtFlx|      8 |      0 |   1 |       0 |
   199 |SHIForcT|      9 |      0 |   1 |       0 |
   200 |SHIForcS|     10 |      0 |   1 |       0 |
    94 |TFLUX   |     11 |      0 |   1 |       0 |
    95 |SFLUX   |     12 |      0 |   1 |       0 |
------------------------------------------------------------------------
listId=    2 ; file name: dynDiag
 nFlds, nActive,       freq     &     phase        , nLev               
   11  |   11  |   5184000.000000         0.000000 |  30
 levels:   1   2   3   4   5   6   7   8   9  10  11  12  13  14  15  16  17  18  19  20  21  22  23  24  25
 levels:  26  27  28  29  30
 diag# | name   |   ipt  |  iMate | kLev|   count |   mate.C|           
    30 |UVEL    |     13 |     43 |  30 |       0 |       0 |
    31 |VVEL    |     43 |     13 |  30 |       0 |       0 |
    32 |WVEL    |     73 |      0 |  30 |       0 |
    71 |PHIHYD  |    103 |      0 |  30 |       0 |
    46 |VVELMASS|    133 |    163 |  30 |       0 |       0 |
    45 |UVELMASS|    163 |    133 |  30 |       0 |       0 |
    38 |WVELSQ  |    193 |      0 |  30 |       0 |
    26 |THETA   |    223 |      0 |  30 |       0 |
    27 |SALT    |    253 |      0 |  30 |       0 |
   197 |SHIUDrag|    283 |    313 |  30 |       0 |       0 |
   198 |SHIVDrag|    313 |    283 |  30 |       0 |       0 |
------------------------------------------------------------------------
Global & Regional Statistics diagnostics: Number of lists:     1
------------------------------------------------------------------------
listId=   1 ; file name: dynStDiag
 nFlds, nActive,       freq     &     phase        |                    
    6  |    6  |     86400.000000         0.000000 |
 Regions:   0
 diag# | name   |   ipt  |  iMate |    Volume   |   mate-Vol. |         
    23 |ETAN    |      1 |      0 | 0.00000E+00 |
    30 |UVEL    |      2 |      0 | 0.00000E+00 |
    31 |VVEL    |     32 |      0 | 0.00000E+00 |
    32 |WVEL    |     62 |      0 | 0.00000E+00 |
    26 |THETA   |     92 |      0 | 0.00000E+00 |
    27 |SALT    |    122 |      0 | 0.00000E+00 |
------------------------------------------------------------------------
(PID.TID 0000.0001) // =======================================================
(PID.TID 0000.0001) // Model current state
(PID.TID 0000.0001) // =======================================================
(PID.TID 0000.0001) 
(PID.TID 0000.0001) // =======================================================
(PID.TID 0000.0001) // Begin MONITOR dynamic field statistics
(PID.TID 0000.0001) // =======================================================
(PID.TID 0000.0001) %MON time_tsnumber                =                  8640
(PID.TID 0000.0001) %MON time_secondsf                =   1.5552000000000E+07
(PID.TID 0000.0001) %MON dynstat_eta_max              =   1.0945704627346E-04
(PID.TID 0000.0001) %MON dynstat_eta_min              =  -3.3323751350602E-04
(PID.TID 0000.0001) %MON dynstat_eta_mean             =   8.1319771711174E-20
(PID.TID 0000.0001) %MON dynstat_eta_sd               =   4.9017474104615E-05
(PID.TID 0000.0001) %MON dynstat_eta_del2             =   7.3312469133694E-08
(PID.TID 0000.0001) %MON dynstat_uvel_max             =   1.3448339970763E-04
(PID.TID 0000.0001) %MON dynstat_uvel_min             =  -6.5502308140143E-04
(PID.TID 0000.0001) %MON dynstat_uvel_mean            =   3.2719245621903E-07
(PID.TID 0000.0001) %MON dynstat_uvel_sd              =   6.8336328645536E-05
(PID.TID 0000.0001) %MON dynstat_uvel_del2            =   3.3042575060048E-08
(PID.TID 0000.0001) %MON dynstat_vvel_max             =   5.2644213214814E-04
(PID.TID 0000.0001) %MON dynstat_vvel_min             =  -1.1972335593641E-04
(PID.TID 0000.0001) %MON dynstat_vvel_mean            =   2.3696618717945E-10
(PID.TID 0000.0001) %MON dynstat_vvel_sd              =   1.9420161242736E-05
(PID.TID 0000.0001) %MON dynstat_vvel_del2            =   1.8195584916544E-08
(PID.TID 0000.0001) %MON dynstat_wvel_max             =   3.9969565025556E-06
(PID.TID 0000.0001) %MON dynstat_wvel_min             =  -4.3253811963374E-06
(PID.TID 0000.0001) %MON dynstat_wvel_mean            =   3.1985506534736E-13
(PID.TID 0000.0001) %MON dynstat_wvel_sd              =   1.9495475622782E-07
(PID.TID 0000.0001) %MON dynstat_wvel_del2            =   6.2198696956418E-10
(PID.TID 0000.0001) %MON dynstat_theta_max            =  -1.9000000000000E+00
(PID.TID 0000.0001) %MON dynstat_theta_min            =  -1.9413507813958E+00
(PID.TID 0000.0001) %MON dynstat_theta_mean           =  -1.9016437107574E+00
(PID.TID 0000.0001) %MON dynstat_theta_sd             =   4.8388333658939E-03
(PID.TID 0000.0001) %MON dynstat_theta_del2           =   1.1177331354397E-06
(PID.TID 0000.0001) %MON dynstat_salt_max             =   3.4400000000000E+01
(PID.TID 0000.0001) %MON dynstat_salt_min             =   3.4384756374116E+01
(PID.TID 0000.0001) %MON dynstat_salt_mean            =   3.4399393558175E+01
(PID.TID 0000.0001) %MON dynstat_salt_sd              =   1.7849811019455E-03
(PID.TID 0000.0001) %MON dynstat_salt_del2            =   4.1219100132392E-07
(PID.TID 0000.0001) %MON trAdv_CFL_u_max              =   0.0000000000000E+00
(PID.TID 0000.0001) %MON trAdv_CFL_v_max              =   0.0000000000000E+00
(PID.TID 0000.0001) %MON trAdv_CFL_w_max              =   0.0000000000000E+00
(PID.TID 0000.0001) %MON advcfl_uvel_max              =   1.8610006169373E-04
(PID.TID 0000.0001) %MON advcfl_vvel_max              =   8.5232719299722E-05
(PID.TID 0000.0001) %MON advcfl_wvel_max              =   2.5952287178024E-04
(PID.TID 0000.0001) %MON advcfl_W_hf_max              =   2.5952287178024E-04
(PID.TID 0000.0001) %MON pe_b_mean                    =   1.8801482846840E-11
(PID.TID 0000.0001) %MON ke_max                       =   2.3538042415462E-07
(PID.TID 0000.0001) %MON ke_mean                      =   2.4736822639354E-09
(PID.TID 0000.0001) %MON ke_vol                       =   2.9241705273105E+14
(PID.TID 0000.0001) %MON vort_r_min                   =  -3.1885803989814E-08
(PID.TID 0000.0001) %MON vort_r_max                   =   8.1261830420645E-08
(PID.TID 0000.0001) %MON vort_a_mean                  =  -1.4007437453808E-04
(PID.TID 0000.0001) %MON vort_a_sd                    =   1.7682652763843E-06
(PID.TID 0000.0001) %MON vort_p_mean                  =  -1.5039772396537E-04
(PID.TID 0000.0001) %MON vort_p_sd                    =   8.7068348099632E-05
(PID.TID 0000.0001) %MON surfExpan_theta_mean         =   1.0734867835893E-14
(PID.TID 0000.0001) %MON surfExpan_salt_mean          =   3.9531737248966E-15
(PID.TID 0000.0001) // =======================================================
(PID.TID 0000.0001) // End MONITOR dynamic field statistics
(PID.TID 0000.0001) // =======================================================
(PID.TID 0000.0001) SOLVE_FOR_PRESSURE: putPmEinXvector =    F
(PID.TID 0000.0001) SOLVE_FOR_PRESSURE: zeroPsNH=    F , zeroMeanPnh=    F
(PID.TID 0000.0001) SOLVE_FOR_PRESSURE: oldFreeSurfTerm =    F
 cg2d: Sum(rhs),rhsMax =  -5.09592368302947E-14  2.22357496006282E-04
(PID.TID 0000.0001)      cg2d_init_res =   1.24184718216607E-03
(PID.TID 0000.0001)      cg2d_iters(min,last) =      -1     178
(PID.TID 0000.0001)      cg2d_last_res =   9.07072255925442E-14
(PID.TID 0000.0001) // =======================================================
(PID.TID 0000.0001) // Begin MONITOR dynamic field statistics
(PID.TID 0000.0001) // =======================================================
(PID.TID 0000.0001) %MON time_tsnumber                =                  8641
(PID.TID 0000.0001) %MON time_secondsf                =   1.5553800000000E+07
(PID.TID 0000.0001) %MON dynstat_eta_max              =   1.0947221047303E-04
(PID.TID 0000.0001) %MON dynstat_eta_min              =  -3.3327549745692E-04
(PID.TID 0000.0001) %MON dynstat_eta_mean             =   7.9190285054253E-20
(PID.TID 0000.0001) %MON dynstat_eta_sd               =   4.9023361661494E-05
(PID.TID 0000.0001) %MON dynstat_eta_del2             =   7.3316335024867E-08
(PID.TID 0000.0001) %MON dynstat_uvel_max             =   1.3449406365955E-04
(PID.TID 0000.0001) %MON dynstat_uvel_min             =  -6.5505968641368E-04
(PID.TID 0000.0001) %MON dynstat_uvel_mean            =   3.2726143835342E-07
(PID.TID 0000.0001) %MON dynstat_uvel_sd              =   6.8341828473484E-05
(PID.TID 0000.0001) %MON dynstat_uvel_del2            =   3.3043209570411E-08
(PID.TID 0000.0001) %MON dynstat_vvel_max             =   5.2652410151992E-04
(PID.TID 0000.0001) %MON dynstat_vvel_min             =  -1.1973914086657E-04
(PID.TID 0000.0001) %MON dynstat_vvel_mean            =   2.3700978057531E-10
(PID.TID 0000.0001) %MON dynstat_vvel_sd              =   1.9424492687608E-05
(PID.TID 0000.0001) %MON dynstat_vvel_del2            =   1.8196762147574E-08
(PID.TID 0000.0001) %MON dynstat_wvel_max             =   3.9972312204256E-06
(PID.TID 0000.0001) %MON dynstat_wvel_min             =  -4.3257642736534E-06
(PID.TID 0000.0001) %MON dynstat_wvel_mean            =   3.1987849326635E-13
(PID.TID 0000.0001) %MON dynstat_wvel_sd              =   1.9497356905926E-07
(PID.TID 0000.0001) %MON dynstat_wvel_del2            =   6.2204753822604E-10
(PID.TID 0000.0001) %MON dynstat_theta_max            =  -1.9000000000000E+00
(PID.TID 0000.0001) %MON dynstat_theta_min            =  -1.9413534212280E+00
(PID.TID 0000.0001) %MON dynstat_theta_mean           =  -1.9016438930288E+00
(PID.TID 0000.0001) %MON dynstat_theta_sd             =   4.8392471383428E-03
(PID.TID 0000.0001) %MON dynstat_theta_del2           =   1.1177411636192E-06
(PID.TID 0000.0001) %MON dynstat_salt_max             =   3.4400000000000E+01
(PID.TID 0000.0001) %MON dynstat_salt_min             =   3.4384755401004E+01
(PID.TID 0000.0001) %MON dynstat_salt_mean            =   3.4399393490928E+01
(PID.TID 0000.0001) %MON dynstat_salt_sd              =   1.7851337391120E-03
(PID.TID 0000.0001) %MON dynstat_salt_del2            =   4.1219396135099E-07
(PID.TID 0000.0001) %MON trAdv_CFL_u_max              =   1.8610008531430E-04
(PID.TID 0000.0001) %MON trAdv_CFL_v_max              =   8.5610070081858E-05
(PID.TID 0000.0001) %MON trAdv_CFL_w_max              =   2.5952287178024E-04
(PID.TID 0000.0001) %MON advcfl_uvel_max              =   1.8611046162501E-04
(PID.TID 0000.0001) %MON advcfl_vvel_max              =   8.5245990411642E-05
(PID.TID 0000.0001) %MON advcfl_wvel_max              =   2.5954585641920E-04
(PID.TID 0000.0001) %MON advcfl_W_hf_max              =   2.5954585641920E-04
(PID.TID 0000.0001) %MON pe_b_mean                    =  -1.4146887461396E-08
(PID.TID 0000.0001) %MON ke_max                       =   2.3541631825980E-07
(PID.TID 0000.0001) %MON ke_mean                      =   2.4741336064131E-09
(PID.TID 0000.0001) %MON ke_vol                       =   2.9241705273105E+14
(PID.TID 0000.0001) %MON vort_r_min                   =  -3.1889536940895E-08
(PID.TID 0000.0001) %MON vort_r_max                   =   8.1274483247579E-08
(PID.TID 0000.0001) %MON vort_a_mean                  =  -1.4007437453849E-04
(PID.TID 0000.0001) %MON vort_a_sd                    =   1.7682652748312E-06
(PID.TID 0000.0001) %MON vort_p_mean                  =  -1.5039772396584E-04
(PID.TID 0000.0001) %MON vort_p_sd                    =   8.7068347070920E-05
(PID.TID 0000.0001) %MON surfExpan_theta_mean         =   1.0736234352547E-14
(PID.TID 0000.0001) %MON surfExpan_salt_mean          =   3.9536769876219E-15
(PID.TID 0000.0001) // =======================================================
(PID.TID 0000.0001) // End MONITOR dynamic field statistics
(PID.TID 0000.0001) // =======================================================
 cg2d: Sum(rhs),rhsMax =  -5.11812814352197E-14  2.22401172452680E-04
(PID.TID 0000.0001)      cg2d_init_res =   1.24168408156838E-03
(PID.TID 0000.0001)      cg2d_iters(min,last) =      -1     178
(PID.TID 0000.0001)      cg2d_last_res =   9.07027055978591E-14
(PID.TID 0000.0001) // =======================================================
(PID.TID 0000.0001) // Begin MONITOR dynamic field statistics
(PID.TID 0000.0001) // =======================================================
(PID.TID 0000.0001) %MON time_tsnumber                =                  8642
(PID.TID 0000.0001) %MON time_secondsf                =   1.5555600000000E+07
(PID.TID 0000.0001) %MON dynstat_eta_max              =   1.0948737537346E-04
(PID.TID 0000.0001) %MON dynstat_eta_min              =  -3.3331348068385E-04
(PID.TID 0000.0001) %MON dynstat_eta_mean             =   8.7575138765879E-20
(PID.TID 0000.0001) %MON dynstat_eta_sd               =   4.9029249213006E-05
(PID.TID 0000.0001) %MON dynstat_eta_del2             =   7.3320200964114E-08
(PID.TID 0000.0001) %MON dynstat_uvel_max             =   1.3450472661705E-04
(PID.TID 0000.0001) %MON dynstat_uvel_min             =  -6.5509628754043E-04
(PID.TID 0000.0001) %MON dynstat_uvel_mean            =   3.2733042742526E-07
(PID.TID 0000.0001) %MON dynstat_uvel_sd              =   6.8347328044732E-05
(PID.TID 0000.0001) %MON dynstat_uvel_del2            =   3.3043844026251E-08
(PID.TID 0000.0001) %MON dynstat_vvel_max             =   5.2660607452459E-04
(PID.TID 0000.0001) %MON dynstat_vvel_min             =  -1.1975492562689E-04
(PID.TID 0000.0001) %MON dynstat_vvel_mean            =   2.3705321235393E-10
(PID.TID 0000.0001) %MON dynstat_vvel_sd              =   1.9428824579131E-05
(PID.TID 0000.0001) %MON dynstat_vvel_del2            =   1.8197939622806E-08
(PID.TID 0000.0001) %MON dynstat_wvel_max             =   3.9975059099702E-06
(PID.TID 0000.0001) %MON dynstat_wvel_min             =  -4.3261473193849E-06
(PID.TID 0000.0001) %MON dynstat_wvel_mean            =   3.1990194409960E-13
(PID.TID 0000.0001) %MON dynstat_wvel_sd              =   1.9499238134291E-07
(PID.TID 0000.0001) %MON dynstat_wvel_del2            =   6.2210810635896E-10
(PID.TID 0000.0001) %MON dynstat_theta_max            =  -1.9000000000000E+00
(PID.TID 0000.0001) %MON dynstat_theta_min            =  -1.9413560608813E+00
(PID.TID 0000.0001) %MON dynstat_theta_mean           =  -1.9016440752987E+00
(PID.TID 0000.0001) %MON dynstat_theta_sd             =   4.8396608932544E-03
(PID.TID 0000.0001) %MON dynstat_theta_del2           =   1.1177491897542E-06
(PID.TID 0000.0001) %MON dynstat_salt_max             =   3.4400000000000E+01
(PID.TID 0000.0001) %MON dynstat_salt_min             =   3.4384754427958E+01
(PID.TID 0000.0001) %MON dynstat_salt_mean            =   3.4399393423681E+01
(PID.TID 0000.0001) %MON dynstat_salt_sd              =   1.7852863698089E-03
(PID.TID 0000.0001) %MON dynstat_salt_del2            =   4.1219692062414E-07
(PID.TID 0000.0001) %MON trAdv_CFL_u_max              =   1.8611048524691E-04
(PID.TID 0000.0001) %MON trAdv_CFL_v_max              =   8.5623399948967E-05
(PID.TID 0000.0001) %MON trAdv_CFL_w_max              =   2.5954585641920E-04
(PID.TID 0000.0001) %MON advcfl_uvel_max              =   1.8612086045238E-04
(PID.TID 0000.0001) %MON advcfl_vvel_max              =   8.5259262111741E-05
(PID.TID 0000.0001) %MON advcfl_wvel_max              =   2.5956883916310E-04
(PID.TID 0000.0001) %MON advcfl_W_hf_max              =   2.5956883916310E-04
(PID.TID 0000.0001) %MON pe_b_mean                    =  -1.4147033517754E-08
(PID.TID 0000.0001) %MON ke_max                       =   2.3545221443365E-07
(PID.TID 0000.0001) %MON ke_mean                      =   2.4745849884585E-09
(PID.TID 0000.0001) %MON ke_vol                       =   2.9241705273105E+14
(PID.TID 0000.0001) %MON vort_r_min                   =  -3.1893269965070E-08
(PID.TID 0000.0001) %MON vort_r_max                   =   8.1287136635288E-08
(PID.TID 0000.0001) %MON vort_a_mean                  =  -1.4007437453891E-04
(PID.TID 0000.0001) %MON vort_a_sd                    =   1.7682652733708E-06
(PID.TID 0000.0001) %MON vort_p_mean                  =  -1.5039772396631E-04
(PID.TID 0000.0001) %MON vort_p_sd                    =   8.7068346042245E-05
(PID.TID 0000.0001) %MON surfExpan_theta_mean         =   1.0737601297380E-14
(PID.TID 0000.0001) %MON surfExpan_salt_mean          =   3.9541804467659E-15
(PID.TID 0000.0001) // =======================================================
(PID.TID 0000.0001) // End MONITOR dynamic field statistics
(PID.TID 0000.0001) // =======================================================
 cg2d: Sum(rhs),rhsMax =  -4.29656310529936E-14  2.22444853038192E-04
(PID.TID 0000.0001)      cg2d_init_res =   1.24152264951511E-03
(PID.TID 0000.0001)      cg2d_iters(min,last) =      -1     178
(PID.TID 0000.0001)      cg2d_last_res =   9.06984873975761E-14
(PID.TID 0000.0001) // =======================================================
(PID.TID 0000.0001) // Begin MONITOR dynamic field statistics
(PID.TID 0000.0001) // =======================================================
(PID.TID 0000.0001) %MON time_tsnumber                =                  8643
(PID.TID 0000.0001) %MON time_secondsf                =   1.5557400000000E+07
(PID.TID 0000.0001) %MON dynstat_eta_max              =   1.0950254091795E-04
(PID.TID 0000.0001) %MON dynstat_eta_min              =  -3.3335146313957E-04
(PID.TID 0000.0001) %MON dynstat_eta_mean             =   6.0690369722251E-20
(PID.TID 0000.0001) %MON dynstat_eta_sd               =   4.9035136759747E-05
(PID.TID 0000.0001) %MON dynstat_eta_del2             =   7.3324066939952E-08
(PID.TID 0000.0001) %MON dynstat_uvel_max             =   1.3451538858873E-04
(PID.TID 0000.0001) %MON dynstat_uvel_min             =  -6.5513288469469E-04
(PID.TID 0000.0001) %MON dynstat_uvel_mean            =   3.2739942359929E-07
(PID.TID 0000.0001) %MON dynstat_uvel_sd              =   6.8352827359275E-05
(PID.TID 0000.0001) %MON dynstat_uvel_del2            =   3.3044478428597E-08
(PID.TID 0000.0001) %MON dynstat_vvel_max             =   5.2668805122988E-04
(PID.TID 0000.0001) %MON dynstat_vvel_min             =  -1.1977071021996E-04
(PID.TID 0000.0001) %MON dynstat_vvel_mean            =   2.3709658354482E-10
(PID.TID 0000.0001) %MON dynstat_vvel_sd              =   1.9433156917224E-05
(PID.TID 0000.0001) %MON dynstat_vvel_del2            =   1.8199117345436E-08
(PID.TID 0000.0001) %MON dynstat_wvel_max             =   3.9977805713131E-06
(PID.TID 0000.0001) %MON dynstat_wvel_min             =  -4.3265303338112E-06
(PID.TID 0000.0001) %MON dynstat_wvel_mean            =   3.1992538341526E-13
(PID.TID 0000.0001) %MON dynstat_wvel_sd              =   1.9501119306209E-07
(PID.TID 0000.0001) %MON dynstat_wvel_del2            =   6.2216867382905E-10
(PID.TID 0000.0001) %MON dynstat_theta_max            =  -1.9000000000000E+00
(PID.TID 0000.0001) %MON dynstat_theta_min            =  -1.9413587003559E+00
(PID.TID 0000.0001) %MON dynstat_theta_mean           =  -1.9016442575671E+00
(PID.TID 0000.0001) %MON dynstat_theta_sd             =   4.8400746306309E-03
(PID.TID 0000.0001) %MON dynstat_theta_del2           =   1.1177572138451E-06
(PID.TID 0000.0001) %MON dynstat_salt_max             =   3.4400000000000E+01
(PID.TID 0000.0001) %MON dynstat_salt_min             =   3.4384753454978E+01
(PID.TID 0000.0001) %MON dynstat_salt_mean            =   3.4399393356435E+01
(PID.TID 0000.0001) %MON dynstat_salt_sd              =   1.7854389940368E-03
(PID.TID 0000.0001) %MON dynstat_salt_del2            =   4.1219987914337E-07
(PID.TID 0000.0001) %MON trAdv_CFL_u_max              =   1.8612088407560E-04
(PID.TID 0000.0001) %MON trAdv_CFL_v_max              =   8.5636730406857E-05
(PID.TID 0000.0001) %MON trAdv_CFL_w_max              =   2.5956883916310E-04
(PID.TID 0000.0001) %MON advcfl_uvel_max              =   1.8613125815112E-04
(PID.TID 0000.0001) %MON advcfl_vvel_max              =   8.5272534410983E-05
(PID.TID 0000.0001) %MON advcfl_wvel_max              =   2.5959182002867E-04
(PID.TID 0000.0001) %MON advcfl_W_hf_max              =   2.5959182002867E-04
(PID.TID 0000.0001) %MON pe_b_mean                    =  -1.4147179342479E-08
(PID.TID 0000.0001) %MON ke_max                       =   2.3548811265954E-07
(PID.TID 0000.0001) %MON ke_mean                      =   2.4750364100712E-09
(PID.TID 0000.0001) %MON ke_vol                       =   2.9241705273105E+14
(PID.TID 0000.0001) %MON vort_r_min                   =  -3.1897003060559E-08
(PID.TID 0000.0001) %MON vort_r_max                   =   8.1299790594227E-08
(PID.TID 0000.0001) %MON vort_a_mean                  =  -1.4007437453933E-04
(PID.TID 0000.0001) %MON vort_a_sd                    =   1.7682652718214E-06
(PID.TID 0000.0001) %MON vort_p_mean                  =  -1.5039772396679E-04
(PID.TID 0000.0001) %MON vort_p_sd                    =   8.7068345013603E-05
(PID.TID 0000.0001) %MON surfExpan_theta_mean         =   1.0738968758314E-14
(PID.TID 0000.0001) %MON surfExpan_salt_mean          =   3.9546841446107E-15
(PID.TID 0000.0001) // =======================================================
(PID.TID 0000.0001) // End MONITOR dynamic field statistics
(PID.TID 0000.0001) // =======================================================
 cg2d: Sum(rhs),rhsMax =  -4.88498130835069E-14  2.22488536632497E-04
(PID.TID 0000.0001)      cg2d_init_res =   1.24136278668958E-03
(PID.TID 0000.0001)      cg2d_iters(min,last) =      -1     178
(PID.TID 0000.0001)      cg2d_last_res =   9.06940050360499E-14
(PID.TID 0000.0001) // =======================================================
(PID.TID 0000.0001) // Begin MONITOR dynamic field statistics
(PID.TID 0000.0001) // =======================================================
(PID.TID 0000.0001) %MON time_tsnumber                =                  8644
(PID.TID 0000.0001) %MON time_secondsf                =   1.5559200000000E+07
(PID.TID 0000.0001) %MON dynstat_eta_max              =   1.0951770714587E-04
(PID.TID 0000.0001) %MON dynstat_eta_min              =  -3.3338944484239E-04
(PID.TID 0000.0001) %MON dynstat_eta_mean             =   8.8506789178282E-20
(PID.TID 0000.0001) %MON dynstat_eta_sd               =   4.9041024301586E-05
(PID.TID 0000.0001) %MON dynstat_eta_del2             =   7.3327932968715E-08
(PID.TID 0000.0001) %MON dynstat_uvel_max             =   1.3452604963321E-04
(PID.TID 0000.0001) %MON dynstat_uvel_min             =  -6.5516947794664E-04
(PID.TID 0000.0001) %MON dynstat_uvel_mean            =   3.2746842681259E-07
(PID.TID 0000.0001) %MON dynstat_uvel_sd              =   6.8358326417101E-05
(PID.TID 0000.0001) %MON dynstat_uvel_del2            =   3.3045112776926E-08
(PID.TID 0000.0001) %MON dynstat_vvel_max             =   5.2677003156072E-04
(PID.TID 0000.0001) %MON dynstat_vvel_min             =  -1.1978649466312E-04
(PID.TID 0000.0001) %MON dynstat_vvel_mean            =   2.3714006533258E-10
(PID.TID 0000.0001) %MON dynstat_vvel_sd              =   1.9437489701858E-05
(PID.TID 0000.0001) %MON dynstat_vvel_del2            =   1.8200295311569E-08
(PID.TID 0000.0001) %MON dynstat_wvel_max             =   3.9980552049123E-06
(PID.TID 0000.0001) %MON dynstat_wvel_min             =  -4.3269133153932E-06
(PID.TID 0000.0001) %MON dynstat_wvel_mean            =   3.1994883731753E-13
(PID.TID 0000.0001) %MON dynstat_wvel_sd              =   1.9503000420756E-07
(PID.TID 0000.0001) %MON dynstat_wvel_del2            =   6.2222924046784E-10
(PID.TID 0000.0001) %MON dynstat_theta_max            =  -1.9000000000000E+00
(PID.TID 0000.0001) %MON dynstat_theta_min            =  -1.9413613396516E+00
(PID.TID 0000.0001) %MON dynstat_theta_mean           =  -1.9016444398341E+00
(PID.TID 0000.0001) %MON dynstat_theta_sd             =   4.8404883504745E-03
(PID.TID 0000.0001) %MON dynstat_theta_del2           =   1.1177652358925E-06
(PID.TID 0000.0001) %MON dynstat_salt_max             =   3.4400000000000E+01
(PID.TID 0000.0001) %MON dynstat_salt_min             =   3.4384752482063E+01
(PID.TID 0000.0001) %MON dynstat_salt_mean            =   3.4399393289190E+01
(PID.TID 0000.0001) %MON dynstat_salt_sd              =   1.7855916117964E-03
(PID.TID 0000.0001) %MON dynstat_salt_del2            =   4.1220283690918E-07
(PID.TID 0000.0001) %MON trAdv_CFL_u_max              =   1.8613128177565E-04
(PID.TID 0000.0001) %MON trAdv_CFL_v_max              =   8.5650061466544E-05
(PID.TID 0000.0001) %MON trAdv_CFL_w_max              =   2.5959182002867E-04
(PID.TID 0000.0001) %MON advcfl_uvel_max              =   1.8614165474116E-04
(PID.TID 0000.0001) %MON advcfl_vvel_max              =   8.5285807297212E-05
(PID.TID 0000.0001) %MON advcfl_wvel_max              =   2.5961479892359E-04
(PID.TID 0000.0001) %MON advcfl_W_hf_max              =   2.5961479892359E-04
(PID.TID 0000.0001) %MON pe_b_mean                    =  -1.4147324935229E-08
(PID.TID 0000.0001) %MON ke_max                       =   2.3552401290396E-07
(PID.TID 0000.0001) %MON ke_mean                      =   2.4754878712516E-09
(PID.TID 0000.0001) %MON ke_vol                       =   2.9241705273105E+14
(PID.TID 0000.0001) %MON vort_r_min                   =  -3.1900736225953E-08
(PID.TID 0000.0001) %MON vort_r_max                   =   8.1312445112807E-08
(PID.TID 0000.0001) %MON vort_a_mean                  =  -1.4007437453974E-04
(PID.TID 0000.0001) %MON vort_a_sd                    =   1.7682652702721E-06
(PID.TID 0000.0001) %MON vort_p_mean                  =  -1.5039772396726E-04
(PID.TID 0000.0001) %MON vort_p_sd                    =   8.7068343984998E-05
(PID.TID 0000.0001) %MON surfExpan_theta_mean         =   1.0740336152042E-14
(PID.TID 0000.0001) %MON surfExpan_salt_mean          =   3.9551877604007E-15
(PID.TID 0000.0001) // =======================================================
(PID.TID 0000.0001) // End MONITOR dynamic field statistics
(PID.TID 0000.0001) // =======================================================
 cg2d: Sum(rhs),rhsMax =  -5.31796828795450E-14  2.22532223395391E-04
(PID.TID 0000.0001)      cg2d_init_res =   1.24119876852961E-03
(PID.TID 0000.0001)      cg2d_iters(min,last) =      -1     178
(PID.TID 0000.0001)      cg2d_last_res =   9.06891642104698E-14
(PID.TID 0000.0001) // =======================================================
(PID.TID 0000.0001) // Begin MONITOR dynamic field statistics
(PID.TID 0000.0001) // =======================================================
(PID.TID 0000.0001) %MON time_tsnumber                =                  8645
(PID.TID 0000.0001) %MON time_secondsf                =   1.5561000000000E+07
(PID.TID 0000.0001) %MON dynstat_eta_max              =   1.0953287408614E-04
(PID.TID 0000.0001) %MON dynstat_eta_min              =  -3.3342742576137E-04
(PID.TID 0000.0001) %MON dynstat_eta_mean             =   8.5578745025016E-20
(PID.TID 0000.0001) %MON dynstat_eta_sd               =   4.9046911838696E-05
(PID.TID 0000.0001) %MON dynstat_eta_del2             =   7.3331799035698E-08
(PID.TID 0000.0001) %MON dynstat_uvel_max             =   1.3453670972452E-04
(PID.TID 0000.0001) %MON dynstat_uvel_min             =  -6.5520606729391E-04
(PID.TID 0000.0001) %MON dynstat_uvel_mean            =   3.2753743704407E-07
(PID.TID 0000.0001) %MON dynstat_uvel_sd              =   6.8363825218316E-05
(PID.TID 0000.0001) %MON dynstat_uvel_del2            =   3.3045747072933E-08
(PID.TID 0000.0001) %MON dynstat_vvel_max             =   5.2685201547329E-04
(PID.TID 0000.0001) %MON dynstat_vvel_min             =  -1.1980227886688E-04
(PID.TID 0000.0001) %MON dynstat_vvel_mean            =   2.3718358947436E-10
(PID.TID 0000.0001) %MON dynstat_vvel_sd              =   1.9441822933034E-05
(PID.TID 0000.0001) %MON dynstat_vvel_del2            =   1.8201473522549E-08
(PID.TID 0000.0001) %MON dynstat_wvel_max             =   3.9983298091655E-06
(PID.TID 0000.0001) %MON dynstat_wvel_min             =  -4.3272962642294E-06
(PID.TID 0000.0001) %MON dynstat_wvel_mean            =   3.1997228468875E-13
(PID.TID 0000.0001) %MON dynstat_wvel_sd              =   1.9504881478844E-07
(PID.TID 0000.0001) %MON dynstat_wvel_del2            =   6.2228980634284E-10
(PID.TID 0000.0001) %MON dynstat_theta_max            =  -1.9000000000000E+00
(PID.TID 0000.0001) %MON dynstat_theta_min            =  -1.9413639787686E+00
(PID.TID 0000.0001) %MON dynstat_theta_mean           =  -1.9016446220995E+00
(PID.TID 0000.0001) %MON dynstat_theta_sd             =   4.8409020527871E-03
(PID.TID 0000.0001) %MON dynstat_theta_del2           =   1.1177732558972E-06
(PID.TID 0000.0001) %MON dynstat_salt_max             =   3.4400000000000E+01
(PID.TID 0000.0001) %MON dynstat_salt_min             =   3.4384751509215E+01
(PID.TID 0000.0001) %MON dynstat_salt_mean            =   3.4399393221945E+01
(PID.TID 0000.0001) %MON dynstat_salt_sd              =   1.7857442230888E-03
(PID.TID 0000.0001) %MON dynstat_salt_del2            =   4.1220579392164E-07
(PID.TID 0000.0001) %MON trAdv_CFL_u_max              =   1.8614167836701E-04
(PID.TID 0000.0001) %MON trAdv_CFL_v_max              =   8.5663393115817E-05
(PID.TID 0000.0001) %MON trAdv_CFL_w_max              =   2.5961479892359E-04
(PID.TID 0000.0001) %MON advcfl_uvel_max              =   1.8615205022184E-04
(PID.TID 0000.0001) %MON advcfl_vvel_max              =   8.5299080763337E-05
(PID.TID 0000.0001) %MON advcfl_wvel_max              =   2.5963777585376E-04
(PID.TID 0000.0001) %MON advcfl_W_hf_max              =   2.5963777585376E-04
(PID.TID 0000.0001) %MON pe_b_mean                    =  -1.4147470296145E-08
(PID.TID 0000.0001) %MON ke_max                       =   2.3555991524617E-07
(PID.TID 0000.0001) %MON ke_mean                      =   2.4759393720084E-09
(PID.TID 0000.0001) %MON ke_vol                       =   2.9241705273105E+14
(PID.TID 0000.0001) %MON vort_r_min                   =  -3.1904469462992E-08
(PID.TID 0000.0001) %MON vort_r_max                   =   8.1325100184265E-08
(PID.TID 0000.0001) %MON vort_a_mean                  =  -1.4007437454016E-04
(PID.TID 0000.0001) %MON vort_a_sd                    =   1.7682652688014E-06
(PID.TID 0000.0001) %MON vort_p_mean                  =  -1.5039772396773E-04
(PID.TID 0000.0001) %MON vort_p_sd                    =   8.7068342956430E-05
(PID.TID 0000.0001) %MON surfExpan_theta_mean         =   1.0741703281651E-14
(PID.TID 0000.0001) %MON surfExpan_salt_mean          =   3.9556913108184E-15
(PID.TID 0000.0001) // =======================================================
(PID.TID 0000.0001) // End MONITOR dynamic field statistics
(PID.TID 0000.0001) // =======================================================
 cg2d: Sum(rhs),rhsMax =  -7.04991620636974E-14  2.22575913926630E-04
(PID.TID 0000.0001)      cg2d_init_res =   1.24103791034114E-03
(PID.TID 0000.0001)      cg2d_iters(min,last) =      -1     178
(PID.TID 0000.0001)      cg2d_last_res =   9.06849933552830E-14
(PID.TID 0000.0001) // =======================================================
(PID.TID 0000.0001) // Begin MONITOR dynamic field statistics
(PID.TID 0000.0001) // =======================================================
(PID.TID 0000.0001) %MON time_tsnumber                =                  8646
(PID.TID 0000.0001) %MON time_secondsf                =   1.5562800000000E+07
(PID.TID 0000.0001) %MON dynstat_eta_max              =   1.0954804163214E-04
(PID.TID 0000.0001) %MON dynstat_eta_min              =  -3.3346540593226E-04
(PID.TID 0000.0001) %MON dynstat_eta_mean             =   8.6377302521361E-20
(PID.TID 0000.0001) %MON dynstat_eta_sd               =   4.9052799370863E-05
(PID.TID 0000.0001) %MON dynstat_eta_del2             =   7.3335665148494E-08
(PID.TID 0000.0001) %MON dynstat_uvel_max             =   1.3454736888230E-04
(PID.TID 0000.0001) %MON dynstat_uvel_min             =  -6.5524265286840E-04
(PID.TID 0000.0001) %MON dynstat_uvel_mean            =   3.2760645429281E-07
(PID.TID 0000.0001) %MON dynstat_uvel_sd              =   6.8369323762879E-05
(PID.TID 0000.0001) %MON dynstat_uvel_del2            =   3.3046381315763E-08
(PID.TID 0000.0001) %MON dynstat_vvel_max             =   5.2693400302046E-04
(PID.TID 0000.0001) %MON dynstat_vvel_min             =  -1.1981806299356E-04
(PID.TID 0000.0001) %MON dynstat_vvel_mean            =   2.3722694338702E-10
(PID.TID 0000.0001) %MON dynstat_vvel_sd              =   1.9446156610754E-05
(PID.TID 0000.0001) %MON dynstat_vvel_del2            =   1.8202651981297E-08
(PID.TID 0000.0001) %MON dynstat_wvel_max             =   3.9986043867945E-06
(PID.TID 0000.0001) %MON dynstat_wvel_min             =  -4.3276791798846E-06
(PID.TID 0000.0001) %MON dynstat_wvel_mean            =   3.1999570549690E-13
(PID.TID 0000.0001) %MON dynstat_wvel_sd              =   1.9506762479963E-07
(PID.TID 0000.0001) %MON dynstat_wvel_del2            =   6.2235037145740E-10
(PID.TID 0000.0001) %MON dynstat_theta_max            =  -1.9000000000000E+00
(PID.TID 0000.0001) %MON dynstat_theta_min            =  -1.9413666177069E+00
(PID.TID 0000.0001) %MON dynstat_theta_mean           =  -1.9016448043635E+00
(PID.TID 0000.0001) %MON dynstat_theta_sd             =   4.8413157375710E-03
(PID.TID 0000.0001) %MON dynstat_theta_del2           =   1.1177812738596E-06
(PID.TID 0000.0001) %MON dynstat_salt_max             =   3.4400000000000E+01
(PID.TID 0000.0001) %MON dynstat_salt_min             =   3.4384750536432E+01
(PID.TID 0000.0001) %MON dynstat_salt_mean            =   3.4399393154701E+01
(PID.TID 0000.0001) %MON dynstat_salt_sd              =   1.7858968279145E-03
(PID.TID 0000.0001) %MON dynstat_salt_del2            =   4.1220875018087E-07
(PID.TID 0000.0001) %MON trAdv_CFL_u_max              =   1.8615207384901E-04
(PID.TID 0000.0001) %MON trAdv_CFL_v_max              =   8.5676725347553E-05
(PID.TID 0000.0001) %MON trAdv_CFL_w_max              =   2.5963777585376E-04
(PID.TID 0000.0001) %MON advcfl_uvel_max              =   1.8616244463062E-04
(PID.TID 0000.0001) %MON advcfl_vvel_max              =   8.5312354817913E-05
(PID.TID 0000.0001) %MON advcfl_wvel_max              =   2.5966075079307E-04
(PID.TID 0000.0001) %MON advcfl_W_hf_max              =   2.5966075079307E-04
(PID.TID 0000.0001) %MON pe_b_mean                    =  -1.4147615425457E-08
(PID.TID 0000.0001) %MON ke_max                       =   2.3559581964524E-07
(PID.TID 0000.0001) %MON ke_mean                      =   2.4763909123404E-09
(PID.TID 0000.0001) %MON ke_vol                       =   2.9241705273105E+14
(PID.TID 0000.0001) %MON vort_r_min                   =  -3.1908202770941E-08
(PID.TID 0000.0001) %MON vort_r_max                   =   8.1337755816760E-08
(PID.TID 0000.0001) %MON vort_a_mean                  =  -1.4007437454058E-04
(PID.TID 0000.0001) %MON vort_a_sd                    =   1.7682652672352E-06
(PID.TID 0000.0001) %MON vort_p_mean                  =  -1.5039772396821E-04
(PID.TID 0000.0001) %MON vort_p_sd                    =   8.7068341927897E-05
(PID.TID 0000.0001) %MON surfExpan_theta_mean         =   1.0743069987377E-14
(PID.TID 0000.0001) %MON surfExpan_salt_mean          =   3.9561947019998E-15
(PID.TID 0000.0001) // =======================================================
(PID.TID 0000.0001) // End MONITOR dynamic field statistics
(PID.TID 0000.0001) // =======================================================
 cg2d: Sum(rhs),rhsMax =  -3.28626015289046E-14  2.22619607827831E-04
(PID.TID 0000.0001)      cg2d_init_res =   1.24087347090834E-03
(PID.TID 0000.0001)      cg2d_iters(min,last) =      -1     178
(PID.TID 0000.0001)      cg2d_last_res =   9.06807090055556E-14
(PID.TID 0000.0001) // =======================================================
(PID.TID 0000.0001) // Begin MONITOR dynamic field statistics
(PID.TID 0000.0001) // =======================================================
(PID.TID 0000.0001) %MON time_tsnumber                =                  8647
(PID.TID 0000.0001) %MON time_secondsf                =   1.5564600000000E+07
(PID.TID 0000.0001) %MON dynstat_eta_max              =   1.0956320988617E-04
(PID.TID 0000.0001) %MON dynstat_eta_min              =  -3.3350338533860E-04
(PID.TID 0000.0001) %MON dynstat_eta_mean             =   7.6528426733101E-20
(PID.TID 0000.0001) %MON dynstat_eta_sd               =   4.9058686898395E-05
(PID.TID 0000.0001) %MON dynstat_eta_del2             =   7.3339531303176E-08
(PID.TID 0000.0001) %MON dynstat_uvel_max             =   1.3455802712778E-04
(PID.TID 0000.0001) %MON dynstat_uvel_min             =  -6.5527923449844E-04
(PID.TID 0000.0001) %MON dynstat_uvel_mean            =   3.2767547860073E-07
(PID.TID 0000.0001) %MON dynstat_uvel_sd              =   6.8374822050963E-05
(PID.TID 0000.0001) %MON dynstat_uvel_del2            =   3.3047015504644E-08
(PID.TID 0000.0001) %MON dynstat_vvel_max             =   5.2701599421992E-04
(PID.TID 0000.0001) %MON dynstat_vvel_min             =  -1.1983384692012E-04
(PID.TID 0000.0001) %MON dynstat_vvel_mean            =   2.3727032330182E-10
(PID.TID 0000.0001) %MON dynstat_vvel_sd              =   1.9450490734937E-05
(PID.TID 0000.0001) %MON dynstat_vvel_del2            =   1.8203830685287E-08
(PID.TID 0000.0001) %MON dynstat_wvel_max             =   3.9988789356516E-06
(PID.TID 0000.0001) %MON dynstat_wvel_min             =  -4.3280620628598E-06
(PID.TID 0000.0001) %MON dynstat_wvel_mean            =   3.2001911324435E-13
(PID.TID 0000.0001) %MON dynstat_wvel_sd              =   1.9508643426220E-07
(PID.TID 0000.0001) %MON dynstat_wvel_del2            =   6.2241093601129E-10
(PID.TID 0000.0001) %MON dynstat_theta_max            =  -1.9000000000000E+00
(PID.TID 0000.0001) %MON dynstat_theta_min            =  -1.9413692564664E+00
(PID.TID 0000.0001) %MON dynstat_theta_mean           =  -1.9016449866260E+00
(PID.TID 0000.0001) %MON dynstat_theta_sd             =   4.8417294048283E-03
(PID.TID 0000.0001) %MON dynstat_theta_del2           =   1.1177892897803E-06
(PID.TID 0000.0001) %MON dynstat_salt_max             =   3.4400000000000E+01
(PID.TID 0000.0001) %MON dynstat_salt_min             =   3.4384749563715E+01
(PID.TID 0000.0001) %MON dynstat_salt_mean            =   3.4399393087457E+01
(PID.TID 0000.0001) %MON dynstat_salt_sd              =   1.7860494262744E-03
(PID.TID 0000.0001) %MON dynstat_salt_del2            =   4.1221170568719E-07
(PID.TID 0000.0001) %MON trAdv_CFL_u_max              =   1.8616246825911E-04
(PID.TID 0000.0001) %MON trAdv_CFL_v_max              =   8.5690058170345E-05
(PID.TID 0000.0001) %MON trAdv_CFL_w_max              =   2.5966075079307E-04
(PID.TID 0000.0001) %MON advcfl_uvel_max              =   1.8617283791874E-04
(PID.TID 0000.0001) %MON advcfl_vvel_max              =   8.5325629463810E-05
(PID.TID 0000.0001) %MON advcfl_wvel_max              =   2.5968372377159E-04
(PID.TID 0000.0001) %MON advcfl_W_hf_max              =   2.5968372377159E-04
(PID.TID 0000.0001) %MON pe_b_mean                    =  -1.4147760323265E-08
(PID.TID 0000.0001) %MON ke_max                       =   2.3563172608193E-07
(PID.TID 0000.0001) %MON ke_mean                      =   2.4768424922593E-09
(PID.TID 0000.0001) %MON ke_vol                       =   2.9241705273105E+14
(PID.TID 0000.0001) %MON vort_r_min                   =  -3.1911936150078E-08
(PID.TID 0000.0001) %MON vort_r_max                   =   8.1350412013026E-08
(PID.TID 0000.0001) %MON vort_a_mean                  =  -1.4007437454099E-04
(PID.TID 0000.0001) %MON vort_a_sd                    =   1.7682652657841E-06
(PID.TID 0000.0001) %MON vort_p_mean                  =  -1.5039772396868E-04
(PID.TID 0000.0001) %MON vort_p_sd                    =   8.7068340899402E-05
(PID.TID 0000.0001) %MON surfExpan_theta_mean         =   1.0744436184533E-14
(PID.TID 0000.0001) %MON surfExpan_salt_mean          =   3.9566979272979E-15
(PID.TID 0000.0001) // =======================================================
(PID.TID 0000.0001) // End MONITOR dynamic field statistics
(PID.TID 0000.0001) // =======================================================
 cg2d: Sum(rhs),rhsMax =  -6.67244037799719E-14  2.22663305106893E-04
(PID.TID 0000.0001)      cg2d_init_res =   1.24071342675490E-03
(PID.TID 0000.0001)      cg2d_iters(min,last) =      -1     178
(PID.TID 0000.0001)      cg2d_last_res =   9.06762462405928E-14
(PID.TID 0000.0001) // =======================================================
(PID.TID 0000.0001) // Begin MONITOR dynamic field statistics
(PID.TID 0000.0001) // =======================================================
(PID.TID 0000.0001) %MON time_tsnumber                =                  8648
(PID.TID 0000.0001) %MON time_secondsf                =   1.5566400000000E+07
(PID.TID 0000.0001) %MON dynstat_eta_max              =   1.0957837878549E-04
(PID.TID 0000.0001) %MON dynstat_eta_min              =  -3.3354136398349E-04
(PID.TID 0000.0001) %MON dynstat_eta_mean             =   7.5064404656468E-20
(PID.TID 0000.0001) %MON dynstat_eta_sd               =   4.9064574420685E-05
(PID.TID 0000.0001) %MON dynstat_eta_del2             =   7.3343397485791E-08
(PID.TID 0000.0001) %MON dynstat_uvel_max             =   1.3456868431732E-04
(PID.TID 0000.0001) %MON dynstat_uvel_min             =  -6.5531581228887E-04
(PID.TID 0000.0001) %MON dynstat_uvel_mean            =   3.2774450988737E-07
(PID.TID 0000.0001) %MON dynstat_uvel_sd              =   6.8380320082465E-05
(PID.TID 0000.0001) %MON dynstat_uvel_del2            =   3.3047649640495E-08
(PID.TID 0000.0001) %MON dynstat_vvel_max             =   5.2709798910970E-04
(PID.TID 0000.0001) %MON dynstat_vvel_min             =  -1.1984963068381E-04
(PID.TID 0000.0001) %MON dynstat_vvel_mean            =   2.3731354899101E-10
(PID.TID 0000.0001) %MON dynstat_vvel_sd              =   1.9454825305589E-05
(PID.TID 0000.0001) %MON dynstat_vvel_del2            =   1.8205009635633E-08
(PID.TID 0000.0001) %MON dynstat_wvel_max             =   3.9991534567900E-06
(PID.TID 0000.0001) %MON dynstat_wvel_min             =  -4.3284449165472E-06
(PID.TID 0000.0001) %MON dynstat_wvel_mean            =   3.2004251746071E-13
(PID.TID 0000.0001) %MON dynstat_wvel_sd              =   1.9510524316215E-07
(PID.TID 0000.0001) %MON dynstat_wvel_del2            =   6.2247149993250E-10
(PID.TID 0000.0001) %MON dynstat_theta_max            =  -1.9000000000000E+00
(PID.TID 0000.0001) %MON dynstat_theta_min            =  -1.9413718950473E+00
(PID.TID 0000.0001) %MON dynstat_theta_mean           =  -1.9016451688870E+00
(PID.TID 0000.0001) %MON dynstat_theta_sd             =   4.8421430545613E-03
(PID.TID 0000.0001) %MON dynstat_theta_del2           =   1.1177973036600E-06
(PID.TID 0000.0001) %MON dynstat_salt_max             =   3.4400000000000E+01
(PID.TID 0000.0001) %MON dynstat_salt_min             =   3.4384748591065E+01
(PID.TID 0000.0001) %MON dynstat_salt_mean            =   3.4399393020214E+01
(PID.TID 0000.0001) %MON dynstat_salt_sd              =   1.7862020181693E-03
(PID.TID 0000.0001) %MON dynstat_salt_del2            =   4.1221466044099E-07
(PID.TID 0000.0001) %MON trAdv_CFL_u_max              =   1.8617286154855E-04
(PID.TID 0000.0001) %MON trAdv_CFL_v_max              =   8.5703391587076E-05
(PID.TID 0000.0001) %MON trAdv_CFL_w_max              =   2.5968372377159E-04
(PID.TID 0000.0001) %MON advcfl_uvel_max              =   1.8618323011597E-04
(PID.TID 0000.0001) %MON advcfl_vvel_max              =   8.5338904707179E-05
(PID.TID 0000.0001) %MON advcfl_wvel_max              =   2.5970669499283E-04
(PID.TID 0000.0001) %MON advcfl_W_hf_max              =   2.5970669499283E-04
(PID.TID 0000.0001) %MON pe_b_mean                    =  -1.4147904989482E-08
(PID.TID 0000.0001) %MON ke_max                       =   2.3566763459824E-07
(PID.TID 0000.0001) %MON ke_mean                      =   2.4772941117598E-09
(PID.TID 0000.0001) %MON ke_vol                       =   2.9241705273105E+14
(PID.TID 0000.0001) %MON vort_r_min                   =  -3.1915669601154E-08
(PID.TID 0000.0001) %MON vort_r_max                   =   8.1363068778928E-08
(PID.TID 0000.0001) %MON vort_a_mean                  =  -1.4007437454141E-04
(PID.TID 0000.0001) %MON vort_a_sd                    =   1.7682652642741E-06
(PID.TID 0000.0001) %MON vort_p_mean                  =  -1.5039772396915E-04
(PID.TID 0000.0001) %MON vort_p_sd                    =   8.7068339870941E-05
(PID.TID 0000.0001) %MON surfExpan_theta_mean         =   1.0745802077216E-14
(PID.TID 0000.0001) %MON surfExpan_salt_mean          =   3.9572009523325E-15
(PID.TID 0000.0001) // =======================================================
(PID.TID 0000.0001) // End MONITOR dynamic field statistics
(PID.TID 0000.0001) // =======================================================
 cg2d: Sum(rhs),rhsMax =  -3.93018950717305E-14  2.22707005402515E-04
(PID.TID 0000.0001)      cg2d_init_res =   1.24055173527818E-03
(PID.TID 0000.0001)      cg2d_iters(min,last) =      -1     178
(PID.TID 0000.0001)      cg2d_last_res =   9.06715867888457E-14
(PID.TID 0000.0001) // =======================================================
(PID.TID 0000.0001) // Begin MONITOR dynamic field statistics
(PID.TID 0000.0001) // =======================================================
(PID.TID 0000.0001) %MON time_tsnumber                =                  8649
(PID.TID 0000.0001) %MON time_secondsf                =   1.5568200000000E+07
(PID.TID 0000.0001) %MON dynstat_eta_max              =   1.0959354839456E-04
(PID.TID 0000.0001) %MON dynstat_eta_min              =  -3.3357934187288E-04
(PID.TID 0000.0001) %MON dynstat_eta_mean             =   9.2100297911837E-20
(PID.TID 0000.0001) %MON dynstat_eta_sd               =   4.9070461938190E-05
(PID.TID 0000.0001) %MON dynstat_eta_del2             =   7.3347263740681E-08
(PID.TID 0000.0001) %MON dynstat_uvel_max             =   1.3457934054589E-04
(PID.TID 0000.0001) %MON dynstat_uvel_min             =  -6.5535238615465E-04
(PID.TID 0000.0001) %MON dynstat_uvel_mean            =   3.2781354825182E-07
(PID.TID 0000.0001) %MON dynstat_uvel_sd              =   6.8385817857424E-05
(PID.TID 0000.0001) %MON dynstat_uvel_del2            =   3.3048283721484E-08
(PID.TID 0000.0001) %MON dynstat_vvel_max             =   5.2717998756986E-04
(PID.TID 0000.0001) %MON dynstat_vvel_min             =  -1.1986541430095E-04
(PID.TID 0000.0001) %MON dynstat_vvel_mean            =   2.3735701338836E-10
(PID.TID 0000.0001) %MON dynstat_vvel_sd              =   1.9459160322672E-05
(PID.TID 0000.0001) %MON dynstat_vvel_del2            =   1.8206188832229E-08
(PID.TID 0000.0001) %MON dynstat_wvel_max             =   3.9994279496694E-06
(PID.TID 0000.0001) %MON dynstat_wvel_min             =  -4.3288277364448E-06
(PID.TID 0000.0001) %MON dynstat_wvel_mean            =   3.2006590289020E-13
(PID.TID 0000.0001) %MON dynstat_wvel_sd              =   1.9512405149616E-07
(PID.TID 0000.0001) %MON dynstat_wvel_del2            =   6.2253206325215E-10
(PID.TID 0000.0001) %MON dynstat_theta_max            =  -1.9000000000000E+00
(PID.TID 0000.0001) %MON dynstat_theta_min            =  -1.9413745334495E+00
(PID.TID 0000.0001) %MON dynstat_theta_mean           =  -1.9016453511466E+00
(PID.TID 0000.0001) %MON dynstat_theta_sd             =   4.8425566867719E-03
(PID.TID 0000.0001) %MON dynstat_theta_del2           =   1.1178053154992E-06
(PID.TID 0000.0001) %MON dynstat_salt_max             =   3.4400000000000E+01
(PID.TID 0000.0001) %MON dynstat_salt_min             =   3.4384747618480E+01
(PID.TID 0000.0001) %MON dynstat_salt_mean            =   3.4399392952971E+01
(PID.TID 0000.0001) %MON dynstat_salt_sd              =   1.7863546035999E-03
(PID.TID 0000.0001) %MON dynstat_salt_del2            =   4.1221761444241E-07
(PID.TID 0000.0001) %MON trAdv_CFL_u_max              =   1.8618325374710E-04
(PID.TID 0000.0001) %MON trAdv_CFL_v_max              =   8.5716725603924E-05
(PID.TID 0000.0001) %MON trAdv_CFL_w_max              =   2.5970669499283E-04
(PID.TID 0000.0001) %MON advcfl_uvel_max              =   1.8619362119816E-04
(PID.TID 0000.0001) %MON advcfl_vvel_max              =   8.5352180528606E-05
(PID.TID 0000.0001) %MON advcfl_wvel_max              =   2.5972966418669E-04
(PID.TID 0000.0001) %MON advcfl_W_hf_max              =   2.5972966418669E-04
(PID.TID 0000.0001) %MON pe_b_mean                    =  -1.4148049424207E-08
(PID.TID 0000.0001) %MON ke_max                       =   2.3570354515031E-07
(PID.TID 0000.0001) %MON ke_mean                      =   2.4777457708454E-09
(PID.TID 0000.0001) %MON ke_vol                       =   2.9241705273105E+14
(PID.TID 0000.0001) %MON vort_r_min                   =  -3.1919403120762E-08
(PID.TID 0000.0001) %MON vort_r_max                   =   8.1375726095958E-08
(PID.TID 0000.0001) %MON vort_a_mean                  =  -1.4007437454183E-04
(PID.TID 0000.0001) %MON vort_a_sd                    =   1.7682652626593E-06
(PID.TID 0000.0001) %MON vort_p_mean                  =  -1.5039772396963E-04
(PID.TID 0000.0001) %MON vort_p_sd                    =   8.7068338842514E-05
(PID.TID 0000.0001) %MON surfExpan_theta_mean         =   1.0747167267809E-14
(PID.TID 0000.0001) %MON surfExpan_salt_mean          =   3.9577037548413E-15
(PID.TID 0000.0001) // =======================================================
(PID.TID 0000.0001) // End MONITOR dynamic field statistics
(PID.TID 0000.0001) // =======================================================
 cg2d: Sum(rhs),rhsMax =  -4.32986979603811E-14  2.22750710070417E-04
(PID.TID 0000.0001)      cg2d_init_res =   1.24039100553859E-03
(PID.TID 0000.0001)      cg2d_iters(min,last) =      -1     178
(PID.TID 0000.0001)      cg2d_last_res =   9.06674788373176E-14
(PID.TID 0000.0001) // =======================================================
(PID.TID 0000.0001) // Begin MONITOR dynamic field statistics
(PID.TID 0000.0001) // =======================================================
(PID.TID 0000.0001) %MON time_tsnumber                =                  8650
(PID.TID 0000.0001) %MON time_secondsf                =   1.5570000000000E+07
(PID.TID 0000.0001) %MON dynstat_eta_max              =   1.0960871865291E-04
(PID.TID 0000.0001) %MON dynstat_eta_min              =  -3.3361731900571E-04
(PID.TID 0000.0001) %MON dynstat_eta_mean             =   7.1870174671086E-20
(PID.TID 0000.0001) %MON dynstat_eta_sd               =   4.9076349450749E-05
(PID.TID 0000.0001) %MON dynstat_eta_del2             =   7.3351130004619E-08
(PID.TID 0000.0001) %MON dynstat_uvel_max             =   1.3458999578719E-04
(PID.TID 0000.0001) %MON dynstat_uvel_min             =  -6.5538895610294E-04
(PID.TID 0000.0001) %MON dynstat_uvel_mean            =   3.2788259356386E-07
(PID.TID 0000.0001) %MON dynstat_uvel_sd              =   6.8391315375970E-05
(PID.TID 0000.0001) %MON dynstat_uvel_del2            =   3.3048917751497E-08
(PID.TID 0000.0001) %MON dynstat_vvel_max             =   5.2726198958238E-04
(PID.TID 0000.0001) %MON dynstat_vvel_min             =  -1.1988119768799E-04
(PID.TID 0000.0001) %MON dynstat_vvel_mean            =   2.3740020738923E-10
(PID.TID 0000.0001) %MON dynstat_vvel_sd              =   1.9463495786138E-05
(PID.TID 0000.0001) %MON dynstat_vvel_del2            =   1.8207368272257E-08
(PID.TID 0000.0001) %MON dynstat_wvel_max             =   3.9997024140630E-06
(PID.TID 0000.0001) %MON dynstat_wvel_min             =  -4.3292105226870E-06
(PID.TID 0000.0001) %MON dynstat_wvel_mean            =   3.2008927472121E-13
(PID.TID 0000.0001) %MON dynstat_wvel_sd              =   1.9514285925621E-07
(PID.TID 0000.0001) %MON dynstat_wvel_del2            =   6.2259262548615E-10
(PID.TID 0000.0001) %MON dynstat_theta_max            =  -1.9000000000000E+00
(PID.TID 0000.0001) %MON dynstat_theta_min            =  -1.9413771716731E+00
(PID.TID 0000.0001) %MON dynstat_theta_mean           =  -1.9016455334046E+00
(PID.TID 0000.0001) %MON dynstat_theta_sd             =   4.8429703014623E-03
(PID.TID 0000.0001) %MON dynstat_theta_del2           =   1.1178133252985E-06
(PID.TID 0000.0001) %MON dynstat_salt_max             =   3.4400000000000E+01
(PID.TID 0000.0001) %MON dynstat_salt_min             =   3.4384746645961E+01
(PID.TID 0000.0001) %MON dynstat_salt_mean            =   3.4399392885729E+01
(PID.TID 0000.0001) %MON dynstat_salt_sd              =   1.7865071825671E-03
(PID.TID 0000.0001) %MON dynstat_salt_del2            =   4.1222056769142E-07
(PID.TID 0000.0001) %MON trAdv_CFL_u_max              =   1.8619364483061E-04
(PID.TID 0000.0001) %MON trAdv_CFL_v_max              =   8.5730060201390E-05
(PID.TID 0000.0001) %MON trAdv_CFL_w_max              =   2.5972966418669E-04
(PID.TID 0000.0001) %MON advcfl_uvel_max              =   1.8620401116735E-04
(PID.TID 0000.0001) %MON advcfl_vvel_max              =   8.5365456925172E-05
(PID.TID 0000.0001) %MON advcfl_wvel_max              =   2.5975263136122E-04
(PID.TID 0000.0001) %MON advcfl_W_hf_max              =   2.5975263136122E-04
(PID.TID 0000.0001) %MON pe_b_mean                    =  -1.4148193627820E-08
(PID.TID 0000.0001) %MON ke_max                       =   2.3573945775056E-07
(PID.TID 0000.0001) %MON ke_mean                      =   2.4781974695255E-09
(PID.TID 0000.0001) %MON ke_vol                       =   2.9241705273105E+14
(PID.TID 0000.0001) %MON vort_r_min                   =  -3.1923136713075E-08
(PID.TID 0000.0001) %MON vort_r_max                   =   8.1388383961332E-08
(PID.TID 0000.0001) %MON vort_a_mean                  =  -1.4007437454225E-04
(PID.TID 0000.0001) %MON vort_a_sd                    =   1.7682652611885E-06
(PID.TID 0000.0001) %MON vort_p_mean                  =  -1.5039772397010E-04
(PID.TID 0000.0001) %MON vort_p_sd                    =   8.7068337814125E-05
(PID.TID 0000.0001) %MON surfExpan_theta_mean         =   1.0748532685233E-14
(PID.TID 0000.0001) %MON surfExpan_salt_mean          =   3.9582067021449E-15
(PID.TID 0000.0001) // =======================================================
(PID.TID 0000.0001) // End MONITOR dynamic field statistics
(PID.TID 0000.0001) // =======================================================
 cg2d: Sum(rhs),rhsMax =  -6.36157793110215E-14  2.22794417145588E-04
(PID.TID 0000.0001)      cg2d_init_res =   1.24022853538447E-03
(PID.TID 0000.0001)      cg2d_iters(min,last) =      -1     178
(PID.TID 0000.0001)      cg2d_last_res =   9.06628248902706E-14
(PID.TID 0000.0001) // =======================================================
(PID.TID 0000.0001) // Begin MONITOR dynamic field statistics
(PID.TID 0000.0001) // =======================================================
(PID.TID 0000.0001) %MON time_tsnumber                =                  8651
(PID.TID 0000.0001) %MON time_secondsf                =   1.5571800000000E+07
(PID.TID 0000.0001) %MON dynstat_eta_max              =   1.0962388957132E-04
(PID.TID 0000.0001) %MON dynstat_eta_min              =  -3.3365529534547E-04
(PID.TID 0000.0001) %MON dynstat_eta_mean             =   9.0902461667318E-20
(PID.TID 0000.0001) %MON dynstat_eta_sd               =   4.9082236958646E-05
(PID.TID 0000.0001) %MON dynstat_eta_del2             =   7.3354996334979E-08
(PID.TID 0000.0001) %MON dynstat_uvel_max             =   1.3460065012702E-04
(PID.TID 0000.0001) %MON dynstat_uvel_min             =  -6.5542552220784E-04
(PID.TID 0000.0001) %MON dynstat_uvel_mean            =   3.2795164594435E-07
(PID.TID 0000.0001) %MON dynstat_uvel_sd              =   6.8396812637945E-05
(PID.TID 0000.0001) %MON dynstat_uvel_del2            =   3.3049551727383E-08
(PID.TID 0000.0001) %MON dynstat_vvel_max             =   5.2734399531904E-04
(PID.TID 0000.0001) %MON dynstat_vvel_min             =  -1.1989698091636E-04
(PID.TID 0000.0001) %MON dynstat_vvel_mean            =   2.3744345194668E-10
(PID.TID 0000.0001) %MON dynstat_vvel_sd              =   1.9467831696023E-05
(PID.TID 0000.0001) %MON dynstat_vvel_del2            =   1.8208547960072E-08
(PID.TID 0000.0001) %MON dynstat_wvel_max             =   3.9999768502924E-06
(PID.TID 0000.0001) %MON dynstat_wvel_min             =  -4.3295932782983E-06
(PID.TID 0000.0001) %MON dynstat_wvel_mean            =   3.2011264056000E-13
(PID.TID 0000.0001) %MON dynstat_wvel_sd              =   1.9516166645565E-07
(PID.TID 0000.0001) %MON dynstat_wvel_del2            =   6.2265318728028E-10
(PID.TID 0000.0001) %MON dynstat_theta_max            =  -1.9000000000000E+00
(PID.TID 0000.0001) %MON dynstat_theta_min            =  -1.9413798097182E+00
(PID.TID 0000.0001) %MON dynstat_theta_mean           =  -1.9016457156612E+00
(PID.TID 0000.0001) %MON dynstat_theta_sd             =   4.8433838986347E-03
(PID.TID 0000.0001) %MON dynstat_theta_del2           =   1.1178213330585E-06
(PID.TID 0000.0001) %MON dynstat_salt_max             =   3.4400000000000E+01
(PID.TID 0000.0001) %MON dynstat_salt_min             =   3.4384745673507E+01
(PID.TID 0000.0001) %MON dynstat_salt_mean            =   3.4399392818488E+01
(PID.TID 0000.0001) %MON dynstat_salt_sd              =   1.7866597550716E-03
(PID.TID 0000.0001) %MON dynstat_salt_del2            =   4.1222352018849E-07
(PID.TID 0000.0001) %MON trAdv_CFL_u_max              =   1.8620403480112E-04
(PID.TID 0000.0001) %MON trAdv_CFL_v_max              =   8.5743395376541E-05
(PID.TID 0000.0001) %MON trAdv_CFL_w_max              =   2.5975263136122E-04
(PID.TID 0000.0001) %MON advcfl_uvel_max              =   1.8621440004459E-04
(PID.TID 0000.0001) %MON advcfl_vvel_max              =   8.5378733924687E-05
(PID.TID 0000.0001) %MON advcfl_wvel_max              =   2.5977559669790E-04
(PID.TID 0000.0001) %MON advcfl_W_hf_max              =   2.5977559669790E-04
(PID.TID 0000.0001) %MON pe_b_mean                    =  -1.4148337600276E-08
(PID.TID 0000.0001) %MON ke_max                       =   2.3577537243838E-07
(PID.TID 0000.0001) %MON ke_mean                      =   2.4786492077919E-09
(PID.TID 0000.0001) %MON ke_vol                       =   2.9241705273105E+14
(PID.TID 0000.0001) %MON vort_r_min                   =  -3.1926870376249E-08
(PID.TID 0000.0001) %MON vort_r_max                   =   8.1401042401565E-08
(PID.TID 0000.0001) %MON vort_a_mean                  =  -1.4007437454267E-04
(PID.TID 0000.0001) %MON vort_a_sd                    =   1.7682652596205E-06
(PID.TID 0000.0001) %MON vort_p_mean                  =  -1.5039772397057E-04
(PID.TID 0000.0001) %MON vort_p_sd                    =   8.7068336785771E-05
(PID.TID 0000.0001) %MON surfExpan_theta_mean         =   1.0749897291021E-14
(PID.TID 0000.0001) %MON surfExpan_salt_mean          =   3.9587093145764E-15
(PID.TID 0000.0001) // =======================================================
(PID.TID 0000.0001) // End MONITOR dynamic field statistics
(PID.TID 0000.0001) // =======================================================
 cg2d: Sum(rhs),rhsMax =  -7.24975635080227E-14  2.22838128412507E-04
(PID.TID 0000.0001)      cg2d_init_res =   1.24006569972933E-03
(PID.TID 0000.0001)      cg2d_iters(min,last) =      -1     178
(PID.TID 0000.0001)      cg2d_last_res =   9.06582253210225E-14
(PID.TID 0000.0001) // =======================================================
(PID.TID 0000.0001) // Begin MONITOR dynamic field statistics
(PID.TID 0000.0001) // =======================================================
(PID.TID 0000.0001) %MON time_tsnumber                =                  8652
(PID.TID 0000.0001) %MON time_secondsf                =   1.5573600000000E+07
(PID.TID 0000.0001) %MON dynstat_eta_max              =   1.0963906117299E-04
(PID.TID 0000.0001) %MON dynstat_eta_min              =  -3.3369327095440E-04
(PID.TID 0000.0001) %MON dynstat_eta_mean             =   8.6111116689246E-20
(PID.TID 0000.0001) %MON dynstat_eta_sd               =   4.9088124461100E-05
(PID.TID 0000.0001) %MON dynstat_eta_del2             =   7.3358862684717E-08
(PID.TID 0000.0001) %MON dynstat_uvel_max             =   1.3461130347386E-04
(PID.TID 0000.0001) %MON dynstat_uvel_min             =  -6.5546208442374E-04
(PID.TID 0000.0001) %MON dynstat_uvel_mean            =   3.2802070537522E-07
(PID.TID 0000.0001) %MON dynstat_uvel_sd              =   6.8402309643571E-05
(PID.TID 0000.0001) %MON dynstat_uvel_del2            =   3.3050185648410E-08
(PID.TID 0000.0001) %MON dynstat_vvel_max             =   5.2742600462287E-04
(PID.TID 0000.0001) %MON dynstat_vvel_min             =  -1.1991276400818E-04
(PID.TID 0000.0001) %MON dynstat_vvel_mean            =   2.3748691852717E-10
(PID.TID 0000.0001) %MON dynstat_vvel_sd              =   1.9472168052313E-05
(PID.TID 0000.0001) %MON dynstat_vvel_del2            =   1.8209727894145E-08
(PID.TID 0000.0001) %MON dynstat_wvel_max             =   4.0002512581093E-06
(PID.TID 0000.0001) %MON dynstat_wvel_min             =  -4.3299759998285E-06
(PID.TID 0000.0001) %MON dynstat_wvel_mean            =   3.2013600494475E-13
(PID.TID 0000.0001) %MON dynstat_wvel_sd              =   1.9518047309816E-07
(PID.TID 0000.0001) %MON dynstat_wvel_del2            =   6.2271374845026E-10
(PID.TID 0000.0001) %MON dynstat_theta_max            =  -1.9000000000000E+00
(PID.TID 0000.0001) %MON dynstat_theta_min            =  -1.9413824475846E+00
(PID.TID 0000.0001) %MON dynstat_theta_mean           =  -1.9016458979163E+00
(PID.TID 0000.0001) %MON dynstat_theta_sd             =   4.8437974782912E-03
(PID.TID 0000.0001) %MON dynstat_theta_del2           =   1.1178293387799E-06
(PID.TID 0000.0001) %MON dynstat_salt_max             =   3.4400000000000E+01
(PID.TID 0000.0001) %MON dynstat_salt_min             =   3.4384744701120E+01
(PID.TID 0000.0001) %MON dynstat_salt_mean            =   3.4399392751247E+01
(PID.TID 0000.0001) %MON dynstat_salt_sd              =   1.7868123211144E-03
(PID.TID 0000.0001) %MON dynstat_salt_del2            =   4.1222647193370E-07
(PID.TID 0000.0001) %MON trAdv_CFL_u_max              =   1.8621442367967E-04
(PID.TID 0000.0001) %MON trAdv_CFL_v_max              =   8.5756731157310E-05
(PID.TID 0000.0001) %MON trAdv_CFL_w_max              =   2.5977559669790E-04
(PID.TID 0000.0001) %MON advcfl_uvel_max              =   1.8622478781691E-04
(PID.TID 0000.0001) %MON advcfl_vvel_max              =   8.5392011501740E-05
(PID.TID 0000.0001) %MON advcfl_wvel_max              =   2.5979855998971E-04
(PID.TID 0000.0001) %MON advcfl_W_hf_max              =   2.5979855998971E-04
(PID.TID 0000.0001) %MON pe_b_mean                    =  -1.4148481341346E-08
(PID.TID 0000.0001) %MON ke_max                       =   2.3581128918507E-07
(PID.TID 0000.0001) %MON ke_mean                      =   2.4791009856607E-09
(PID.TID 0000.0001) %MON ke_vol                       =   2.9241705273105E+14
(PID.TID 0000.0001) %MON vort_r_min                   =  -3.1930604110439E-08
(PID.TID 0000.0001) %MON vort_r_max                   =   8.1413701392428E-08
(PID.TID 0000.0001) %MON vort_a_mean                  =  -1.4007437454308E-04
(PID.TID 0000.0001) %MON vort_a_sd                    =   1.7682652582246E-06
(PID.TID 0000.0001) %MON vort_p_mean                  =  -1.5039772397104E-04
(PID.TID 0000.0001) %MON vort_p_sd                    =   8.7068335757456E-05
(PID.TID 0000.0001) %MON surfExpan_theta_mean         =   1.0751262414434E-14
(PID.TID 0000.0001) %MON surfExpan_salt_mean          =   3.9592120864483E-15
(PID.TID 0000.0001) // =======================================================
(PID.TID 0000.0001) // End MONITOR dynamic field statistics
(PID.TID 0000.0001) // =======================================================
 cg2d: Sum(rhs),rhsMax =  -7.68274333040608E-14  2.22881842632051E-04
(PID.TID 0000.0001)      cg2d_init_res =   1.23990646155236E-03
(PID.TID 0000.0001)      cg2d_iters(min,last) =      -1     178
(PID.TID 0000.0001)      cg2d_last_res =   9.06538919281243E-14
(PID.TID 0000.0001) // =======================================================
(PID.TID 0000.0001) // Begin MONITOR dynamic field statistics
(PID.TID 0000.0001) // =======================================================
(PID.TID 0000.0001) %MON time_tsnumber                =                  8653
(PID.TID 0000.0001) %MON time_secondsf                =   1.5575400000000E+07
(PID.TID 0000.0001) %MON dynstat_eta_max              =   1.0965423344895E-04
(PID.TID 0000.0001) %MON dynstat_eta_min              =  -3.3373124578107E-04
(PID.TID 0000.0001) %MON dynstat_eta_mean             =   9.8888036630773E-20
(PID.TID 0000.0001) %MON dynstat_eta_sd               =   4.9094011958636E-05
(PID.TID 0000.0001) %MON dynstat_eta_del2             =   7.3362729105739E-08
(PID.TID 0000.0001) %MON dynstat_uvel_max             =   1.3462195587647E-04
(PID.TID 0000.0001) %MON dynstat_uvel_min             =  -6.5549864282484E-04
(PID.TID 0000.0001) %MON dynstat_uvel_mean            =   3.2808977179325E-07
(PID.TID 0000.0001) %MON dynstat_uvel_sd              =   6.8407806392858E-05
(PID.TID 0000.0001) %MON dynstat_uvel_del2            =   3.3050819518166E-08
(PID.TID 0000.0001) %MON dynstat_vvel_max             =   5.2750801758514E-04
(PID.TID 0000.0001) %MON dynstat_vvel_min             =  -1.1992854695022E-04
(PID.TID 0000.0001) %MON dynstat_vvel_mean            =   2.3753037193080E-10
(PID.TID 0000.0001) %MON dynstat_vvel_sd              =   1.9476504854864E-05
(PID.TID 0000.0001) %MON dynstat_vvel_del2            =   1.8210908070254E-08
(PID.TID 0000.0001) %MON dynstat_wvel_max             =   4.0005256384192E-06
(PID.TID 0000.0001) %MON dynstat_wvel_min             =  -4.3303586911933E-06
(PID.TID 0000.0001) %MON dynstat_wvel_mean            =   3.2015941990160E-13
(PID.TID 0000.0001) %MON dynstat_wvel_sd              =   1.9519927916610E-07
(PID.TID 0000.0001) %MON dynstat_wvel_del2            =   6.2277430863008E-10
(PID.TID 0000.0001) %MON dynstat_theta_max            =  -1.9000000000000E+00
(PID.TID 0000.0001) %MON dynstat_theta_min            =  -1.9413850852726E+00
(PID.TID 0000.0001) %MON dynstat_theta_mean           =  -1.9016460801699E+00
(PID.TID 0000.0001) %MON dynstat_theta_sd             =   4.8442110404338E-03
(PID.TID 0000.0001) %MON dynstat_theta_del2           =   1.1178373424631E-06
(PID.TID 0000.0001) %MON dynstat_salt_max             =   3.4400000000000E+01
(PID.TID 0000.0001) %MON dynstat_salt_min             =   3.4384743728798E+01
(PID.TID 0000.0001) %MON dynstat_salt_mean            =   3.4399392684006E+01
(PID.TID 0000.0001) %MON dynstat_salt_sd              =   1.7869648806960E-03
(PID.TID 0000.0001) %MON dynstat_salt_del2            =   4.1222942292728E-07
(PID.TID 0000.0001) %MON trAdv_CFL_u_max              =   1.8622481145331E-04
(PID.TID 0000.0001) %MON trAdv_CFL_v_max              =   8.5770067518175E-05
(PID.TID 0000.0001) %MON trAdv_CFL_w_max              =   2.5979855998971E-04
(PID.TID 0000.0001) %MON advcfl_uvel_max              =   1.8623517450540E-04
(PID.TID 0000.0001) %MON advcfl_vvel_max              =   8.5405289671105E-05
(PID.TID 0000.0001) %MON advcfl_wvel_max              =   2.5982152147160E-04
(PID.TID 0000.0001) %MON advcfl_W_hf_max              =   2.5982152147160E-04
(PID.TID 0000.0001) %MON pe_b_mean                    =  -1.4148624850578E-08
(PID.TID 0000.0001) %MON ke_max                       =   2.3584720796740E-07
(PID.TID 0000.0001) %MON ke_mean                      =   2.4795528031315E-09
(PID.TID 0000.0001) %MON ke_vol                       =   2.9241705273105E+14
(PID.TID 0000.0001) %MON vort_r_min                   =  -3.1934337912160E-08
(PID.TID 0000.0001) %MON vort_r_max                   =   8.1426360948009E-08
(PID.TID 0000.0001) %MON vort_a_mean                  =  -1.4007437454350E-04
(PID.TID 0000.0001) %MON vort_a_sd                    =   1.7682652566238E-06
(PID.TID 0000.0001) %MON vort_p_mean                  =  -1.5039772397152E-04
(PID.TID 0000.0001) %MON vort_p_sd                    =   8.7068334729173E-05
(PID.TID 0000.0001) %MON surfExpan_theta_mean         =   1.0752628448183E-14
(PID.TID 0000.0001) %MON surfExpan_salt_mean          =   3.9597152513266E-15
(PID.TID 0000.0001) // =======================================================
(PID.TID 0000.0001) // End MONITOR dynamic field statistics
(PID.TID 0000.0001) // =======================================================
 cg2d: Sum(rhs),rhsMax =  -3.73034936274053E-14  2.22925560309940E-04
(PID.TID 0000.0001)      cg2d_init_res =   1.23974346037478E-03
(PID.TID 0000.0001)      cg2d_iters(min,last) =      -1     178
(PID.TID 0000.0001)      cg2d_last_res =   9.06495991055710E-14
(PID.TID 0000.0001) // =======================================================
(PID.TID 0000.0001) // Begin MONITOR dynamic field statistics
(PID.TID 0000.0001) // =======================================================
(PID.TID 0000.0001) %MON time_tsnumber                =                  8654
(PID.TID 0000.0001) %MON time_secondsf                =   1.5577200000000E+07
(PID.TID 0000.0001) %MON dynstat_eta_max              =   1.0966940639851E-04
(PID.TID 0000.0001) %MON dynstat_eta_min              =  -3.3376921987771E-04
(PID.TID 0000.0001) %MON dynstat_eta_mean             =   7.0938524258683E-20
(PID.TID 0000.0001) %MON dynstat_eta_sd               =   4.9099899451232E-05
(PID.TID 0000.0001) %MON dynstat_eta_del2             =   7.3366595554073E-08
(PID.TID 0000.0001) %MON dynstat_uvel_max             =   1.3463260722869E-04
(PID.TID 0000.0001) %MON dynstat_uvel_min             =  -6.5553519716830E-04
(PID.TID 0000.0001) %MON dynstat_uvel_mean            =   3.2815884523384E-07
(PID.TID 0000.0001) %MON dynstat_uvel_sd              =   6.8413302885789E-05
(PID.TID 0000.0001) %MON dynstat_uvel_del2            =   3.3051453332554E-08
(PID.TID 0000.0001) %MON dynstat_vvel_max             =   5.2759003421073E-04
(PID.TID 0000.0001) %MON dynstat_vvel_min             =  -1.1994432970089E-04
(PID.TID 0000.0001) %MON dynstat_vvel_mean            =   2.3757379048011E-10
(PID.TID 0000.0001) %MON dynstat_vvel_sd              =   1.9480842103784E-05
(PID.TID 0000.0001) %MON dynstat_vvel_del2            =   1.8212088497191E-08
(PID.TID 0000.0001) %MON dynstat_wvel_max             =   4.0007999900974E-06
(PID.TID 0000.0001) %MON dynstat_wvel_min             =  -4.3307413500942E-06
(PID.TID 0000.0001) %MON dynstat_wvel_mean            =   3.2018281665454E-13
(PID.TID 0000.0001) %MON dynstat_wvel_sd              =   1.9521808467309E-07
(PID.TID 0000.0001) %MON dynstat_wvel_del2            =   6.2283486827009E-10
(PID.TID 0000.0001) %MON dynstat_theta_max            =  -1.9000000000000E+00
(PID.TID 0000.0001) %MON dynstat_theta_min            =  -1.9413877227820E+00
(PID.TID 0000.0001) %MON dynstat_theta_mean           =  -1.9016462624220E+00
(PID.TID 0000.0001) %MON dynstat_theta_sd             =   4.8446245850650E-03
(PID.TID 0000.0001) %MON dynstat_theta_del2           =   1.1178453441088E-06
(PID.TID 0000.0001) %MON dynstat_salt_max             =   3.4400000000000E+01
(PID.TID 0000.0001) %MON dynstat_salt_min             =   3.4384742756542E+01
(PID.TID 0000.0001) %MON dynstat_salt_mean            =   3.4399392616766E+01
(PID.TID 0000.0001) %MON dynstat_salt_sd              =   1.7871174338173E-03
(PID.TID 0000.0001) %MON dynstat_salt_del2            =   4.1223237316959E-07
(PID.TID 0000.0001) %MON trAdv_CFL_u_max              =   1.8623519814312E-04
(PID.TID 0000.0001) %MON trAdv_CFL_v_max              =   8.5783404473973E-05
(PID.TID 0000.0001) %MON trAdv_CFL_w_max              =   2.5982152147160E-04
(PID.TID 0000.0001) %MON advcfl_uvel_max              =   1.8624556004106E-04
(PID.TID 0000.0001) %MON advcfl_vvel_max              =   8.5418568433575E-05
(PID.TID 0000.0001) %MON advcfl_wvel_max              =   2.5984448100565E-04
(PID.TID 0000.0001) %MON advcfl_W_hf_max              =   2.5984448100565E-04
(PID.TID 0000.0001) %MON pe_b_mean                    =  -1.4148768128450E-08
(PID.TID 0000.0001) %MON ke_max                       =   2.3588312880612E-07
(PID.TID 0000.0001) %MON ke_mean                      =   2.4800046602066E-09
(PID.TID 0000.0001) %MON ke_vol                       =   2.9241705273105E+14
(PID.TID 0000.0001) %MON vort_r_min                   =  -3.1938071788333E-08
(PID.TID 0000.0001) %MON vort_r_max                   =   8.1439021069062E-08
(PID.TID 0000.0001) %MON vort_a_mean                  =  -1.4007437454392E-04
(PID.TID 0000.0001) %MON vort_a_sd                    =   1.7682652550586E-06
(PID.TID 0000.0001) %MON vort_p_mean                  =  -1.5039772397199E-04
(PID.TID 0000.0001) %MON vort_p_sd                    =   8.7068333700926E-05
(PID.TID 0000.0001) %MON surfExpan_theta_mean         =   1.0753994498857E-14
(PID.TID 0000.0001) %MON surfExpan_salt_mean          =   3.9602183632700E-15
(PID.TID 0000.0001) // =======================================================
(PID.TID 0000.0001) // End MONITOR dynamic field statistics
(PID.TID 0000.0001) // =======================================================
 cg2d: Sum(rhs),rhsMax =  -5.14033260401447E-14  2.22969281352870E-04
(PID.TID 0000.0001)      cg2d_init_res =   1.23958037880560E-03
(PID.TID 0000.0001)      cg2d_iters(min,last) =      -1     178
(PID.TID 0000.0001)      cg2d_last_res =   9.06450927358798E-14
(PID.TID 0000.0001) // =======================================================
(PID.TID 0000.0001) // Begin MONITOR dynamic field statistics
(PID.TID 0000.0001) // =======================================================
(PID.TID 0000.0001) %MON time_tsnumber                =                  8655
(PID.TID 0000.0001) %MON time_secondsf                =   1.5579000000000E+07
(PID.TID 0000.0001) %MON dynstat_eta_max              =   1.0968457998471E-04
(PID.TID 0000.0001) %MON dynstat_eta_min              =  -3.3380719316154E-04
(PID.TID 0000.0001) %MON dynstat_eta_mean             =   8.1319771711174E-20
(PID.TID 0000.0001) %MON dynstat_eta_sd               =   4.9105786939053E-05
(PID.TID 0000.0001) %MON dynstat_eta_del2             =   7.3370462039124E-08
(PID.TID 0000.0001) %MON dynstat_uvel_max             =   1.3464325765385E-04
(PID.TID 0000.0001) %MON dynstat_uvel_min             =  -6.5557174780365E-04
(PID.TID 0000.0001) %MON dynstat_uvel_mean            =   3.2822792566101E-07
(PID.TID 0000.0001) %MON dynstat_uvel_sd              =   6.8418799122406E-05
(PID.TID 0000.0001) %MON dynstat_uvel_del2            =   3.3052087094627E-08
(PID.TID 0000.0001) %MON dynstat_vvel_max             =   5.2767205438752E-04
(PID.TID 0000.0001) %MON dynstat_vvel_min             =  -1.1996011225672E-04
(PID.TID 0000.0001) %MON dynstat_vvel_mean            =   2.3761703574319E-10
(PID.TID 0000.0001) %MON dynstat_vvel_sd              =   1.9485179798981E-05
(PID.TID 0000.0001) %MON dynstat_vvel_del2            =   1.8213269167104E-08
(PID.TID 0000.0001) %MON dynstat_wvel_max             =   4.0010743144801E-06
(PID.TID 0000.0001) %MON dynstat_wvel_min             =  -4.3311239743170E-06
(PID.TID 0000.0001) %MON dynstat_wvel_mean            =   3.2020622045390E-13
(PID.TID 0000.0001) %MON dynstat_wvel_sd              =   1.9523688961639E-07
(PID.TID 0000.0001) %MON dynstat_wvel_del2            =   6.2289542719488E-10
(PID.TID 0000.0001) %MON dynstat_theta_max            =  -1.9000000000000E+00
(PID.TID 0000.0001) %MON dynstat_theta_min            =  -1.9413903601129E+00
(PID.TID 0000.0001) %MON dynstat_theta_mean           =  -1.9016464446727E+00
(PID.TID 0000.0001) %MON dynstat_theta_sd             =   4.8450381121866E-03
(PID.TID 0000.0001) %MON dynstat_theta_del2           =   1.1178533437176E-06
(PID.TID 0000.0001) %MON dynstat_salt_max             =   3.4400000000000E+01
(PID.TID 0000.0001) %MON dynstat_salt_min             =   3.4384741784352E+01
(PID.TID 0000.0001) %MON dynstat_salt_mean            =   3.4399392549527E+01
(PID.TID 0000.0001) %MON dynstat_salt_sd              =   1.7872699804790E-03
(PID.TID 0000.0001) %MON dynstat_salt_del2            =   4.1223532266076E-07
(PID.TID 0000.0001) %MON trAdv_CFL_u_max              =   1.8624558368010E-04
(PID.TID 0000.0001) %MON trAdv_CFL_v_max              =   8.5796742025503E-05
(PID.TID 0000.0001) %MON trAdv_CFL_w_max              =   2.5984448100565E-04
(PID.TID 0000.0001) %MON advcfl_uvel_max              =   1.8625594452321E-04
(PID.TID 0000.0001) %MON advcfl_vvel_max              =   8.5431847770996E-05
(PID.TID 0000.0001) %MON advcfl_wvel_max              =   2.5986743845902E-04
(PID.TID 0000.0001) %MON advcfl_W_hf_max              =   2.5986743845902E-04
(PID.TID 0000.0001) %MON pe_b_mean                    =  -1.4148911174838E-08
(PID.TID 0000.0001) %MON ke_max                       =   2.3591905173782E-07
(PID.TID 0000.0001) %MON ke_mean                      =   2.4804565568888E-09
(PID.TID 0000.0001) %MON ke_vol                       =   2.9241705273105E+14
(PID.TID 0000.0001) %MON vort_r_min                   =  -3.1941805733659E-08
(PID.TID 0000.0001) %MON vort_r_max                   =   8.1451681738279E-08
(PID.TID 0000.0001) %MON vort_a_mean                  =  -1.4007437454434E-04
(PID.TID 0000.0001) %MON vort_a_sd                    =   1.7682652535055E-06
(PID.TID 0000.0001) %MON vort_p_mean                  =  -1.5039772397247E-04
(PID.TID 0000.0001) %MON vort_p_sd                    =   8.7068332672715E-05
(PID.TID 0000.0001) %MON surfExpan_theta_mean         =   1.0755360913531E-14
(PID.TID 0000.0001) %MON surfExpan_salt_mean          =   3.9607216282978E-15
(PID.TID 0000.0001) // =======================================================
(PID.TID 0000.0001) // End MONITOR dynamic field statistics
(PID.TID 0000.0001) // =======================================================
 cg2d: Sum(rhs),rhsMax =  -5.93969318174459E-14  2.23013006177528E-04
(PID.TID 0000.0001)      cg2d_init_res =   1.23942193896565E-03
(PID.TID 0000.0001)      cg2d_iters(min,last) =      -1     178
(PID.TID 0000.0001)      cg2d_last_res =   9.06406392803104E-14
(PID.TID 0000.0001) // =======================================================
(PID.TID 0000.0001) // Begin MONITOR dynamic field statistics
(PID.TID 0000.0001) // =======================================================
(PID.TID 0000.0001) %MON time_tsnumber                =                  8656
(PID.TID 0000.0001) %MON time_secondsf                =   1.5580800000000E+07
(PID.TID 0000.0001) %MON dynstat_eta_max              =   1.0969975426969E-04
(PID.TID 0000.0001) %MON dynstat_eta_min              =  -3.3384516573498E-04
(PID.TID 0000.0001) %MON dynstat_eta_mean             =   7.9190285054253E-20
(PID.TID 0000.0001) %MON dynstat_eta_sd               =   4.9111674421985E-05
(PID.TID 0000.0001) %MON dynstat_eta_del2             =   7.3374328575890E-08
(PID.TID 0000.0001) %MON dynstat_uvel_max             =   1.3465390713641E-04
(PID.TID 0000.0001) %MON dynstat_uvel_min             =  -6.5560829446908E-04
(PID.TID 0000.0001) %MON dynstat_uvel_mean            =   3.2829701318736E-07
(PID.TID 0000.0001) %MON dynstat_uvel_sd              =   6.8424295102708E-05
(PID.TID 0000.0001) %MON dynstat_uvel_del2            =   3.3052720803404E-08
(PID.TID 0000.0001) %MON dynstat_vvel_max             =   5.2775407823597E-04
(PID.TID 0000.0001) %MON dynstat_vvel_min             =  -1.1997589468576E-04
(PID.TID 0000.0001) %MON dynstat_vvel_mean            =   2.3766040616819E-10
(PID.TID 0000.0001) %MON dynstat_vvel_sd              =   1.9489517940438E-05
(PID.TID 0000.0001) %MON dynstat_vvel_del2            =   1.8214450084638E-08
(PID.TID 0000.0001) %MON dynstat_wvel_max             =   4.0013486100493E-06
(PID.TID 0000.0001) %MON dynstat_wvel_min             =  -4.3315065677061E-06
(PID.TID 0000.0001) %MON dynstat_wvel_mean            =   3.2022960350686E-13
(PID.TID 0000.0001) %MON dynstat_wvel_sd              =   1.9525569399827E-07
(PID.TID 0000.0001) %MON dynstat_wvel_del2            =   6.2295598551817E-10
(PID.TID 0000.0001) %MON dynstat_theta_max            =  -1.9000000000000E+00
(PID.TID 0000.0001) %MON dynstat_theta_min            =  -1.9413929972654E+00
(PID.TID 0000.0001) %MON dynstat_theta_mean           =  -1.9016466269219E+00
(PID.TID 0000.0001) %MON dynstat_theta_sd             =   4.8454516218008E-03
(PID.TID 0000.0001) %MON dynstat_theta_del2           =   1.1178613412901E-06
(PID.TID 0000.0001) %MON dynstat_salt_max             =   3.4400000000000E+01
(PID.TID 0000.0001) %MON dynstat_salt_min             =   3.4384740812228E+01
(PID.TID 0000.0001) %MON dynstat_salt_mean            =   3.4399392482288E+01
(PID.TID 0000.0001) %MON dynstat_salt_sd              =   1.7874225206820E-03
(PID.TID 0000.0001) %MON dynstat_salt_del2            =   4.1223827140088E-07
(PID.TID 0000.0001) %MON trAdv_CFL_u_max              =   1.8625596816356E-04
(PID.TID 0000.0001) %MON trAdv_CFL_v_max              =   8.5810080154528E-05
(PID.TID 0000.0001) %MON trAdv_CFL_w_max              =   2.5986743845902E-04
(PID.TID 0000.0001) %MON advcfl_uvel_max              =   1.8626632787745E-04
(PID.TID 0000.0001) %MON advcfl_vvel_max              =   8.5445127702870E-05
(PID.TID 0000.0001) %MON advcfl_wvel_max              =   2.5989039406237E-04
(PID.TID 0000.0001) %MON advcfl_W_hf_max              =   2.5989039406237E-04
(PID.TID 0000.0001) %MON pe_b_mean                    =  -1.4149053989816E-08
(PID.TID 0000.0001) %MON ke_max                       =   2.3595497668687E-07
(PID.TID 0000.0001) %MON ke_mean                      =   2.4809084931794E-09
(PID.TID 0000.0001) %MON ke_vol                       =   2.9241705273105E+14
(PID.TID 0000.0001) %MON vort_r_min                   =  -3.1945539749569E-08
(PID.TID 0000.0001) %MON vort_r_max                   =   8.1464342974256E-08
(PID.TID 0000.0001) %MON vort_a_mean                  =  -1.4007437454475E-04
(PID.TID 0000.0001) %MON vort_a_sd                    =   1.7682652520581E-06
(PID.TID 0000.0001) %MON vort_p_mean                  =  -1.5039772397294E-04
(PID.TID 0000.0001) %MON vort_p_sd                    =   8.7068331644542E-05
(PID.TID 0000.0001) %MON surfExpan_theta_mean         =   1.0756726024005E-14
(PID.TID 0000.0001) %MON surfExpan_salt_mean          =   3.9612244413413E-15
(PID.TID 0000.0001) // =======================================================
(PID.TID 0000.0001) // End MONITOR dynamic field statistics
(PID.TID 0000.0001) // =======================================================
 cg2d: Sum(rhs),rhsMax =  -6.16173778666962E-14  2.23056734047511E-04
(PID.TID 0000.0001)      cg2d_init_res =   1.23925947492386E-03
(PID.TID 0000.0001)      cg2d_iters(min,last) =      -1     178
(PID.TID 0000.0001)      cg2d_last_res =   9.06360663522278E-14
(PID.TID 0000.0001) // =======================================================
(PID.TID 0000.0001) // Begin MONITOR dynamic field statistics
(PID.TID 0000.0001) // =======================================================
(PID.TID 0000.0001) %MON time_tsnumber                =                  8657
(PID.TID 0000.0001) %MON time_secondsf                =   1.5582600000000E+07
(PID.TID 0000.0001) %MON dynstat_eta_max              =   1.0971492922039E-04
(PID.TID 0000.0001) %MON dynstat_eta_min              =  -3.3388313751213E-04
(PID.TID 0000.0001) %MON dynstat_eta_mean             =   8.3183072535980E-20
(PID.TID 0000.0001) %MON dynstat_eta_sd               =   4.9117561900037E-05
(PID.TID 0000.0001) %MON dynstat_eta_del2             =   7.3378195158609E-08
(PID.TID 0000.0001) %MON dynstat_uvel_max             =   1.3466455558842E-04
(PID.TID 0000.0001) %MON dynstat_uvel_min             =  -6.5564483727781E-04
(PID.TID 0000.0001) %MON dynstat_uvel_mean            =   3.2836610771551E-07
(PID.TID 0000.0001) %MON dynstat_uvel_sd              =   6.8429790826858E-05
(PID.TID 0000.0001) %MON dynstat_uvel_del2            =   3.3053354458720E-08
(PID.TID 0000.0001) %MON dynstat_vvel_max             =   5.2783610575768E-04
(PID.TID 0000.0001) %MON dynstat_vvel_min             =  -1.1999167687570E-04
(PID.TID 0000.0001) %MON dynstat_vvel_mean            =   2.3770372010089E-10
(PID.TID 0000.0001) %MON dynstat_vvel_sd              =   1.9493856528148E-05
(PID.TID 0000.0001) %MON dynstat_vvel_del2            =   1.8215631246485E-08
(PID.TID 0000.0001) %MON dynstat_wvel_max             =   4.0016228776723E-06
(PID.TID 0000.0001) %MON dynstat_wvel_min             =  -4.3318891282946E-06
(PID.TID 0000.0001) %MON dynstat_wvel_mean            =   3.2025300051701E-13
(PID.TID 0000.0001) %MON dynstat_wvel_sd              =   1.9527449781672E-07
(PID.TID 0000.0001) %MON dynstat_wvel_del2            =   6.2301654302446E-10
(PID.TID 0000.0001) %MON dynstat_theta_max            =  -1.9000000000000E+00
(PID.TID 0000.0001) %MON dynstat_theta_min            =  -1.9413956342395E+00
(PID.TID 0000.0001) %MON dynstat_theta_mean           =  -1.9016468091695E+00
(PID.TID 0000.0001) %MON dynstat_theta_sd             =   4.8458651139098E-03
(PID.TID 0000.0001) %MON dynstat_theta_del2           =   1.1178693368268E-06
(PID.TID 0000.0001) %MON dynstat_salt_max             =   3.4400000000000E+01
(PID.TID 0000.0001) %MON dynstat_salt_min             =   3.4384739840170E+01
(PID.TID 0000.0001) %MON dynstat_salt_mean            =   3.4399392415050E+01
(PID.TID 0000.0001) %MON dynstat_salt_sd              =   1.7875750544271E-03
(PID.TID 0000.0001) %MON dynstat_salt_del2            =   4.1224121939031E-07
(PID.TID 0000.0001) %MON trAdv_CFL_u_max              =   1.8626635151913E-04
(PID.TID 0000.0001) %MON trAdv_CFL_v_max              =   8.5823418880640E-05
(PID.TID 0000.0001) %MON trAdv_CFL_w_max              =   2.5989039406237E-04
(PID.TID 0000.0001) %MON advcfl_uvel_max              =   1.8627671013596E-04
(PID.TID 0000.0001) %MON advcfl_vvel_max              =   8.5458408229458E-05
(PID.TID 0000.0001) %MON advcfl_wvel_max              =   2.5991334769767E-04
(PID.TID 0000.0001) %MON advcfl_W_hf_max              =   2.5991334769767E-04
(PID.TID 0000.0001) %MON pe_b_mean                    =  -1.4149196573258E-08
(PID.TID 0000.0001) %MON ke_max                       =   2.3599090373443E-07
(PID.TID 0000.0001) %MON ke_mean                      =   2.4813604690907E-09
(PID.TID 0000.0001) %MON ke_vol                       =   2.9241705273105E+14
(PID.TID 0000.0001) %MON vort_r_min                   =  -3.1949273837946E-08
(PID.TID 0000.0001) %MON vort_r_max                   =   8.1477004777239E-08
(PID.TID 0000.0001) %MON vort_a_mean                  =  -1.4007437454517E-04
(PID.TID 0000.0001) %MON vort_a_sd                    =   1.7682652504892E-06
(PID.TID 0000.0001) %MON vort_p_mean                  =  -1.5039772397341E-04
(PID.TID 0000.0001) %MON vort_p_sd                    =   8.7068330616403E-05
(PID.TID 0000.0001) %MON surfExpan_theta_mean         =   1.0758092229684E-14
(PID.TID 0000.0001) %MON surfExpan_salt_mean          =   3.9617276433641E-15
(PID.TID 0000.0001) // =======================================================
(PID.TID 0000.0001) // End MONITOR dynamic field statistics
(PID.TID 0000.0001) // =======================================================
 cg2d: Sum(rhs),rhsMax =  -4.89608353859694E-14  2.23100465618804E-04
(PID.TID 0000.0001)      cg2d_init_res =   1.23909663451996E-03
(PID.TID 0000.0001)      cg2d_iters(min,last) =      -1     178
(PID.TID 0000.0001)      cg2d_last_res =   9.06318218286013E-14
(PID.TID 0000.0001) // =======================================================
(PID.TID 0000.0001) // Begin MONITOR dynamic field statistics
(PID.TID 0000.0001) // =======================================================
(PID.TID 0000.0001) %MON time_tsnumber                =                  8658
(PID.TID 0000.0001) %MON time_secondsf                =   1.5584400000000E+07
(PID.TID 0000.0001) %MON dynstat_eta_max              =   1.0973010484924E-04
(PID.TID 0000.0001) %MON dynstat_eta_min              =  -3.3392110853169E-04
(PID.TID 0000.0001) %MON dynstat_eta_mean             =   9.4629063316930E-20
(PID.TID 0000.0001) %MON dynstat_eta_sd               =   4.9123449372701E-05
(PID.TID 0000.0001) %MON dynstat_eta_del2             =   7.3382061768441E-08
(PID.TID 0000.0001) %MON dynstat_uvel_max             =   1.3467520313831E-04
(PID.TID 0000.0001) %MON dynstat_uvel_min             =  -6.5568137635730E-04
(PID.TID 0000.0001) %MON dynstat_uvel_mean            =   3.2843520926964E-07
(PID.TID 0000.0001) %MON dynstat_uvel_sd              =   6.8435286294777E-05
(PID.TID 0000.0001) %MON dynstat_uvel_del2            =   3.3053988062369E-08
(PID.TID 0000.0001) %MON dynstat_vvel_max             =   5.2791813687726E-04
(PID.TID 0000.0001) %MON dynstat_vvel_min             =  -1.2000745892587E-04
(PID.TID 0000.0001) %MON dynstat_vvel_mean            =   2.3774708046288E-10
(PID.TID 0000.0001) %MON dynstat_vvel_sd              =   1.9498195562054E-05
(PID.TID 0000.0001) %MON dynstat_vvel_del2            =   1.8216812654147E-08
(PID.TID 0000.0001) %MON dynstat_wvel_max             =   4.0018971170061E-06
(PID.TID 0000.0001) %MON dynstat_wvel_min             =  -4.3322716566565E-06
(PID.TID 0000.0001) %MON dynstat_wvel_mean            =   3.2027636984280E-13
(PID.TID 0000.0001) %MON dynstat_wvel_sd              =   1.9529330106651E-07
(PID.TID 0000.0001) %MON dynstat_wvel_del2            =   6.2307709971844E-10
(PID.TID 0000.0001) %MON dynstat_theta_max            =  -1.9000000000000E+00
(PID.TID 0000.0001) %MON dynstat_theta_min            =  -1.9413982710352E+00
(PID.TID 0000.0001) %MON dynstat_theta_mean           =  -1.9016469914157E+00
(PID.TID 0000.0001) %MON dynstat_theta_sd             =   4.8462785885157E-03
(PID.TID 0000.0001) %MON dynstat_theta_del2           =   1.1178773303283E-06
(PID.TID 0000.0001) %MON dynstat_salt_max             =   3.4400000000000E+01
(PID.TID 0000.0001) %MON dynstat_salt_min             =   3.4384738868177E+01
(PID.TID 0000.0001) %MON dynstat_salt_mean            =   3.4399392347812E+01
(PID.TID 0000.0001) %MON dynstat_salt_sd              =   1.7877275817150E-03
(PID.TID 0000.0001) %MON dynstat_salt_del2            =   4.1224416662935E-07
(PID.TID 0000.0001) %MON trAdv_CFL_u_max              =   1.8627673377895E-04
(PID.TID 0000.0001) %MON trAdv_CFL_v_max              =   8.5836758204097E-05
(PID.TID 0000.0001) %MON trAdv_CFL_w_max              =   2.5991334769767E-04
(PID.TID 0000.0001) %MON advcfl_uvel_max              =   1.8628709133494E-04
(PID.TID 0000.0001) %MON advcfl_vvel_max              =   8.5471689338553E-05
(PID.TID 0000.0001) %MON advcfl_wvel_max              =   2.5993629939939E-04
(PID.TID 0000.0001) %MON advcfl_W_hf_max              =   2.5993629939939E-04
(PID.TID 0000.0001) %MON pe_b_mean                    =  -1.4149338925322E-08
(PID.TID 0000.0001) %MON ke_max                       =   2.3602683283364E-07
(PID.TID 0000.0001) %MON ke_mean                      =   2.4818124846179E-09
(PID.TID 0000.0001) %MON ke_vol                       =   2.9241705273105E+14
(PID.TID 0000.0001) %MON vort_r_min                   =  -3.1953008000208E-08
(PID.TID 0000.0001) %MON vort_r_max                   =   8.1489667135590E-08
(PID.TID 0000.0001) %MON vort_a_mean                  =  -1.4007437454559E-04
(PID.TID 0000.0001) %MON vort_a_sd                    =   1.7682652489866E-06
(PID.TID 0000.0001) %MON vort_p_mean                  =  -1.5039772397389E-04
(PID.TID 0000.0001) %MON vort_p_sd                    =   8.7068329588300E-05
(PID.TID 0000.0001) %MON surfExpan_theta_mean         =   1.0759457557815E-14
(PID.TID 0000.0001) %MON surfExpan_salt_mean          =   3.9622305264227E-15
(PID.TID 0000.0001) // =======================================================
(PID.TID 0000.0001) // End MONITOR dynamic field statistics
(PID.TID 0000.0001) // =======================================================
 cg2d: Sum(rhs),rhsMax =  -3.23074900165921E-14  2.23144200391436E-04
(PID.TID 0000.0001)      cg2d_init_res =   1.23893632169106E-03
(PID.TID 0000.0001)      cg2d_iters(min,last) =      -1     178
(PID.TID 0000.0001)      cg2d_last_res =   9.06273362191502E-14
(PID.TID 0000.0001) // =======================================================
(PID.TID 0000.0001) // Begin MONITOR dynamic field statistics
(PID.TID 0000.0001) // =======================================================
(PID.TID 0000.0001) %MON time_tsnumber                =                  8659
(PID.TID 0000.0001) %MON time_secondsf                =   1.5586200000000E+07
(PID.TID 0000.0001) %MON dynstat_eta_max              =   1.0974528115791E-04
(PID.TID 0000.0001) %MON dynstat_eta_min              =  -3.3395907882209E-04
(PID.TID 0000.0001) %MON dynstat_eta_mean             =   8.1186678795116E-20
(PID.TID 0000.0001) %MON dynstat_eta_sd               =   4.9129336840882E-05
(PID.TID 0000.0001) %MON dynstat_eta_del2             =   7.3385928432014E-08
(PID.TID 0000.0001) %MON dynstat_uvel_max             =   1.3468584967781E-04
(PID.TID 0000.0001) %MON dynstat_uvel_min             =  -6.5571791152970E-04
(PID.TID 0000.0001) %MON dynstat_uvel_mean            =   3.2850431781529E-07
(PID.TID 0000.0001) %MON dynstat_uvel_sd              =   6.8440781506527E-05
(PID.TID 0000.0001) %MON dynstat_uvel_del2            =   3.3054621612324E-08
(PID.TID 0000.0001) %MON dynstat_vvel_max             =   5.2800017165217E-04
(PID.TID 0000.0001) %MON dynstat_vvel_min             =  -1.2002324079515E-04
(PID.TID 0000.0001) %MON dynstat_vvel_mean            =   2.3779019320763E-10
(PID.TID 0000.0001) %MON dynstat_vvel_sd              =   1.9502535042204E-05
(PID.TID 0000.0001) %MON dynstat_vvel_del2            =   1.8217994308966E-08
(PID.TID 0000.0001) %MON dynstat_wvel_max             =   4.0021713295058E-06
(PID.TID 0000.0001) %MON dynstat_wvel_min             =  -4.3326541529247E-06
(PID.TID 0000.0001) %MON dynstat_wvel_mean            =   3.2029971250124E-13
(PID.TID 0000.0001) %MON dynstat_wvel_sd              =   1.9531210377241E-07
(PID.TID 0000.0001) %MON dynstat_wvel_del2            =   6.2313765604165E-10
(PID.TID 0000.0001) %MON dynstat_theta_max            =  -1.9000000000000E+00
(PID.TID 0000.0001) %MON dynstat_theta_min            =  -1.9414009076525E+00
(PID.TID 0000.0001) %MON dynstat_theta_mean           =  -1.9016471736605E+00
(PID.TID 0000.0001) %MON dynstat_theta_sd             =   4.8466920456207E-03
(PID.TID 0000.0001) %MON dynstat_theta_del2           =   1.1178853217953E-06
(PID.TID 0000.0001) %MON dynstat_salt_max             =   3.4400000000000E+01
(PID.TID 0000.0001) %MON dynstat_salt_min             =   3.4384737896250E+01
(PID.TID 0000.0001) %MON dynstat_salt_mean            =   3.4399392280575E+01
(PID.TID 0000.0001) %MON dynstat_salt_sd              =   1.7878801025466E-03
(PID.TID 0000.0001) %MON dynstat_salt_del2            =   4.1224711311794E-07
(PID.TID 0000.0001) %MON trAdv_CFL_u_max              =   1.8628711497925E-04
(PID.TID 0000.0001) %MON trAdv_CFL_v_max              =   8.5850098112641E-05
(PID.TID 0000.0001) %MON trAdv_CFL_w_max              =   2.5993629939939E-04
(PID.TID 0000.0001) %MON advcfl_uvel_max              =   1.8629747142387E-04
(PID.TID 0000.0001) %MON advcfl_vvel_max              =   8.5484971039457E-05
(PID.TID 0000.0001) %MON advcfl_wvel_max              =   2.5995924917548E-04
(PID.TID 0000.0001) %MON advcfl_W_hf_max              =   2.5995924917548E-04
(PID.TID 0000.0001) %MON pe_b_mean                    =  -1.4149481046413E-08
(PID.TID 0000.0001) %MON ke_max                       =   2.3606276401324E-07
(PID.TID 0000.0001) %MON ke_mean                      =   2.4822645397676E-09
(PID.TID 0000.0001) %MON ke_vol                       =   2.9241705273105E+14
(PID.TID 0000.0001) %MON vort_r_min                   =  -3.1956742230943E-08
(PID.TID 0000.0001) %MON vort_r_max                   =   8.1502330058180E-08
(PID.TID 0000.0001) %MON vort_a_mean                  =  -1.4007437454601E-04
(PID.TID 0000.0001) %MON vort_a_sd                    =   1.7682652474672E-06
(PID.TID 0000.0001) %MON vort_p_mean                  =  -1.5039772397436E-04
(PID.TID 0000.0001) %MON vort_p_sd                    =   8.7068328560234E-05
(PID.TID 0000.0001) %MON surfExpan_theta_mean         =   1.0760821624649E-14
(PID.TID 0000.0001) %MON surfExpan_salt_mean          =   3.9627329537394E-15
(PID.TID 0000.0001) // =======================================================
(PID.TID 0000.0001) // End MONITOR dynamic field statistics
(PID.TID 0000.0001) // =======================================================
 cg2d: Sum(rhs),rhsMax =  -6.66133814775094E-14  2.23187938387207E-04
(PID.TID 0000.0001)      cg2d_init_res =   1.23877597975345E-03
(PID.TID 0000.0001)      cg2d_iters(min,last) =      -1     178
(PID.TID 0000.0001)      cg2d_last_res =   9.06227556349402E-14
(PID.TID 0000.0001) // =======================================================
(PID.TID 0000.0001) // Begin MONITOR dynamic field statistics
(PID.TID 0000.0001) // =======================================================
(PID.TID 0000.0001) %MON time_tsnumber                =                  8660
(PID.TID 0000.0001) %MON time_secondsf                =   1.5588000000000E+07
(PID.TID 0000.0001) %MON dynstat_eta_max              =   1.0976045809610E-04
(PID.TID 0000.0001) %MON dynstat_eta_min              =  -3.3399704829768E-04
(PID.TID 0000.0001) %MON dynstat_eta_mean             =   8.0920492963001E-20
(PID.TID 0000.0001) %MON dynstat_eta_sd               =   4.9135224303811E-05
(PID.TID 0000.0001) %MON dynstat_eta_del2             =   7.3389795137054E-08
(PID.TID 0000.0001) %MON dynstat_uvel_max             =   1.3469649521980E-04
(PID.TID 0000.0001) %MON dynstat_uvel_min             =  -6.5575444275226E-04
(PID.TID 0000.0001) %MON dynstat_uvel_mean            =   3.2857343344518E-07
(PID.TID 0000.0001) %MON dynstat_uvel_sd              =   6.8446276462205E-05
(PID.TID 0000.0001) %MON dynstat_uvel_del2            =   3.3055255109384E-08
(PID.TID 0000.0001) %MON dynstat_vvel_max             =   5.2808221008561E-04
(PID.TID 0000.0001) %MON dynstat_vvel_min             =  -1.2003902246080E-04
(PID.TID 0000.0001) %MON dynstat_vvel_mean            =   2.3783351319940E-10
(PID.TID 0000.0001) %MON dynstat_vvel_sd              =   1.9506874968477E-05
(PID.TID 0000.0001) %MON dynstat_vvel_del2            =   1.8219176209565E-08
(PID.TID 0000.0001) %MON dynstat_wvel_max             =   4.0024455134648E-06
(PID.TID 0000.0001) %MON dynstat_wvel_min             =  -4.3330366181859E-06
(PID.TID 0000.0001) %MON dynstat_wvel_mean            =   3.2032305224499E-13
(PID.TID 0000.0001) %MON dynstat_wvel_sd              =   1.9533090590388E-07
(PID.TID 0000.0001) %MON dynstat_wvel_del2            =   6.2319821150105E-10
(PID.TID 0000.0001) %MON dynstat_theta_max            =  -1.9000000000000E+00
(PID.TID 0000.0001) %MON dynstat_theta_min            =  -1.9414035440915E+00
(PID.TID 0000.0001) %MON dynstat_theta_mean           =  -1.9016473559037E+00
(PID.TID 0000.0001) %MON dynstat_theta_sd             =   4.8471054852268E-03
(PID.TID 0000.0001) %MON dynstat_theta_del2           =   1.1178933112283E-06
(PID.TID 0000.0001) %MON dynstat_salt_max             =   3.4400000000000E+01
(PID.TID 0000.0001) %MON dynstat_salt_min             =   3.4384736924389E+01
(PID.TID 0000.0001) %MON dynstat_salt_mean            =   3.4399392213339E+01
(PID.TID 0000.0001) %MON dynstat_salt_sd              =   1.7880326169227E-03
(PID.TID 0000.0001) %MON dynstat_salt_del2            =   4.1225005885655E-07
(PID.TID 0000.0001) %MON trAdv_CFL_u_max              =   1.8629749506950E-04
(PID.TID 0000.0001) %MON trAdv_CFL_v_max              =   8.5863438615614E-05
(PID.TID 0000.0001) %MON trAdv_CFL_w_max              =   2.5995924917548E-04
(PID.TID 0000.0001) %MON advcfl_uvel_max              =   1.8630785039061E-04
(PID.TID 0000.0001) %MON advcfl_vvel_max              =   8.5498253332690E-05
(PID.TID 0000.0001) %MON advcfl_wvel_max              =   2.5998219709116E-04
(PID.TID 0000.0001) %MON advcfl_W_hf_max              =   2.5998219709116E-04
(PID.TID 0000.0001) %MON pe_b_mean                    =  -1.4149622936398E-08
(PID.TID 0000.0001) %MON ke_max                       =   2.3609869719583E-07
(PID.TID 0000.0001) %MON ke_mean                      =   2.4827166345458E-09
(PID.TID 0000.0001) %MON ke_vol                       =   2.9241705273105E+14
(PID.TID 0000.0001) %MON vort_r_min                   =  -3.1960476530917E-08
(PID.TID 0000.0001) %MON vort_r_max                   =   8.1514993545503E-08
(PID.TID 0000.0001) %MON vort_a_mean                  =  -1.4007437454643E-04
(PID.TID 0000.0001) %MON vort_a_sd                    =   1.7682652459619E-06
(PID.TID 0000.0001) %MON vort_p_mean                  =  -1.5039772397483E-04
(PID.TID 0000.0001) %MON vort_p_sd                    =   8.7068327532203E-05
(PID.TID 0000.0001) %MON surfExpan_theta_mean         =   1.0762185955121E-14
(PID.TID 0000.0001) %MON surfExpan_salt_mean          =   3.9632354604654E-15
(PID.TID 0000.0001) // =======================================================
(PID.TID 0000.0001) // End MONITOR dynamic field statistics
(PID.TID 0000.0001) // =======================================================
(PID.TID 0000.0001) %CHECKPOINT      8660 ckptA
(PID.TID 0000.0001)   Seconds in section "ALL                    [THE_MODEL_MAIN]":
(PID.TID 0000.0001)           User time:   52.581006615422666
(PID.TID 0000.0001)         System time:  0.22196599841117859
(PID.TID 0000.0001)     Wall clock time:   72.004657983779907
(PID.TID 0000.0001)          No. starts:           1
(PID.TID 0000.0001)           No. stops:           1
(PID.TID 0000.0001)   Seconds in section "INITIALISE_FIXED       [THE_MODEL_MAIN]":
(PID.TID 0000.0001)           User time:  0.72488999599590898
(PID.TID 0000.0001)         System time:  8.89860019087791443E-002
(PID.TID 0000.0001)     Wall clock time:   11.446956872940063
(PID.TID 0000.0001)          No. starts:           1
(PID.TID 0000.0001)           No. stops:           1
(PID.TID 0000.0001)   Seconds in section "THE_MAIN_LOOP          [THE_MODEL_MAIN]":
(PID.TID 0000.0001)           User time:   51.852119266986847
(PID.TID 0000.0001)         System time:  0.13197999447584152
(PID.TID 0000.0001)     Wall clock time:   60.553380966186523
(PID.TID 0000.0001)          No. starts:           1
(PID.TID 0000.0001)           No. stops:           1
(PID.TID 0000.0001)   Seconds in section "INITIALISE_VARIA    [THE_MAIN_LOOP]":
(PID.TID 0000.0001)           User time:  0.81987601518630981
(PID.TID 0000.0001)         System time:  9.29859951138496399E-002
(PID.TID 0000.0001)     Wall clock time:   4.2641351222991943
(PID.TID 0000.0001)          No. starts:           1
(PID.TID 0000.0001)           No. stops:           1
(PID.TID 0000.0001)   Seconds in section "MAIN LOOP           [THE_MAIN_LOOP]":
(PID.TID 0000.0001)           User time:   51.032243251800537
(PID.TID 0000.0001)         System time:  3.89939993619918823E-002
(PID.TID 0000.0001)     Wall clock time:   56.289181947708130
(PID.TID 0000.0001)          No. starts:           1
(PID.TID 0000.0001)           No. stops:           1
(PID.TID 0000.0001)   Seconds in section "MAIN_DO_LOOP        [THE_MAIN_LOOP]":
(PID.TID 0000.0001)           User time:   51.032243251800537
(PID.TID 0000.0001)         System time:  3.89939993619918823E-002
(PID.TID 0000.0001)     Wall clock time:   56.288989782333374
(PID.TID 0000.0001)          No. starts:          20
(PID.TID 0000.0001)           No. stops:          20
(PID.TID 0000.0001)   Seconds in section "FORWARD_STEP        [MAIN_DO_LOOP]":
(PID.TID 0000.0001)           User time:   51.032243251800537
(PID.TID 0000.0001)         System time:  3.89939993619918823E-002
(PID.TID 0000.0001)     Wall clock time:   56.288622617721558
(PID.TID 0000.0001)          No. starts:          20
(PID.TID 0000.0001)           No. stops:          20
(PID.TID 0000.0001)   Seconds in section "DO_STATEVARS_DIAGS  [FORWARD_STEP]":
(PID.TID 0000.0001)           User time:   2.3066555261611938
(PID.TID 0000.0001)         System time:   0.0000000000000000
(PID.TID 0000.0001)     Wall clock time:   2.3182790279388428
(PID.TID 0000.0001)          No. starts:          40
(PID.TID 0000.0001)           No. stops:          40
(PID.TID 0000.0001)   Seconds in section "LOAD_FIELDS_DRIVER  [FORWARD_STEP]":
(PID.TID 0000.0001)           User time:  1.99890136718750000E-003
(PID.TID 0000.0001)         System time:   0.0000000000000000
(PID.TID 0000.0001)     Wall clock time:  5.84840774536132813E-004
(PID.TID 0000.0001)          No. starts:          20
(PID.TID 0000.0001)           No. stops:          20
(PID.TID 0000.0001)   Seconds in section "EXTERNAL_FLDS_LOAD [LOAD_FLDS_DRIVER]":
(PID.TID 0000.0001)           User time:   0.0000000000000000
(PID.TID 0000.0001)         System time:   0.0000000000000000
(PID.TID 0000.0001)     Wall clock time:  1.90973281860351563E-004
(PID.TID 0000.0001)          No. starts:          20
(PID.TID 0000.0001)           No. stops:          20
(PID.TID 0000.0001)   Seconds in section "DO_ATMOSPHERIC_PHYS [FORWARD_STEP]":
(PID.TID 0000.0001)           User time:  9.99450683593750000E-004
(PID.TID 0000.0001)         System time:   0.0000000000000000
(PID.TID 0000.0001)     Wall clock time:  1.93119049072265625E-004
(PID.TID 0000.0001)          No. starts:          20
(PID.TID 0000.0001)           No. stops:          20
(PID.TID 0000.0001)   Seconds in section "DO_OCEANIC_PHYS     [FORWARD_STEP]":
(PID.TID 0000.0001)           User time:   2.2116545438766479
(PID.TID 0000.0001)         System time:  2.99900770187377930E-003
(PID.TID 0000.0001)     Wall clock time:   2.2225410938262939
(PID.TID 0000.0001)          No. starts:          20
(PID.TID 0000.0001)           No. stops:          20
(PID.TID 0000.0001)   Seconds in section "SHELFICE_THERMODYNAMICS [DO_OCEANIC_PHYS]":
(PID.TID 0000.0001)           User time:  0.12198591232299805
(PID.TID 0000.0001)         System time:   0.0000000000000000
(PID.TID 0000.0001)     Wall clock time:  0.12531137466430664
(PID.TID 0000.0001)          No. starts:          20
(PID.TID 0000.0001)           No. stops:          20
(PID.TID 0000.0001)   Seconds in section "THERMODYNAMICS      [FORWARD_STEP]":
(PID.TID 0000.0001)           User time:   12.186147212982178
(PID.TID 0000.0001)         System time:  1.00000202655792236E-003
(PID.TID 0000.0001)     Wall clock time:   12.211058616638184
(PID.TID 0000.0001)          No. starts:          20
(PID.TID 0000.0001)           No. stops:          20
(PID.TID 0000.0001)   Seconds in section "DYNAMICS            [FORWARD_STEP]":
(PID.TID 0000.0001)           User time:   17.786297559738159
(PID.TID 0000.0001)         System time:   0.0000000000000000
(PID.TID 0000.0001)     Wall clock time:   17.831860303878784
(PID.TID 0000.0001)          No. starts:          20
(PID.TID 0000.0001)           No. stops:          20
(PID.TID 0000.0001)   Seconds in section "UPDATE_SURF_DR      [FORWARD_STEP]":
(PID.TID 0000.0001)           User time:  2.29973793029785156E-002
(PID.TID 0000.0001)         System time:   0.0000000000000000
(PID.TID 0000.0001)     Wall clock time:  2.32450962066650391E-002
(PID.TID 0000.0001)          No. starts:          20
(PID.TID 0000.0001)           No. stops:          20
(PID.TID 0000.0001)   Seconds in section "UPDATE_CG2D         [FORWARD_STEP]":
(PID.TID 0000.0001)           User time:  0.36794781684875488
(PID.TID 0000.0001)         System time:   0.0000000000000000
(PID.TID 0000.0001)     Wall clock time:  0.36790013313293457
(PID.TID 0000.0001)          No. starts:          20
(PID.TID 0000.0001)           No. stops:          20
(PID.TID 0000.0001)   Seconds in section "SOLVE_FOR_PRESSURE  [FORWARD_STEP]":
(PID.TID 0000.0001)           User time:   8.4657139778137207
(PID.TID 0000.0001)         System time:   0.0000000000000000
(PID.TID 0000.0001)     Wall clock time:   8.4891269207000732
(PID.TID 0000.0001)          No. starts:          20
(PID.TID 0000.0001)           No. stops:          20
(PID.TID 0000.0001)   Seconds in section "MOM_CORRECTION_STEP [FORWARD_STEP]":
(PID.TID 0000.0001)           User time:  0.60190677642822266
(PID.TID 0000.0001)         System time:   0.0000000000000000
(PID.TID 0000.0001)     Wall clock time:  0.60208177566528320
(PID.TID 0000.0001)          No. starts:          20
(PID.TID 0000.0001)           No. stops:          20
(PID.TID 0000.0001)   Seconds in section "INTEGR_CONTINUITY   [FORWARD_STEP]":
(PID.TID 0000.0001)           User time:   1.0678405761718750
(PID.TID 0000.0001)         System time:   0.0000000000000000
(PID.TID 0000.0001)     Wall clock time:   1.0699176788330078
(PID.TID 0000.0001)          No. starts:          20
(PID.TID 0000.0001)           No. stops:          20
(PID.TID 0000.0001)   Seconds in section "CALC_SURF_DR      [FORWARD_STEP]":
(PID.TID 0000.0001)           User time:  4.99866008758544922E-002
(PID.TID 0000.0001)         System time:   0.0000000000000000
(PID.TID 0000.0001)     Wall clock time:  4.72075939178466797E-002
(PID.TID 0000.0001)          No. starts:          20
(PID.TID 0000.0001)           No. stops:          20
(PID.TID 0000.0001)   Seconds in section "TRC_CORRECTION_STEP [FORWARD_STEP]":
(PID.TID 0000.0001)           User time:   0.0000000000000000
(PID.TID 0000.0001)         System time:   0.0000000000000000
(PID.TID 0000.0001)     Wall clock time:  2.17676162719726563E-004
(PID.TID 0000.0001)          No. starts:          20
(PID.TID 0000.0001)           No. stops:          20
(PID.TID 0000.0001)   Seconds in section "BLOCKING_EXCHANGES  [FORWARD_STEP]":
(PID.TID 0000.0001)           User time:  0.51792597770690918
(PID.TID 0000.0001)         System time:   0.0000000000000000
(PID.TID 0000.0001)     Wall clock time:  0.51880550384521484
(PID.TID 0000.0001)          No. starts:          20
(PID.TID 0000.0001)           No. stops:          20
(PID.TID 0000.0001)   Seconds in section "MONITOR             [FORWARD_STEP]":
(PID.TID 0000.0001)           User time:   5.0662269592285156
(PID.TID 0000.0001)         System time:  9.99987125396728516E-004
(PID.TID 0000.0001)     Wall clock time:   5.0784373283386230
(PID.TID 0000.0001)          No. starts:          20
(PID.TID 0000.0001)           No. stops:          20
(PID.TID 0000.0001)   Seconds in section "DO_THE_MODEL_IO     [FORWARD_STEP]":
(PID.TID 0000.0001)           User time:  0.29295539855957031
(PID.TID 0000.0001)         System time:  2.39960104227066040E-002
(PID.TID 0000.0001)     Wall clock time:   5.4121012687683105
(PID.TID 0000.0001)          No. starts:          20
(PID.TID 0000.0001)           No. stops:          20
(PID.TID 0000.0001)   Seconds in section "DO_WRITE_PICKUP     [FORWARD_STEP]":
(PID.TID 0000.0001)           User time:  7.99903869628906250E-002
(PID.TID 0000.0001)         System time:  9.99899208545684814E-003
(PID.TID 0000.0001)     Wall clock time:  9.11755561828613281E-002
(PID.TID 0000.0001)          No. starts:          20
(PID.TID 0000.0001)           No. stops:          20
(PID.TID 0000.0001) // ======================================================
(PID.TID 0000.0001) // Tile <-> Tile communication statistics
(PID.TID 0000.0001) // ======================================================
(PID.TID 0000.0001) // o Tile number: 000001
(PID.TID 0000.0001) //         No. X exchanges =              0
(PID.TID 0000.0001) //            Max. X spins =              0
(PID.TID 0000.0001) //            Min. X spins =     1000000000
(PID.TID 0000.0001) //          Total. X spins =              0
(PID.TID 0000.0001) //            Avg. X spins =       0.00E+00
(PID.TID 0000.0001) //         No. Y exchanges =              0
(PID.TID 0000.0001) //            Max. Y spins =              0
(PID.TID 0000.0001) //            Min. Y spins =     1000000000
(PID.TID 0000.0001) //          Total. Y spins =              0
(PID.TID 0000.0001) //            Avg. Y spins =       0.00E+00
(PID.TID 0000.0001) // o Tile number: 000002
(PID.TID 0000.0001) //         No. X exchanges =              0
(PID.TID 0000.0001) //            Max. X spins =              0
(PID.TID 0000.0001) //            Min. X spins =     1000000000
(PID.TID 0000.0001) //          Total. X spins =              0
(PID.TID 0000.0001) //            Avg. X spins =       0.00E+00
(PID.TID 0000.0001) //         No. Y exchanges =              0
(PID.TID 0000.0001) //            Max. Y spins =              0
(PID.TID 0000.0001) //            Min. Y spins =     1000000000
(PID.TID 0000.0001) //          Total. Y spins =              0
(PID.TID 0000.0001) //            Avg. Y spins =       0.00E+00
(PID.TID 0000.0001) // o Tile number: 000003
(PID.TID 0000.0001) //         No. X exchanges =              0
(PID.TID 0000.0001) //            Max. X spins =              0
(PID.TID 0000.0001) //            Min. X spins =     1000000000
(PID.TID 0000.0001) //          Total. X spins =              0
(PID.TID 0000.0001) //            Avg. X spins =       0.00E+00
(PID.TID 0000.0001) //         No. Y exchanges =              0
(PID.TID 0000.0001) //            Max. Y spins =              0
(PID.TID 0000.0001) //            Min. Y spins =     1000000000
(PID.TID 0000.0001) //          Total. Y spins =              0
(PID.TID 0000.0001) //            Avg. Y spins =       0.00E+00
(PID.TID 0000.0001) // o Tile number: 000004
(PID.TID 0000.0001) //         No. X exchanges =              0
(PID.TID 0000.0001) //            Max. X spins =              0
(PID.TID 0000.0001) //            Min. X spins =     1000000000
(PID.TID 0000.0001) //          Total. X spins =              0
(PID.TID 0000.0001) //            Avg. X spins =       0.00E+00
(PID.TID 0000.0001) //         No. Y exchanges =              0
(PID.TID 0000.0001) //            Max. Y spins =              0
(PID.TID 0000.0001) //            Min. Y spins =     1000000000
(PID.TID 0000.0001) //          Total. Y spins =              0
(PID.TID 0000.0001) //            Avg. Y spins =       0.00E+00
(PID.TID 0000.0001) // o Tile number: 000005
(PID.TID 0000.0001) //         No. X exchanges =              0
(PID.TID 0000.0001) //            Max. X spins =              0
(PID.TID 0000.0001) //            Min. X spins =     1000000000
(PID.TID 0000.0001) //          Total. X spins =              0
(PID.TID 0000.0001) //            Avg. X spins =       0.00E+00
(PID.TID 0000.0001) //         No. Y exchanges =              0
(PID.TID 0000.0001) //            Max. Y spins =              0
(PID.TID 0000.0001) //            Min. Y spins =     1000000000
(PID.TID 0000.0001) //          Total. Y spins =              0
(PID.TID 0000.0001) //            Avg. Y spins =       0.00E+00
(PID.TID 0000.0001) // o Tile number: 000006
(PID.TID 0000.0001) //         No. X exchanges =              0
(PID.TID 0000.0001) //            Max. X spins =              0
(PID.TID 0000.0001) //            Min. X spins =     1000000000
(PID.TID 0000.0001) //          Total. X spins =              0
(PID.TID 0000.0001) //            Avg. X spins =       0.00E+00
(PID.TID 0000.0001) //         No. Y exchanges =              0
(PID.TID 0000.0001) //            Max. Y spins =              0
(PID.TID 0000.0001) //            Min. Y spins =     1000000000
(PID.TID 0000.0001) //          Total. Y spins =              0
(PID.TID 0000.0001) //            Avg. Y spins =       0.00E+00
(PID.TID 0000.0001) // o Tile number: 000007
(PID.TID 0000.0001) //         No. X exchanges =              0
(PID.TID 0000.0001) //            Max. X spins =              0
(PID.TID 0000.0001) //            Min. X spins =     1000000000
(PID.TID 0000.0001) //          Total. X spins =              0
(PID.TID 0000.0001) //            Avg. X spins =       0.00E+00
(PID.TID 0000.0001) //         No. Y exchanges =              0
(PID.TID 0000.0001) //            Max. Y spins =              0
(PID.TID 0000.0001) //            Min. Y spins =     1000000000
(PID.TID 0000.0001) //          Total. Y spins =              0
(PID.TID 0000.0001) //            Avg. Y spins =       0.00E+00
(PID.TID 0000.0001) // o Tile number: 000008
(PID.TID 0000.0001) //         No. X exchanges =              0
(PID.TID 0000.0001) //            Max. X spins =              0
(PID.TID 0000.0001) //            Min. X spins =     1000000000
(PID.TID 0000.0001) //          Total. X spins =              0
(PID.TID 0000.0001) //            Avg. X spins =       0.00E+00
(PID.TID 0000.0001) //         No. Y exchanges =              0
(PID.TID 0000.0001) //            Max. Y spins =              0
(PID.TID 0000.0001) //            Min. Y spins =     1000000000
(PID.TID 0000.0001) //          Total. Y spins =              0
(PID.TID 0000.0001) //            Avg. Y spins =       0.00E+00
(PID.TID 0000.0001) // o Thread number: 000001
(PID.TID 0000.0001) //            No. barriers =          24940
(PID.TID 0000.0001) //      Max. barrier spins =              1
(PID.TID 0000.0001) //      Min. barrier spins =              1
(PID.TID 0000.0001) //     Total barrier spins =          24940
(PID.TID 0000.0001) //      Avg. barrier spins =       1.00E+00
PROGRAM MAIN: Execution ended Normally
