(PID.TID 0000.0001) 
(PID.TID 0000.0001) // ======================================================
(PID.TID 0000.0001) //                      MITgcm UV
(PID.TID 0000.0001) //                      =========
(PID.TID 0000.0001) // ======================================================
(PID.TID 0000.0001) // execution environment starting up...
(PID.TID 0000.0001) 
(PID.TID 0000.0001) // MITgcmUV version:  checkpoint65i
(PID.TID 0000.0001) // Build user:        jmc
(PID.TID 0000.0001) // Build host:        baudelaire
(PID.TID 0000.0001) // Build date:        Wed Feb  4 18:59:26 EST 2015
(PID.TID 0000.0001) 
(PID.TID 0000.0001) // =======================================================
(PID.TID 0000.0001) // Execution Environment parameter file "eedata"
(PID.TID 0000.0001) // =======================================================
(PID.TID 0000.0001) ># Example "eedata" file
(PID.TID 0000.0001) ># Lines beginning "#" are comments
(PID.TID 0000.0001) ># nTx - No. threads per process in X
(PID.TID 0000.0001) ># nTy - No. threads per process in Y
(PID.TID 0000.0001) > &EEPARMS
(PID.TID 0000.0001) > /
(PID.TID 0000.0001) ># Note: Some systems use & as the
(PID.TID 0000.0001) ># namelist terminator. Other systems
(PID.TID 0000.0001) ># use a / character (as shown here).
(PID.TID 0000.0001) 
(PID.TID 0000.0001) // =======================================================
(PID.TID 0000.0001) // Computational Grid Specification ( see files "SIZE.h" )
(PID.TID 0000.0001) //                                  ( and "eedata"       )
(PID.TID 0000.0001) // =======================================================
(PID.TID 0000.0001)      nPx =    1 ; /* No. processes in X */
(PID.TID 0000.0001)      nPy =    1 ; /* No. processes in Y */
(PID.TID 0000.0001)      nSx =    2 ; /* No. tiles in X per process */
(PID.TID 0000.0001)      nSy =    4 ; /* No. tiles in Y per process */
(PID.TID 0000.0001)      sNx =   25 ; /* Tile size in X */
(PID.TID 0000.0001)      sNy =   25 ; /* Tile size in Y */
(PID.TID 0000.0001)      OLx =    3 ; /* Tile overlap distance in X */
(PID.TID 0000.0001)      OLy =    3 ; /* Tile overlap distance in Y */
(PID.TID 0000.0001)      nTx =    1 ; /* No. threads in X per process */
(PID.TID 0000.0001)      nTy =    1 ; /* No. threads in Y per process */
(PID.TID 0000.0001)       Nr =   30 ; /* No. levels in the vertical   */
(PID.TID 0000.0001)       Nx =   50 ; /* Total domain size in X ( = nPx*nSx*sNx ) */
(PID.TID 0000.0001)       Ny =  100 ; /* Total domain size in Y ( = nPy*nSy*sNy ) */
(PID.TID 0000.0001)   nTiles =    8 ; /* Total no. tiles per process ( = nSx*nSy ) */
(PID.TID 0000.0001)   nProcs =    1 ; /* Total no. processes ( = nPx*nPy ) */
(PID.TID 0000.0001) nThreads =    1 ; /* Total no. threads per process ( = nTx*nTy ) */
(PID.TID 0000.0001) usingMPI =    F ; /* Flag used to control whether MPI is in use */
(PID.TID 0000.0001)                   /*  note: To execute a program with MPI calls */
(PID.TID 0000.0001)                   /*  it must be launched appropriately e.g     */
(PID.TID 0000.0001)                   /*  "mpirun -np 64 ......"                    */
(PID.TID 0000.0001) useCoupler=    F ;/* Flag used to control communications with   */
(PID.TID 0000.0001)                   /*  other model components, through a coupler */
(PID.TID 0000.0001) debugMode =    F ; /* print debug msg. (sequence of S/R calls)  */
(PID.TID 0000.0001) printMapIncludesZeros=    F ; /* print zeros in Std.Output maps */
(PID.TID 0000.0001) maxLengthPrt1D=   65 /* maxLength of 1D array printed to StdOut */
(PID.TID 0000.0001) 
(PID.TID 0000.0001) // ======================================================
(PID.TID 0000.0001) // Mapping of tiles to threads
(PID.TID 0000.0001) // ======================================================
(PID.TID 0000.0001) // -o- Thread   1, tiles (   1:   2,   1:   4)
(PID.TID 0000.0001) 
(PID.TID 0000.0001) // ======================================================
(PID.TID 0000.0001) // Tile <-> Tile connectvity table
(PID.TID 0000.0001) // ======================================================
(PID.TID 0000.0001) // Tile number: 000001 (process no. = 000000)
(PID.TID 0000.0001) //        WEST: Tile = 000002, Process = 000000, Comm = put
(PID.TID 0000.0001) //                bi = 000002, bj = 000001
(PID.TID 0000.0001) //        EAST: Tile = 000002, Process = 000000, Comm = put
(PID.TID 0000.0001) //                bi = 000002, bj = 000001
(PID.TID 0000.0001) //       SOUTH: Tile = 000007, Process = 000000, Comm = put
(PID.TID 0000.0001) //                bi = 000001, bj = 000004
(PID.TID 0000.0001) //       NORTH: Tile = 000003, Process = 000000, Comm = put
(PID.TID 0000.0001) //                bi = 000001, bj = 000002
(PID.TID 0000.0001) // Tile number: 000002 (process no. = 000000)
(PID.TID 0000.0001) //        WEST: Tile = 000001, Process = 000000, Comm = put
(PID.TID 0000.0001) //                bi = 000001, bj = 000001
(PID.TID 0000.0001) //        EAST: Tile = 000001, Process = 000000, Comm = put
(PID.TID 0000.0001) //                bi = 000001, bj = 000001
(PID.TID 0000.0001) //       SOUTH: Tile = 000008, Process = 000000, Comm = put
(PID.TID 0000.0001) //                bi = 000002, bj = 000004
(PID.TID 0000.0001) //       NORTH: Tile = 000004, Process = 000000, Comm = put
(PID.TID 0000.0001) //                bi = 000002, bj = 000002
(PID.TID 0000.0001) // Tile number: 000003 (process no. = 000000)
(PID.TID 0000.0001) //        WEST: Tile = 000004, Process = 000000, Comm = put
(PID.TID 0000.0001) //                bi = 000002, bj = 000002
(PID.TID 0000.0001) //        EAST: Tile = 000004, Process = 000000, Comm = put
(PID.TID 0000.0001) //                bi = 000002, bj = 000002
(PID.TID 0000.0001) //       SOUTH: Tile = 000001, Process = 000000, Comm = put
(PID.TID 0000.0001) //                bi = 000001, bj = 000001
(PID.TID 0000.0001) //       NORTH: Tile = 000005, Process = 000000, Comm = put
(PID.TID 0000.0001) //                bi = 000001, bj = 000003
(PID.TID 0000.0001) // Tile number: 000004 (process no. = 000000)
(PID.TID 0000.0001) //        WEST: Tile = 000003, Process = 000000, Comm = put
(PID.TID 0000.0001) //                bi = 000001, bj = 000002
(PID.TID 0000.0001) //        EAST: Tile = 000003, Process = 000000, Comm = put
(PID.TID 0000.0001) //                bi = 000001, bj = 000002
(PID.TID 0000.0001) //       SOUTH: Tile = 000002, Process = 000000, Comm = put
(PID.TID 0000.0001) //                bi = 000002, bj = 000001
(PID.TID 0000.0001) //       NORTH: Tile = 000006, Process = 000000, Comm = put
(PID.TID 0000.0001) //                bi = 000002, bj = 000003
(PID.TID 0000.0001) // Tile number: 000005 (process no. = 000000)
(PID.TID 0000.0001) //        WEST: Tile = 000006, Process = 000000, Comm = put
(PID.TID 0000.0001) //                bi = 000002, bj = 000003
(PID.TID 0000.0001) //        EAST: Tile = 000006, Process = 000000, Comm = put
(PID.TID 0000.0001) //                bi = 000002, bj = 000003
(PID.TID 0000.0001) //       SOUTH: Tile = 000003, Process = 000000, Comm = put
(PID.TID 0000.0001) //                bi = 000001, bj = 000002
(PID.TID 0000.0001) //       NORTH: Tile = 000007, Process = 000000, Comm = put
(PID.TID 0000.0001) //                bi = 000001, bj = 000004
(PID.TID 0000.0001) // Tile number: 000006 (process no. = 000000)
(PID.TID 0000.0001) //        WEST: Tile = 000005, Process = 000000, Comm = put
(PID.TID 0000.0001) //                bi = 000001, bj = 000003
(PID.TID 0000.0001) //        EAST: Tile = 000005, Process = 000000, Comm = put
(PID.TID 0000.0001) //                bi = 000001, bj = 000003
(PID.TID 0000.0001) //       SOUTH: Tile = 000004, Process = 000000, Comm = put
(PID.TID 0000.0001) //                bi = 000002, bj = 000002
(PID.TID 0000.0001) //       NORTH: Tile = 000008, Process = 000000, Comm = put
(PID.TID 0000.0001) //                bi = 000002, bj = 000004
(PID.TID 0000.0001) // Tile number: 000007 (process no. = 000000)
(PID.TID 0000.0001) //        WEST: Tile = 000008, Process = 000000, Comm = put
(PID.TID 0000.0001) //                bi = 000002, bj = 000004
(PID.TID 0000.0001) //        EAST: Tile = 000008, Process = 000000, Comm = put
(PID.TID 0000.0001) //                bi = 000002, bj = 000004
(PID.TID 0000.0001) //       SOUTH: Tile = 000005, Process = 000000, Comm = put
(PID.TID 0000.0001) //                bi = 000001, bj = 000003
(PID.TID 0000.0001) //       NORTH: Tile = 000001, Process = 000000, Comm = put
(PID.TID 0000.0001) //                bi = 000001, bj = 000001
(PID.TID 0000.0001) // Tile number: 000008 (process no. = 000000)
(PID.TID 0000.0001) //        WEST: Tile = 000007, Process = 000000, Comm = put
(PID.TID 0000.0001) //                bi = 000001, bj = 000004
(PID.TID 0000.0001) //        EAST: Tile = 000007, Process = 000000, Comm = put
(PID.TID 0000.0001) //                bi = 000001, bj = 000004
(PID.TID 0000.0001) //       SOUTH: Tile = 000006, Process = 000000, Comm = put
(PID.TID 0000.0001) //                bi = 000002, bj = 000003
(PID.TID 0000.0001) //       NORTH: Tile = 000002, Process = 000000, Comm = put
(PID.TID 0000.0001) //                bi = 000002, bj = 000001
(PID.TID 0000.0001) 
(PID.TID 0000.0001)  INI_PARMS: opening model parameter file "data"
(PID.TID 0000.0001)  OPEN_COPY_DATA_FILE: opening file data
(PID.TID 0000.0001) // =======================================================
(PID.TID 0000.0001) // Parameter file "data"
(PID.TID 0000.0001) // =======================================================
(PID.TID 0000.0001) ># ====================
(PID.TID 0000.0001) ># | Model parameters |
(PID.TID 0000.0001) ># ====================
(PID.TID 0000.0001) >#
(PID.TID 0000.0001) ># Continuous equation parameters
(PID.TID 0000.0001) > &PARM01
(PID.TID 0000.0001) > Tref = 30*-1.9,
(PID.TID 0000.0001) > Sref = 30*34.4,
(PID.TID 0000.0001) > viscAz=1.E-3,
(PID.TID 0000.0001) > viscAh=600.0,
(PID.TID 0000.0001) > no_slip_sides=.FALSE.,
(PID.TID 0000.0001) > no_slip_bottom=.FALSE.,
(PID.TID 0000.0001) > diffKhT=100.0,
(PID.TID 0000.0001) > diffKzT=5.E-5,
(PID.TID 0000.0001) > diffKhS=100.0,
(PID.TID 0000.0001) > diffKzS=5.E-5,
(PID.TID 0000.0001) > bottomDragQuadratic=2.5E-3,
(PID.TID 0000.0001) > eosType='JMD95Z',
(PID.TID 0000.0001) > HeatCapacity_cp = 3974.0,
(PID.TID 0000.0001) > rhoConst=1030.,
(PID.TID 0000.0001) > rhoNil=1030.,
(PID.TID 0000.0001) > gravity=9.81,
(PID.TID 0000.0001) > convertFW2Salt = 33.4,
(PID.TID 0000.0001) > rigidLid=.FALSE.,
(PID.TID 0000.0001) > implicitFreeSurface=.TRUE.,
(PID.TID 0000.0001) > exactConserv=.TRUE.,
(PID.TID 0000.0001) > hFacMin=0.05,
(PID.TID 0000.0001) > nonHydrostatic=.FALSE.,
(PID.TID 0000.0001) > readBinaryPrec=64,
(PID.TID 0000.0001) > useCDScheme = .TRUE.,
(PID.TID 0000.0001) > /
(PID.TID 0000.0001) >
(PID.TID 0000.0001) ># Elliptic solver parameters
(PID.TID 0000.0001) > &PARM02
(PID.TID 0000.0001) > cg2dMaxIters=1000,
(PID.TID 0000.0001) > cg2dTargetResidual=1.E-13,
(PID.TID 0000.0001) > cg3dMaxIters=400,
(PID.TID 0000.0001) > cg3dTargetResidual=1.E-13,
(PID.TID 0000.0001) > /
(PID.TID 0000.0001) >
(PID.TID 0000.0001) ># Time stepping parameters
(PID.TID 0000.0001) > &PARM03
(PID.TID 0000.0001) > nIter0=0,
(PID.TID 0000.0001) > nTimeSteps=20,
(PID.TID 0000.0001) > deltaT=1800.0,
(PID.TID 0000.0001) > abEps=0.1,
(PID.TID 0000.0001) > cAdjFreq = -1.,
(PID.TID 0000.0001) > tauCD = 400000.,
(PID.TID 0000.0001) > pChkptFreq=0.0,
(PID.TID 0000.0001) > chkptFreq=0.0,
(PID.TID 0000.0001) > dumpFreq=0.0,
(PID.TID 0000.0001) > taveFreq=0.0,
(PID.TID 0000.0001) > monitorFreq=1.,
(PID.TID 0000.0001) > monitorSelect=2,
(PID.TID 0000.0001) > /
(PID.TID 0000.0001) >
(PID.TID 0000.0001) ># Gridding parameters
(PID.TID 0000.0001) > &PARM04
(PID.TID 0000.0001) > usingSphericalPolarGrid=.TRUE.,
(PID.TID 0000.0001) > ygOrigin = -80.0,
(PID.TID 0000.0001) > delX=50*0.3,
(PID.TID 0000.0001) > delY=100*0.1,
(PID.TID 0000.0001) > delZ=30*30.0,
(PID.TID 0000.0001) > /
(PID.TID 0000.0001) >
(PID.TID 0000.0001) ># Input datasets
(PID.TID 0000.0001) > &PARM05
(PID.TID 0000.0001) > bathyFile='bathy.box',
(PID.TID 0000.0001) > /
(PID.TID 0000.0001) 
(PID.TID 0000.0001)  INI_PARMS ; starts to read PARM01
(PID.TID 0000.0001)  INI_PARMS ; read PARM01 : OK
(PID.TID 0000.0001)  INI_PARMS ; starts to read PARM02
(PID.TID 0000.0001)  INI_PARMS ; read PARM02 : OK
(PID.TID 0000.0001)  INI_PARMS ; starts to read PARM03
(PID.TID 0000.0001)  INI_PARMS ; read PARM03 : OK
(PID.TID 0000.0001)  INI_PARMS ; starts to read PARM04
(PID.TID 0000.0001)  INI_PARMS ; read PARM04 : OK
(PID.TID 0000.0001)  INI_PARMS ; starts to read PARM05
(PID.TID 0000.0001)  INI_PARMS ; read PARM05 : OK
(PID.TID 0000.0001)  INI_PARMS: finished reading file "data"
(PID.TID 0000.0001)  PACKAGES_BOOT: opening data.pkg
(PID.TID 0000.0001)  OPEN_COPY_DATA_FILE: opening file data.pkg
(PID.TID 0000.0001) // =======================================================
(PID.TID 0000.0001) // Parameter file "data.pkg"
(PID.TID 0000.0001) // =======================================================
(PID.TID 0000.0001) ># Packages
(PID.TID 0000.0001) > &PACKAGES
(PID.TID 0000.0001) > useDiagnostics = .TRUE.,
(PID.TID 0000.0001) > useShelfIce=.true.,
(PID.TID 0000.0001) > useIcefront=.true.,
(PID.TID 0000.0001) > /
(PID.TID 0000.0001) 
(PID.TID 0000.0001)  PACKAGES_BOOT: finished reading data.pkg
(PID.TID 0000.0001)  PACKAGES_BOOT: On/Off package Summary
 --------  pkgs with a standard "usePKG" On/Off switch in "data.pkg":  --------
 pkg/kpp                  compiled but not used ( useKPP                   = F )
 pkg/shelfice             compiled   and   used ( useShelfIce              = T )
 pkg/icefront             compiled   and   used ( useICEFRONT              = T )
 pkg/diagnostics          compiled   and   used ( useDiagnostics           = T )
 pkg/mnc                  compiled but not used ( useMNC                   = F )
 -------- pkgs without standard "usePKG" On/Off switch in "data.pkg":  --------
 pkg/generic_advdiff      compiled   and   used ( useGAD                   = T )
 pkg/mom_common           compiled   and   used ( momStepping              = T )
 pkg/mom_vecinv           compiled but not used ( +vectorInvariantMomentum = F )
 pkg/mom_fluxform         compiled   and   used ( & not vectorInvariantMom = T )
 pkg/cd_code              compiled   and   used ( useCDscheme              = T )
 pkg/monitor              compiled   and   used ( monitorFreq > 0.         = T )
 pkg/timeave              compiled but not used ( taveFreq > 0.            = F )
 pkg/debug                compiled but not used ( debugMode                = F )
 pkg/rw                   compiled   and   used
 pkg/mdsio                compiled   and   used
(PID.TID 0000.0001)  PACKAGES_BOOT: End of package Summary
(PID.TID 0000.0001) 
(PID.TID 0000.0001)  SHELFICE_READPARMS: opening data.shelfice
(PID.TID 0000.0001)  OPEN_COPY_DATA_FILE: opening file data.shelfice
(PID.TID 0000.0001) // =======================================================
(PID.TID 0000.0001) // Parameter file "data.shelfice"
(PID.TID 0000.0001) // =======================================================
(PID.TID 0000.0001) ># ===================================
(PID.TID 0000.0001) ># | Parameters for SHELFICE package |
(PID.TID 0000.0001) ># ===================================
(PID.TID 0000.0001) > &SHELFICE_PARM01
(PID.TID 0000.0001) > SHELFICEboundaryLayer = .TRUE.,
(PID.TID 0000.0001) > SHELFICEtopoFile='icetopo.exp1',
(PID.TID 0000.0001) > SHELFICEloadAnomalyFile = 'phi0surf.exp1.jmd95z',
(PID.TID 0000.0001) > SHELFICEconserve = .true.,
(PID.TID 0000.0001) > useISOMIPTD = .FALSE.,
(PID.TID 0000.0001) > no_slip_shelfice = .false.,
(PID.TID 0000.0001) > SHELFICEwriteState = .TRUE.,
(PID.TID 0000.0001) > /
(PID.TID 0000.0001) 
(PID.TID 0000.0001)  SHELFICE_READPARMS: finished reading data.shelfice
(PID.TID 0000.0001)  ICEFRONT_READPARMS: opening data.icefront
(PID.TID 0000.0001)  OPEN_COPY_DATA_FILE: opening file data.icefront
(PID.TID 0000.0001) // =======================================================
(PID.TID 0000.0001) // Parameter file "data.icefront"
(PID.TID 0000.0001) // =======================================================
(PID.TID 0000.0001) ># ===================================
(PID.TID 0000.0001) ># | Parameters for ICEFRONT package |
(PID.TID 0000.0001) ># ===================================
(PID.TID 0000.0001) > &ICEFRONT_PARM01
(PID.TID 0000.0001) > ICEFRONTdepthFile='frontdepth.xuyun',
(PID.TID 0000.0001) > ICEFRONTlengthFile = 'frontcircum.xuyun',
(PID.TID 0000.0001) > applyIcefrontTendT = .true.,
(PID.TID 0000.0001) > applyIcefrontTendS = .true.,
(PID.TID 0000.0001) > /
(PID.TID 0000.0001) 
(PID.TID 0000.0001)  ICEFRONT_READPARMS: finished reading data.icefront
(PID.TID 0000.0001)  DIAGNOSTICS_READPARMS: opening data.diagnostics
(PID.TID 0000.0001)  OPEN_COPY_DATA_FILE: opening file data.diagnostics
(PID.TID 0000.0001) // =======================================================
(PID.TID 0000.0001) // Parameter file "data.diagnostics"
(PID.TID 0000.0001) // =======================================================
(PID.TID 0000.0001) ># Diagnostic Package Choices
(PID.TID 0000.0001) >#--------------------
(PID.TID 0000.0001) >#  dumpAtLast (logical): always write output at the end of simulation (default=F)
(PID.TID 0000.0001) >#  diag_mnc   (logical): write to NetCDF files (default=useMNC)
(PID.TID 0000.0001) >#--for each output-stream:
(PID.TID 0000.0001) >#  fileName(n) : prefix of the output file name (max 80c long) for outp.stream n
(PID.TID 0000.0001) >#  frequency(n):< 0 : write snap-shot output every |frequency| seconds
(PID.TID 0000.0001) >#               > 0 : write time-average output every frequency seconds
(PID.TID 0000.0001) >#  timePhase(n)     : write at time = timePhase + multiple of |frequency|
(PID.TID 0000.0001) >#    averagingFreq  : frequency (in s) for periodic averaging interval
(PID.TID 0000.0001) >#    averagingPhase : phase     (in s) for periodic averaging interval
(PID.TID 0000.0001) >#    repeatCycle    : number of averaging intervals in 1 cycle
(PID.TID 0000.0001) >#  levels(:,n) : list of levels to write to file (Notes: declared as REAL)
(PID.TID 0000.0001) >#                when this entry is missing, select all common levels of this list
(PID.TID 0000.0001) >#  fields(:,n) : list of selected diagnostics fields (8.c) in outp.stream n
(PID.TID 0000.0001) >#                (see "available_diagnostics.log" file for the full list of diags)
(PID.TID 0000.0001) >#  missing_value(n) : missing value for real-type fields in output file "n"
(PID.TID 0000.0001) >#  fileFlags(n)     : specific code (8c string) for output file "n"
(PID.TID 0000.0001) >#--------------------
(PID.TID 0000.0001) > &DIAGNOSTICS_LIST
(PID.TID 0000.0001) >  fields(1:2,1)  = 'SHIfwFlx','SHIhtFlx',
(PID.TID 0000.0001) >   fileName(1) = 'shelficeDiag',
(PID.TID 0000.0001) >  frequency(1) = 18000.,
(PID.TID 0000.0001) >  fields(1:2,2)  = 'ICFfwFlx','ICFhtFlx',
(PID.TID 0000.0001) >   fileName(2) = 'icefrontDiag',
(PID.TID 0000.0001) >  frequency(2) = 18000.,
(PID.TID 0000.0001) > /
(PID.TID 0000.0001) >
(PID.TID 0000.0001) >#--------------------
(PID.TID 0000.0001) ># Parameter for Diagnostics of per level statistics:
(PID.TID 0000.0001) >#--------------------
(PID.TID 0000.0001) >#  diagSt_mnc (logical): write stat-diags to NetCDF files (default=diag_mnc)
(PID.TID 0000.0001) >#  diagSt_regMaskFile : file containing the region-mask to read-in
(PID.TID 0000.0001) >#  nSetRegMskFile   : number of region-mask sets within the region-mask file
(PID.TID 0000.0001) >#  set_regMask(i)   : region-mask set-index that identifies the region "i"
(PID.TID 0000.0001) >#  val_regMask(i)   : region "i" identifier value in the region mask
(PID.TID 0000.0001) >#--for each output-stream:
(PID.TID 0000.0001) >#  stat_fName(n) : prefix of the output file name (max 80c long) for outp.stream n
(PID.TID 0000.0001) >#  stat_freq(n):< 0 : write snap-shot output every |stat_freq| seconds
(PID.TID 0000.0001) >#               > 0 : write time-average output every stat_freq seconds
(PID.TID 0000.0001) >#  stat_phase(n)    : write at time = stat_phase + multiple of |stat_freq|
(PID.TID 0000.0001) >#  stat_region(:,n) : list of "regions" (default: 1 region only=global)
(PID.TID 0000.0001) >#  stat_fields(:,n) : list of selected diagnostics fields (8.c) in outp.stream n
(PID.TID 0000.0001) >#                (see "available_diagnostics.log" file for the full list of diags)
(PID.TID 0000.0001) >#--------------------
(PID.TID 0000.0001) > &DIAG_STATIS_PARMS
(PID.TID 0000.0001) >#stat_fields(1:5,1)  = 'ETAN    ','UVEL    ','VVEL    ','WVEL    ', 'THETA   ',
(PID.TID 0000.0001) ># stat_fName(1) = 'dynStDiag',
(PID.TID 0000.0001) >#  stat_freq(1) = -3600.,
(PID.TID 0000.0001) ># stat_phase(1) = 0.,
(PID.TID 0000.0001) > /
(PID.TID 0000.0001) 
(PID.TID 0000.0001) S/R DIAGNOSTICS_READPARMS, read namelist "diagnostics_list": start
(PID.TID 0000.0001) S/R DIAGNOSTICS_READPARMS, read namelist "diagnostics_list": OK
(PID.TID 0000.0001) S/R DIAGNOSTICS_READPARMS, read namelist "DIAG_STATIS_PARMS": start
(PID.TID 0000.0001) S/R DIAGNOSTICS_READPARMS, read namelist "DIAG_STATIS_PARMS": OK
(PID.TID 0000.0001)  DIAGNOSTICS_READPARMS: global parameter summary:
(PID.TID 0000.0001)  dumpAtLast = /* always write time-ave diags at the end */
(PID.TID 0000.0001)                   F
(PID.TID 0000.0001)     ;
(PID.TID 0000.0001)  diag_mnc =   /* write NetCDF output files */
(PID.TID 0000.0001)                   F
(PID.TID 0000.0001)     ;
(PID.TID 0000.0001)  useMissingValue = /* put MissingValue where mask = 0 */
(PID.TID 0000.0001)                   F
(PID.TID 0000.0001)     ;
(PID.TID 0000.0001)  diagCG_maxIters = /* max number of iters in diag_cg2d */
(PID.TID 0000.0001)                    1000
(PID.TID 0000.0001)     ;
(PID.TID 0000.0001)  diagCG_resTarget = /* residual target for diag_cg2d */
(PID.TID 0000.0001)                 1.000000000000000E-13
(PID.TID 0000.0001)     ;
(PID.TID 0000.0001)  diagCG_pcOffDFac = /* preconditioner off-diagonal factor */
(PID.TID 0000.0001)                 9.611687812379854E-01
(PID.TID 0000.0001)     ;
(PID.TID 0000.0001) -----------------------------------------------------
(PID.TID 0000.0001)  DIAGNOSTICS_READPARMS: active diagnostics summary:
(PID.TID 0000.0001) -----------------------------------------------------
(PID.TID 0000.0001) Creating Output Stream: shelficeDiag
(PID.TID 0000.0001) Output Frequency:      18000.000000 ; Phase:           0.000000
(PID.TID 0000.0001)  Averaging Freq.:      18000.000000 , Phase:           0.000000 , Cycle:   1
(PID.TID 0000.0001)  missing value: -9.990000000000E+02
(PID.TID 0000.0001)  Levels:    will be set later
(PID.TID 0000.0001)  Fields:    SHIfwFlx SHIhtFlx
(PID.TID 0000.0001) Creating Output Stream: icefrontDiag
(PID.TID 0000.0001) Output Frequency:      18000.000000 ; Phase:           0.000000
(PID.TID 0000.0001)  Averaging Freq.:      18000.000000 , Phase:           0.000000 , Cycle:   1
(PID.TID 0000.0001)  missing value: -9.990000000000E+02
(PID.TID 0000.0001)  Levels:    will be set later
(PID.TID 0000.0001)  Fields:    ICFfwFlx ICFhtFlx
(PID.TID 0000.0001) -----------------------------------------------------
(PID.TID 0000.0001)  DIAGNOSTICS_READPARMS: statistics diags. summary:
(PID.TID 0000.0001) -----------------------------------------------------
(PID.TID 0000.0001) 
(PID.TID 0000.0001) SET_PARMS: done
(PID.TID 0000.0001) Enter INI_VERTICAL_GRID: setInterFDr=    T ; setCenterDr=    F
(PID.TID 0000.0001) %MON XC_max                       =   1.4850000000000E+01
(PID.TID 0000.0001) %MON XC_min                       =   1.5000000000000E-01
(PID.TID 0000.0001) %MON XC_mean                      =   7.5000000000000E+00
(PID.TID 0000.0001) %MON XC_sd                        =   4.3292609068985E+00
(PID.TID 0000.0001) %MON XG_max                       =   1.4700000000000E+01
(PID.TID 0000.0001) %MON XG_min                       =   1.1102230246252E-16
(PID.TID 0000.0001) %MON XG_mean                      =   7.3500000000000E+00
(PID.TID 0000.0001) %MON XG_sd                        =   4.3292609068985E+00
(PID.TID 0000.0001) %MON DXC_max                      =   1.1380125394806E+04
(PID.TID 0000.0001) %MON DXC_min                      =   5.8203914905589E+03
(PID.TID 0000.0001) %MON DXC_mean                     =   8.6215028627207E+03
(PID.TID 0000.0001) %MON DXC_sd                       =   1.6219001271572E+03
(PID.TID 0000.0001) %MON DXF_max                      =   1.1380125394806E+04
(PID.TID 0000.0001) %MON DXF_min                      =   5.8203914905589E+03
(PID.TID 0000.0001) %MON DXF_mean                     =   8.6215028627207E+03
(PID.TID 0000.0001) %MON DXF_sd                       =   1.6219001271572E+03
(PID.TID 0000.0001) %MON DXG_max                      =   1.1352761512017E+04
(PID.TID 0000.0001) %MON DXG_min                      =   5.7917296935586E+03
(PID.TID 0000.0001) %MON DXG_mean                     =   8.5934208253080E+03
(PID.TID 0000.0001) %MON DXG_sd                       =   1.6222785520817E+03
(PID.TID 0000.0001) %MON DXV_max                      =   1.1352761512017E+04
(PID.TID 0000.0001) %MON DXV_min                      =   5.7917296935586E+03
(PID.TID 0000.0001) %MON DXV_mean                     =   8.5934208253080E+03
(PID.TID 0000.0001) %MON DXV_sd                       =   1.6222785520817E+03
(PID.TID 0000.0001) %MON YC_max                       =  -7.0050000000001E+01
(PID.TID 0000.0001) %MON YC_min                       =  -7.9950000000000E+01
(PID.TID 0000.0001) %MON YC_mean                      =  -7.5000000000000E+01
(PID.TID 0000.0001) %MON YC_sd                        =   2.8866070047720E+00
(PID.TID 0000.0001) %MON YG_max                       =  -7.0100000000001E+01
(PID.TID 0000.0001) %MON YG_min                       =  -8.0000000000000E+01
(PID.TID 0000.0001) %MON YG_mean                      =  -7.5050000000000E+01
(PID.TID 0000.0001) %MON YG_sd                        =   2.8866070047721E+00
(PID.TID 0000.0001) %MON DYC_max                      =   1.1117747335204E+04
(PID.TID 0000.0001) %MON DYC_min                      =   1.1117747335204E+04
(PID.TID 0000.0001) %MON DYC_mean                     =   1.1117747335204E+04
(PID.TID 0000.0001) %MON DYC_sd                       =   4.1836756281555E-11
(PID.TID 0000.0001) %MON DYF_max                      =   1.1117747335204E+04
(PID.TID 0000.0001) %MON DYF_min                      =   1.1117747335204E+04
(PID.TID 0000.0001) %MON DYF_mean                     =   1.1117747335204E+04
(PID.TID 0000.0001) %MON DYF_sd                       =   4.1836756281555E-11
(PID.TID 0000.0001) %MON DYG_max                      =   1.1117747335204E+04
(PID.TID 0000.0001) %MON DYG_min                      =   1.1117747335204E+04
(PID.TID 0000.0001) %MON DYG_mean                     =   1.1117747335204E+04
(PID.TID 0000.0001) %MON DYG_sd                       =   4.1836756281555E-11
(PID.TID 0000.0001) %MON DYU_max                      =   1.1117747335204E+04
(PID.TID 0000.0001) %MON DYU_min                      =   1.1117747335204E+04
(PID.TID 0000.0001) %MON DYU_mean                     =   1.1117747335204E+04
(PID.TID 0000.0001) %MON DYU_sd                       =   4.1836756281555E-11
(PID.TID 0000.0001) %MON RA_max                       =   1.2652134272379E+08
(PID.TID 0000.0001) %MON RA_min                       =   6.4709633770803E+07
(PID.TID 0000.0001) %MON RA_mean                      =   9.5851678311587E+07
(PID.TID 0000.0001) %MON RA_sd                        =   1.8031873527992E+07
(PID.TID 0000.0001) %MON RAW_max                      =   1.2652134272379E+08
(PID.TID 0000.0001) %MON RAW_min                      =   6.4709633770803E+07
(PID.TID 0000.0001) %MON RAW_mean                     =   9.5851678311587E+07
(PID.TID 0000.0001) %MON RAW_sd                       =   1.8031873527992E+07
(PID.TID 0000.0001) %MON RAS_max                      =   1.2621711802744E+08
(PID.TID 0000.0001) %MON RAS_min                      =   6.4390979194019E+07
(PID.TID 0000.0001) %MON RAS_mean                     =   9.5539469354603E+07
(PID.TID 0000.0001) %MON RAS_sd                       =   1.8036080760153E+07
(PID.TID 0000.0001) %MON RAZ_max                      =   1.2621711802744E+08
(PID.TID 0000.0001) %MON RAZ_min                      =   6.4390979194019E+07
(PID.TID 0000.0001) %MON RAZ_mean                     =   9.5539469354603E+07
(PID.TID 0000.0001) %MON RAZ_sd                       =   1.8036080760153E+07
(PID.TID 0000.0001) %MON AngleCS_max                  =   1.0000000000000E+00
(PID.TID 0000.0001) %MON AngleCS_min                  =   1.0000000000000E+00
(PID.TID 0000.0001) %MON AngleCS_mean                 =   1.0000000000000E+00
(PID.TID 0000.0001) %MON AngleCS_sd                   =   0.0000000000000E+00
(PID.TID 0000.0001) %MON AngleSN_max                  =   0.0000000000000E+00
(PID.TID 0000.0001) %MON AngleSN_min                  =   0.0000000000000E+00
(PID.TID 0000.0001) %MON AngleSN_mean                 =   0.0000000000000E+00
(PID.TID 0000.0001) %MON AngleSN_sd                   =   0.0000000000000E+00
(PID.TID 0000.0001)  MDS_READ_FIELD: opening global file: bathy.box
(PID.TID 0000.0001)  MDS_READ_FIELD: opening global file: icetopo.exp1
(PID.TID 0000.0001) // =======================================================
(PID.TID 0000.0001) // Field Model R_low (ini_masks_etc)
(PID.TID 0000.0001) // CMIN =         -9.000000000000000E+02
(PID.TID 0000.0001) // CMAX =         -9.000000000000000E+02
(PID.TID 0000.0001) // CINT =          0.000000000000000E+00
(PID.TID 0000.0001) // SYMBOLS (CMIN->CMAX): -abcdefghijklmnopqrstuvwxyz+
(PID.TID 0000.0001) //                  0.0: .
(PID.TID 0000.0001) // RANGE I (Lo:Hi:Step):(    -2:    53:     1)
(PID.TID 0000.0001) // RANGE J (Lo:Hi:Step):(   103:    -2:    -1)
(PID.TID 0000.0001) // RANGE K (Lo:Hi:Step):(   1:   1:   1)
(PID.TID 0000.0001) // =======================================================
(PID.TID 0000.0001) // =======================================================
(PID.TID 0000.0001) // END OF FIELD                                          =
(PID.TID 0000.0001) // =======================================================
(PID.TID 0000.0001) 
(PID.TID 0000.0001) // =======================================================
(PID.TID 0000.0001) // Field Model Ro_surf (ini_masks_etc)
(PID.TID 0000.0001) // CMIN =         -6.812500000000010E+02
(PID.TID 0000.0001) // CMAX =         -2.000000000000000E+02
(PID.TID 0000.0001) // CINT =          1.782407407407411E+01
(PID.TID 0000.0001) // SYMBOLS (CMIN->CMAX): -abcdefghijklmnopqrstuvwxyz+
(PID.TID 0000.0001) //                  0.0: .
(PID.TID 0000.0001) // RANGE I (Lo:Hi:Step):(    -2:    53:     1)
(PID.TID 0000.0001) // RANGE J (Lo:Hi:Step):(   103:    -2:    -1)
(PID.TID 0000.0001) // RANGE K (Lo:Hi:Step):(   1:   1:   1)
(PID.TID 0000.0001) // =======================================================
(PID.TID 0000.0001) K =   1
(PID.TID 0000.0001) //                I=7       I=17      I=27      I=31      I=41      I=51
(PID.TID 0000.0001) // |--J--|210123456|890123456|890123456|834567890|234567890|234567890|23
(PID.TID 0000.0001) //    103 aaa.aaaaaaaaaaaaaaaaaaaaaaaaaaaaaaaaaaaaaaaaaaaaaaaaaaaaaaa.aa
(PID.TID 0000.0001) //    102 ---.-------------------------------------------------------.--
(PID.TID 0000.0001) //    101 ..............................................................
(PID.TID 0000.0001) //    100 ..............................................................
(PID.TID 0000.0001) //     99 ..............................................................
(PID.TID 0000.0001) //     98 ..............................................................
(PID.TID 0000.0001) //     97 ..............................................................
(PID.TID 0000.0001) //     96 ..............................................................
(PID.TID 0000.0001) //     95 ..............................................................
(PID.TID 0000.0001) //     94 ..............................................................
(PID.TID 0000.0001) //     93 ..............................................................
(PID.TID 0000.0001) //     92 ..............................................................
(PID.TID 0000.0001) //     91 ..............................................................
(PID.TID 0000.0001) //     90 ..............................................................
(PID.TID 0000.0001) //     89 ..............................................................
(PID.TID 0000.0001) //     88 ..............................................................
(PID.TID 0000.0001) //     87 ..............................................................
(PID.TID 0000.0001) //     86 ..............................................................
(PID.TID 0000.0001) //     85 ..............................................................
(PID.TID 0000.0001) //     84 ..............................................................
(PID.TID 0000.0001) //     83 ..............................................................
(PID.TID 0000.0001) //     82 ..............................................................
(PID.TID 0000.0001) //     81 ..............................................................
(PID.TID 0000.0001) //     80 ..............................................................
(PID.TID 0000.0001) //     79 ..............................................................
(PID.TID 0000.0001) //     78 ..............................................................
(PID.TID 0000.0001) //     77 ..............................................................
(PID.TID 0000.0001) //     76 ..............................................................
(PID.TID 0000.0001) //     75 ..............................................................
(PID.TID 0000.0001) //     74 ..............................................................
(PID.TID 0000.0001) //     73 ..............................................................
(PID.TID 0000.0001) //     78 ..............................................................
(PID.TID 0000.0001) //     77 ..............................................................
(PID.TID 0000.0001) //     76 ..............................................................
(PID.TID 0000.0001) //     75 ..............................................................
(PID.TID 0000.0001) //     74 ..............................................................
(PID.TID 0000.0001) //     73 ..............................................................
(PID.TID 0000.0001) //     72 ..............................................................
(PID.TID 0000.0001) //     71 ..............................................................
(PID.TID 0000.0001) //     70 ..............................................................
(PID.TID 0000.0001) //     69 ..............................................................
(PID.TID 0000.0001) //     68 ..............................................................
(PID.TID 0000.0001) //     67 ..............................................................
(PID.TID 0000.0001) //     66 ..............................................................
(PID.TID 0000.0001) //     65 ..............................................................
(PID.TID 0000.0001) //     64 ..............................................................
(PID.TID 0000.0001) //     63 ..............................................................
(PID.TID 0000.0001) //     62 ..............................................................
(PID.TID 0000.0001) //     61 ..............................................................
(PID.TID 0000.0001) //     60 ..............................................................
(PID.TID 0000.0001) //     59 ..............................................................
(PID.TID 0000.0001) //     58 ..............................................................
(PID.TID 0000.0001) //     57 ..............................................................
(PID.TID 0000.0001) //     56 ..............................................................
(PID.TID 0000.0001) //     55 ..............................................................
(PID.TID 0000.0001) //     54 ..............................................................
(PID.TID 0000.0001) //     53 ..............................................................
(PID.TID 0000.0001) //     52 ..............................................................
(PID.TID 0000.0001) //     51 ..............................................................
(PID.TID 0000.0001) //     50 +++.+++++++++++++++++++++++++++++++++++++++++++++++++++++++.++
(PID.TID 0000.0001) //     49 +++.+++++++++++++++++++++++++++++++++++++++++++++++++++++++.++
(PID.TID 0000.0001) //     48 +++.+++++++++++++++++++++++++++++++++++++++++++++++++++++++.++
(PID.TID 0000.0001) //     53 ..............................................................
(PID.TID 0000.0001) //     52 ..............................................................
(PID.TID 0000.0001) //     51 ..............................................................
(PID.TID 0000.0001) //     50 +++.+++++++++++++++++++++++++++++++++++++++++++++++++++++++.++
(PID.TID 0000.0001) //     49 +++.+++++++++++++++++++++++++++++++++++++++++++++++++++++++.++
(PID.TID 0000.0001) //     48 +++.+++++++++++++++++++++++++++++++++++++++++++++++++++++++.++
(PID.TID 0000.0001) //     47 +++.+++++++++++++++++++++++++++++++++++++++++++++++++++++++.++
(PID.TID 0000.0001) //     46 +++.+++++++++++++++++++++++++++++++++++++++++++++++++++++++.++
(PID.TID 0000.0001) //     45 +++.+++++++++++++++++++++++++++++++++++++++++++++++++++++++.++
(PID.TID 0000.0001) //     44 +++.+++++++++++++++++++++++++++++++++++++++++++++++++++++++.++
(PID.TID 0000.0001) //     43 +++.+++++++++++++++++++++++++++++++++++++++++++++++++++++++.++
(PID.TID 0000.0001) //     42 +++.+++++++++++++++++++++++++++++++++++++++++++++++++++++++.++
(PID.TID 0000.0001) //     41 +++.+++++++++++++++++++++++++++++++++++++++++++++++++++++++.++
(PID.TID 0000.0001) //     40 +++.+++++++++++++++++++++++++++++++++++++++++++++++++++++++.++
(PID.TID 0000.0001) //     39 zzz.zzzzzzzzzzzzzzzzzzzzzzzzzzzzzzzzzzzzzzzzzzzzzzzzzzzzzzz.zz
(PID.TID 0000.0001) //     38 yyy.yyyyyyyyyyyyyyyyyyyyyyyyyyyyyyyyyyyyyyyyyyyyyyyyyyyyyyy.yy
(PID.TID 0000.0001) //     37 yyy.yyyyyyyyyyyyyyyyyyyyyyyyyyyyyyyyyyyyyyyyyyyyyyyyyyyyyyy.yy
(PID.TID 0000.0001) //     36 xxx.xxxxxxxxxxxxxxxxxxxxxxxxxxxxxxxxxxxxxxxxxxxxxxxxxxxxxxx.xx
(PID.TID 0000.0001) //     35 www.wwwwwwwwwwwwwwwwwwwwwwwwwwwwwwwwwwwwwwwwwwwwwwwwwwwwwww.ww
(PID.TID 0000.0001) //     34 vvv.vvvvvvvvvvvvvvvvvvvvvvvvvvvvvvvvvvvvvvvvvvvvvvvvvvvvvvv.vv
(PID.TID 0000.0001) //     33 vvv.vvvvvvvvvvvvvvvvvvvvvvvvvvvvvvvvvvvvvvvvvvvvvvvvvvvvvvv.vv
(PID.TID 0000.0001) //     32 uuu.uuuuuuuuuuuuuuuuuuuuuuuuuuuuuuuuuuuuuuuuuuuuuuuuuuuuuuu.uu
(PID.TID 0000.0001) //     31 ttt.ttttttttttttttttttttttttttttttttttttttttttttttttttttttt.tt
(PID.TID 0000.0001) //     30 ttt.ttttttttttttttttttttttttttttttttttttttttttttttttttttttt.tt
(PID.TID 0000.0001) //     29 sss.sssssssssssssssssssssssssssssssssssssssssssssssssssssss.ss
(PID.TID 0000.0001) //     28 rrr.rrrrrrrrrrrrrrrrrrrrrrrrrrrrrrrrrrrrrrrrrrrrrrrrrrrrrrr.rr
(PID.TID 0000.0001) //     27 rrr.rrrrrrrrrrrrrrrrrrrrrrrrrrrrrrrrrrrrrrrrrrrrrrrrrrrrrrr.rr
(PID.TID 0000.0001) //     26 qqq.qqqqqqqqqqqqqqqqqqqqqqqqqqqqqqqqqqqqqqqqqqqqqqqqqqqqqqq.qq
(PID.TID 0000.0001) //     25 ppp.ppppppppppppppppppppppppppppppppppppppppppppppppppppppp.pp
(PID.TID 0000.0001) //     24 ooo.ooooooooooooooooooooooooooooooooooooooooooooooooooooooo.oo
(PID.TID 0000.0001) //     23 ooo.ooooooooooooooooooooooooooooooooooooooooooooooooooooooo.oo
(PID.TID 0000.0001) //     28 rrr.rrrrrrrrrrrrrrrrrrrrrrrrrrrrrrrrrrrrrrrrrrrrrrrrrrrrrrr.rr
(PID.TID 0000.0001) //     27 rrr.rrrrrrrrrrrrrrrrrrrrrrrrrrrrrrrrrrrrrrrrrrrrrrrrrrrrrrr.rr
(PID.TID 0000.0001) //     26 qqq.qqqqqqqqqqqqqqqqqqqqqqqqqqqqqqqqqqqqqqqqqqqqqqqqqqqqqqq.qq
(PID.TID 0000.0001) //     25 ppp.ppppppppppppppppppppppppppppppppppppppppppppppppppppppp.pp
(PID.TID 0000.0001) //     24 ooo.ooooooooooooooooooooooooooooooooooooooooooooooooooooooo.oo
(PID.TID 0000.0001) //     23 ooo.ooooooooooooooooooooooooooooooooooooooooooooooooooooooo.oo
(PID.TID 0000.0001) //     22 nnn.nnnnnnnnnnnnnnnnnnnnnnnnnnnnnnnnnnnnnnnnnnnnnnnnnnnnnnn.nn
(PID.TID 0000.0001) //     21 mmm.mmmmmmmmmmmmmmmmmmmmmmmmmmmmmmmmmmmmmmmmmmmmmmmmmmmmmmm.mm
(PID.TID 0000.0001) //     20 mmm.mmmmmmmmmmmmmmmmmmmmmmmmmmmmmmmmmmmmmmmmmmmmmmmmmmmmmmm.mm
(PID.TID 0000.0001) //     19 lll.lllllllllllllllllllllllllllllllllllllllllllllllllllllll.ll
(PID.TID 0000.0001) //     18 kkk.kkkkkkkkkkkkkkkkkkkkkkkkkkkkkkkkkkkkkkkkkkkkkkkkkkkkkkk.kk
(PID.TID 0000.0001) //     17 kkk.kkkkkkkkkkkkkkkkkkkkkkkkkkkkkkkkkkkkkkkkkkkkkkkkkkkkkkk.kk
(PID.TID 0000.0001) //     16 jjj.jjjjjjjjjjjjjjjjjjjjjjjjjjjjjjjjjjjjjjjjjjjjjjjjjjjjjjj.jj
(PID.TID 0000.0001) //     15 iii.iiiiiiiiiiiiiiiiiiiiiiiiiiiiiiiiiiiiiiiiiiiiiiiiiiiiiii.ii
(PID.TID 0000.0001) //     14 hhh.hhhhhhhhhhhhhhhhhhhhhhhhhhhhhhhhhhhhhhhhhhhhhhhhhhhhhhh.hh
(PID.TID 0000.0001) //     13 hhh.hhhhhhhhhhhhhhhhhhhhhhhhhhhhhhhhhhhhhhhhhhhhhhhhhhhhhhh.hh
(PID.TID 0000.0001) //     12 ggg.ggggggggggggggggggggggggggggggggggggggggggggggggggggggg.gg
(PID.TID 0000.0001) //     11 fff.fffffffffffffffffffffffffffffffffffffffffffffffffffffff.ff
(PID.TID 0000.0001) //     10 fff.fffffffffffffffffffffffffffffffffffffffffffffffffffffff.ff
(PID.TID 0000.0001) //      9 eee.eeeeeeeeeeeeeeeeeeeeeeeeeeeeeeeeeeeeeeeeeeeeeeeeeeeeeee.ee
(PID.TID 0000.0001) //      8 ddd.ddddddddddddddddddddddddddddddddddddddddddddddddddddddd.dd
(PID.TID 0000.0001) //      7 ddd.ddddddddddddddddddddddddddddddddddddddddddddddddddddddd.dd
(PID.TID 0000.0001) //      6 ccc.ccccccccccccccccccccccccccccccccccccccccccccccccccccccc.cc
(PID.TID 0000.0001) //      5 bbb.bbbbbbbbbbbbbbbbbbbbbbbbbbbbbbbbbbbbbbbbbbbbbbbbbbbbbbb.bb
(PID.TID 0000.0001) //      4 aaa.aaaaaaaaaaaaaaaaaaaaaaaaaaaaaaaaaaaaaaaaaaaaaaaaaaaaaaa.aa
(PID.TID 0000.0001) //      3 aaa.aaaaaaaaaaaaaaaaaaaaaaaaaaaaaaaaaaaaaaaaaaaaaaaaaaaaaaa.aa
(PID.TID 0000.0001) //      2 ---.-------------------------------------------------------.--
(PID.TID 0000.0001) //      1 ..............................................................
(PID.TID 0000.0001) //      0 ..............................................................
(PID.TID 0000.0001) //     -1 ..............................................................
(PID.TID 0000.0001) //     -2 ..............................................................
(PID.TID 0000.0001) // =======================================================
(PID.TID 0000.0001) // END OF FIELD                                          =
(PID.TID 0000.0001) // =======================================================
(PID.TID 0000.0001) 
(PID.TID 0000.0001) // =======================================================
(PID.TID 0000.0001) // Field hFacC at iteration          0
(PID.TID 0000.0001) // CMIN =          1.000000000000000E+00
(PID.TID 0000.0001) // CMAX =          1.000000000000000E+00
(PID.TID 0000.0001) // CINT =          0.000000000000000E+00
(PID.TID 0000.0001) // SYMBOLS (CMIN->CMAX): -abcdefghijklmnopqrstuvwxyz+
(PID.TID 0000.0001) //                  0.0: .
(PID.TID 0000.0001) // RANGE I (Lo:Hi:Step):(    -2:    53:     1)
(PID.TID 0000.0001) // RANGE J (Lo:Hi:Step):(   103:    -2:    -1)
(PID.TID 0000.0001) // RANGE K (Lo:Hi:Step):(   1:   1:   1)
(PID.TID 0000.0001) // =======================================================
(PID.TID 0000.0001) // =======================================================
(PID.TID 0000.0001) // END OF FIELD                                          =
(PID.TID 0000.0001) // =======================================================
(PID.TID 0000.0001) 
(PID.TID 0000.0001) // =======================================================
(PID.TID 0000.0001) // Field hFacW at iteration          0
(PID.TID 0000.0001) // CMIN =          1.000000000000000E+00
(PID.TID 0000.0001) // CMAX =          1.000000000000000E+00
(PID.TID 0000.0001) // CINT =          0.000000000000000E+00
(PID.TID 0000.0001) // SYMBOLS (CMIN->CMAX): -abcdefghijklmnopqrstuvwxyz+
(PID.TID 0000.0001) //                  0.0: .
(PID.TID 0000.0001) // RANGE I (Lo:Hi:Step):(    -2:    53:     1)
(PID.TID 0000.0001) // RANGE J (Lo:Hi:Step):(   103:    -2:    -1)
(PID.TID 0000.0001) // RANGE K (Lo:Hi:Step):(   1:   1:   1)
(PID.TID 0000.0001) // =======================================================
(PID.TID 0000.0001) // =======================================================
(PID.TID 0000.0001) // END OF FIELD                                          =
(PID.TID 0000.0001) // =======================================================
(PID.TID 0000.0001) 
(PID.TID 0000.0001) // =======================================================
(PID.TID 0000.0001) // Field hFacS at iteration          0
(PID.TID 0000.0001) // CMIN =          1.000000000000000E+00
(PID.TID 0000.0001) // CMAX =          1.000000000000000E+00
(PID.TID 0000.0001) // CINT =          0.000000000000000E+00
(PID.TID 0000.0001) // SYMBOLS (CMIN->CMAX): -abcdefghijklmnopqrstuvwxyz+
(PID.TID 0000.0001) //                  0.0: .
(PID.TID 0000.0001) // RANGE I (Lo:Hi:Step):(    -2:    53:     1)
(PID.TID 0000.0001) // RANGE J (Lo:Hi:Step):(   103:    -2:    -1)
(PID.TID 0000.0001) // RANGE K (Lo:Hi:Step):(   1:   1:   1)
(PID.TID 0000.0001) // =======================================================
(PID.TID 0000.0001) // =======================================================
(PID.TID 0000.0001) // END OF FIELD                                          =
(PID.TID 0000.0001) // =======================================================
(PID.TID 0000.0001) 
(PID.TID 0000.0001) GAD_INIT_FIXED: GAD_OlMinSize=  1  0  1
(PID.TID 0000.0001) 
(PID.TID 0000.0001) // ===================================
(PID.TID 0000.0001) // GAD parameters :
(PID.TID 0000.0001) // ===================================
(PID.TID 0000.0001) tempAdvScheme =   /* Temp. Horiz.Advection scheme selector */
(PID.TID 0000.0001)                       2
(PID.TID 0000.0001)     ;
(PID.TID 0000.0001) tempVertAdvScheme =   /* Temp. Vert. Advection scheme selector */
(PID.TID 0000.0001)                       2
(PID.TID 0000.0001)     ;
(PID.TID 0000.0001) tempMultiDimAdvec =   /* use Muti-Dim Advec method for Temp */
(PID.TID 0000.0001)                   F
(PID.TID 0000.0001)     ;
(PID.TID 0000.0001) tempSOM_Advection = /* use 2nd Order Moment Advection for Temp */
(PID.TID 0000.0001)                   F
(PID.TID 0000.0001)     ;
(PID.TID 0000.0001) AdamsBashforthGt = /* apply Adams-Bashforth extrapolation on Gt */
(PID.TID 0000.0001)                   T
(PID.TID 0000.0001)     ;
(PID.TID 0000.0001) AdamsBashforth_T = /* apply Adams-Bashforth extrapolation on Temp */
(PID.TID 0000.0001)                   F
(PID.TID 0000.0001)     ;
(PID.TID 0000.0001) saltAdvScheme =   /* Salt. Horiz.advection scheme selector */
(PID.TID 0000.0001)                       2
(PID.TID 0000.0001)     ;
(PID.TID 0000.0001) saltVertAdvScheme =   /* Salt. Vert. Advection scheme selector */
(PID.TID 0000.0001)                       2
(PID.TID 0000.0001)     ;
(PID.TID 0000.0001) saltMultiDimAdvec =   /* use Muti-Dim Advec method for Salt */
(PID.TID 0000.0001)                   F
(PID.TID 0000.0001)     ;
(PID.TID 0000.0001) saltSOM_Advection = /* use 2nd Order Moment Advection for Salt */
(PID.TID 0000.0001)                   F
(PID.TID 0000.0001)     ;
(PID.TID 0000.0001) AdamsBashforthGs = /* apply Adams-Bashforth extrapolation on Gs */
(PID.TID 0000.0001)                   T
(PID.TID 0000.0001)     ;
(PID.TID 0000.0001) AdamsBashforth_S = /* apply Adams-Bashforth extrapolation on Salt */
(PID.TID 0000.0001)                   F
(PID.TID 0000.0001)     ;
(PID.TID 0000.0001) // ===================================
(PID.TID 0000.0001)  MDS_READ_FIELD: opening global file: phi0surf.exp1.jmd95z
(PID.TID 0000.0001)  MDS_READ_FIELD: opening global file: frontcircum.xuyun
(PID.TID 0000.0001)  MDS_READ_FIELD: opening global file: frontdepth.xuyun
(PID.TID 0000.0001) ------------------------------------------------------------
(PID.TID 0000.0001) DIAGNOSTICS_SET_LEVELS: done
(PID.TID 0000.0001)  Total Nb of available Diagnostics: ndiagt=   202
(PID.TID 0000.0001)  write list of available Diagnostics to file: available_diagnostics.log
(PID.TID 0000.0001) SETDIAG: Allocate  1 x  1 Levels for Diagnostic #   192 SHIfwFlx
(PID.TID 0000.0001) SETDIAG: Allocate  1 x  1 Levels for Diagnostic #   193 SHIhtFlx
(PID.TID 0000.0001) SETDIAG: Allocate 30 x  1 Levels for Diagnostic #   201 ICFfwFlx
(PID.TID 0000.0001) SETDIAG: Allocate 30 x  1 Levels for Diagnostic #   202 ICFhtFlx
(PID.TID 0000.0001)   space allocated for all diagnostics:      62 levels
(PID.TID 0000.0001) DIAGNOSTICS_SET_POINTERS: Set levels for Outp.Stream: shelficeDiag
(PID.TID 0000.0001)  Levels:       1.
(PID.TID 0000.0001) DIAGNOSTICS_SET_POINTERS: Set levels for Outp.Stream: icefrontDiag
(PID.TID 0000.0001)  Levels:       1.   2.   3.   4.   5.   6.   7.   8.   9.  10.  11.  12.  13.  14.  15.  16.  17.  18.  19.  20.
(PID.TID 0000.0001)  Levels:      21.  22.  23.  24.  25.  26.  27.  28.  29.  30.
(PID.TID 0000.0001) DIAGNOSTICS_SET_POINTERS: done
(PID.TID 0000.0001) ------------------------------------------------------------
(PID.TID 0000.0001) DIAGSTATS_SET_REGIONS: define no region
(PID.TID 0000.0001) ------------------------------------------------------------
(PID.TID 0000.0001)   space allocated for all stats-diags:       0 levels
(PID.TID 0000.0001) DIAGSTATS_SET_POINTERS: done
(PID.TID 0000.0001) ------------------------------------------------------------
(PID.TID 0000.0001) %MON fCori_max                    =  -1.3709057042516E-04
(PID.TID 0000.0001) %MON fCori_min                    =  -1.4360464034757E-04
(PID.TID 0000.0001) %MON fCori_mean                   =  -1.4069429304698E-04
(PID.TID 0000.0001) %MON fCori_sd                     =   1.9069739624987E-06
(PID.TID 0000.0001) %MON fCoriG_max                   =  -1.3713394327439E-04
(PID.TID 0000.0001) %MON fCoriG_min                   =  -1.4362679550910E-04
(PID.TID 0000.0001) %MON fCoriG_mean                  =  -1.4072713798624E-04
(PID.TID 0000.0001) %MON fCoriG_sd                    =   1.9008093726821E-06
(PID.TID 0000.0001) %MON fCoriCos_max                 =   4.9761447480159E-05
(PID.TID 0000.0001) %MON fCoriCos_min                 =   2.5450607565678E-05
(PID.TID 0000.0001) %MON fCoriCos_mean                =   3.7698922201606E-05
(PID.TID 0000.0001) %MON fCoriCos_sd                  =   7.0920218535055E-06
(PID.TID 0000.0001) INI_CG2D: CG2D normalisation factor =  8.6553958581495505E-04
(PID.TID 0000.0001) 
(PID.TID 0000.0001) // =======================================================
(PID.TID 0000.0001) // Model configuration
(PID.TID 0000.0001) // =======================================================
(PID.TID 0000.0001) //
(PID.TID 0000.0001) // "Physical" paramters ( PARM01 in namelist )
(PID.TID 0000.0001) //
(PID.TID 0000.0001) buoyancyRelation = /* Type of relation to get Buoyancy */
(PID.TID 0000.0001)               'OCEANIC'
(PID.TID 0000.0001)     ;
(PID.TID 0000.0001) fluidIsAir   =  /* fluid major constituent is Air */
(PID.TID 0000.0001)                   F
(PID.TID 0000.0001)     ;
(PID.TID 0000.0001) fluidIsWater =  /* fluid major constituent is Water */
(PID.TID 0000.0001)                   T
(PID.TID 0000.0001)     ;
(PID.TID 0000.0001) usingPCoords =  /* use p (or p*) vertical coordinate */
(PID.TID 0000.0001)                   F
(PID.TID 0000.0001)     ;
(PID.TID 0000.0001) usingZCoords =  /* use z (or z*) vertical coordinate */
(PID.TID 0000.0001)                   T
(PID.TID 0000.0001)     ;
(PID.TID 0000.0001) tRef =   /* Reference temperature profile ( oC or K ) */
(PID.TID 0000.0001)    30 @ -1.900000000000000E+00              /* K =  1: 30 */
(PID.TID 0000.0001)     ;
(PID.TID 0000.0001) sRef =   /* Reference salinity profile ( psu ) */
(PID.TID 0000.0001)    30 @  3.440000000000000E+01              /* K =  1: 30 */
(PID.TID 0000.0001)     ;
(PID.TID 0000.0001) useStrainTensionVisc= /* Use StrainTension Form of Viscous Operator */
(PID.TID 0000.0001)                   F
(PID.TID 0000.0001)     ;
(PID.TID 0000.0001) useVariableVisc = /* Use variable horizontal viscosity */
(PID.TID 0000.0001)                   F
(PID.TID 0000.0001)     ;
(PID.TID 0000.0001) useHarmonicVisc = /* Use harmonic horizontal viscosity */
(PID.TID 0000.0001)                   T
(PID.TID 0000.0001)     ;
(PID.TID 0000.0001) useBiharmonicVisc= /* Use biharmonic horiz.  viscosity */
(PID.TID 0000.0001)                   F
(PID.TID 0000.0001)     ;
(PID.TID 0000.0001) useSmag3D = /* Use isotropic 3-D Smagorinsky viscosity */
(PID.TID 0000.0001)                   F
(PID.TID 0000.0001)     ;
(PID.TID 0000.0001) viscAh  =   /* Lateral harmonic viscosity ( m^2/s ) */
(PID.TID 0000.0001)                 6.000000000000000E+02
(PID.TID 0000.0001)     ;
(PID.TID 0000.0001) viscA4  =   /* Lateral biharmonic viscosity ( m^4/s ) */
(PID.TID 0000.0001)                 0.000000000000000E+00
(PID.TID 0000.0001)     ;
(PID.TID 0000.0001) no_slip_sides =  /* Viscous BCs: No-slip sides */
(PID.TID 0000.0001)                   F
(PID.TID 0000.0001)     ;
(PID.TID 0000.0001) sideDragFactor = /* side-drag scaling factor (non-dim) */
(PID.TID 0000.0001)                 2.000000000000000E+00
(PID.TID 0000.0001)     ;
(PID.TID 0000.0001) viscArNr = /* vertical profile of vertical viscosity ( m^2/s )*/
(PID.TID 0000.0001)    30 @  1.000000000000000E-03              /* K =  1: 30 */
(PID.TID 0000.0001)     ;
(PID.TID 0000.0001) no_slip_bottom =  /* Viscous BCs: No-slip bottom */
(PID.TID 0000.0001)                   F
(PID.TID 0000.0001)     ;
(PID.TID 0000.0001) bottomVisc_pCell = /* Partial-cell in bottom Visc. BC */
(PID.TID 0000.0001)                   F
(PID.TID 0000.0001)     ;
(PID.TID 0000.0001) bottomDragLinear = /* linear bottom-drag coefficient ( m/s ) */
(PID.TID 0000.0001)                 0.000000000000000E+00
(PID.TID 0000.0001)     ;
(PID.TID 0000.0001) bottomDragQuadratic = /* quadratic bottom-drag coefficient (-) */
(PID.TID 0000.0001)                 2.500000000000000E-03
(PID.TID 0000.0001)     ;
(PID.TID 0000.0001) selectBotDragQuadr = /* select quadratic bottom drag options */
(PID.TID 0000.0001)                       0
(PID.TID 0000.0001)     ;
(PID.TID 0000.0001) diffKhT =   /* Laplacian diffusion of heat laterally ( m^2/s ) */
(PID.TID 0000.0001)                 1.000000000000000E+02
(PID.TID 0000.0001)     ;
(PID.TID 0000.0001) diffK4T =   /* Biharmonic diffusion of heat laterally ( m^4/s ) */
(PID.TID 0000.0001)                 0.000000000000000E+00
(PID.TID 0000.0001)     ;
(PID.TID 0000.0001) diffKhS =   /* Laplacian diffusion of salt laterally ( m^2/s ) */
(PID.TID 0000.0001)                 1.000000000000000E+02
(PID.TID 0000.0001)     ;
(PID.TID 0000.0001) diffK4S =   /* Biharmonic diffusion of salt laterally ( m^4/s ) */
(PID.TID 0000.0001)                 0.000000000000000E+00
(PID.TID 0000.0001)     ;
(PID.TID 0000.0001) diffKrNrT = /* vertical profile of vertical diffusion of Temp ( m^2/s )*/
(PID.TID 0000.0001)    30 @  5.000000000000000E-05              /* K =  1: 30 */
(PID.TID 0000.0001)     ;
(PID.TID 0000.0001) diffKrNrS = /* vertical profile of vertical diffusion of Salt ( m^2/s )*/
(PID.TID 0000.0001)    30 @  5.000000000000000E-05              /* K =  1: 30 */
(PID.TID 0000.0001)     ;
(PID.TID 0000.0001) diffKrBL79surf = /* Surface diffusion for Bryan and Lewis 79 ( m^2/s ) */
(PID.TID 0000.0001)                 0.000000000000000E+00
(PID.TID 0000.0001)     ;
(PID.TID 0000.0001) diffKrBL79deep = /* Deep diffusion for Bryan and Lewis 1979 ( m^2/s ) */
(PID.TID 0000.0001)                 0.000000000000000E+00
(PID.TID 0000.0001)     ;
(PID.TID 0000.0001) diffKrBL79scl = /* Depth scale for Bryan and Lewis 1979 ( m ) */
(PID.TID 0000.0001)                 2.000000000000000E+02
(PID.TID 0000.0001)     ;
(PID.TID 0000.0001) diffKrBL79Ho = /* Turning depth for Bryan and Lewis 1979 ( m ) */
(PID.TID 0000.0001)                -2.000000000000000E+03
(PID.TID 0000.0001)     ;
(PID.TID 0000.0001) ivdc_kappa = /* Implicit Vertical Diffusivity for Convection ( m^2/s) */
(PID.TID 0000.0001)                 0.000000000000000E+00
(PID.TID 0000.0001)     ;
(PID.TID 0000.0001) hMixCriteria=  /* Criteria for mixed-layer diagnostic */
(PID.TID 0000.0001)                -8.000000000000000E-01
(PID.TID 0000.0001)     ;
(PID.TID 0000.0001) dRhoSmall =  /* Parameter for mixed-layer diagnostic */
(PID.TID 0000.0001)                 1.000000000000000E-06
(PID.TID 0000.0001)     ;
(PID.TID 0000.0001) hMixSmooth=  /* Smoothing parameter for mixed-layer diagnostic */
(PID.TID 0000.0001)                 0.000000000000000E+00
(PID.TID 0000.0001)     ;
(PID.TID 0000.0001) eosType =  /* Type of Equation of State */
(PID.TID 0000.0001)               'JMD95Z'
(PID.TID 0000.0001)     ;
(PID.TID 0000.0001) HeatCapacity_Cp =  /* Specific heat capacity ( J/kg/K ) */
(PID.TID 0000.0001)                 3.974000000000000E+03
(PID.TID 0000.0001)     ;
(PID.TID 0000.0001) celsius2K = /* 0 degree Celsius converted to Kelvin ( K ) */
(PID.TID 0000.0001)                 2.731500000000000E+02
(PID.TID 0000.0001)     ;
(PID.TID 0000.0001) rhoConst  = /* Reference density (Boussinesq)  ( kg/m^3 ) */
(PID.TID 0000.0001)                 1.030000000000000E+03
(PID.TID 0000.0001)     ;
(PID.TID 0000.0001) rhoFacC = /* normalized Reference density @ cell-Center (-) */
(PID.TID 0000.0001)    30 @  1.000000000000000E+00              /* K =  1: 30 */
(PID.TID 0000.0001)     ;
(PID.TID 0000.0001) rhoFacF = /* normalized Reference density @ W-Interface (-) */
(PID.TID 0000.0001)    31 @  1.000000000000000E+00              /* K =  1: 31 */
(PID.TID 0000.0001)     ;
(PID.TID 0000.0001) rhoConstFresh = /* Fresh-water reference density ( kg/m^3 ) */
(PID.TID 0000.0001)                 1.030000000000000E+03
(PID.TID 0000.0001)     ;
(PID.TID 0000.0001) gravity =   /* Gravitational acceleration ( m/s^2 ) */
(PID.TID 0000.0001)                 9.810000000000000E+00
(PID.TID 0000.0001)     ;
(PID.TID 0000.0001) gBaro =   /* Barotropic gravity ( m/s^2 ) */
(PID.TID 0000.0001)                 9.810000000000000E+00
(PID.TID 0000.0001)     ;
(PID.TID 0000.0001) rotationPeriod =   /* Rotation Period ( s ) */
(PID.TID 0000.0001)                 8.616400000000000E+04
(PID.TID 0000.0001)     ;
(PID.TID 0000.0001) omega =   /* Angular velocity ( rad/s ) */
(PID.TID 0000.0001)                 7.292123516990375E-05
(PID.TID 0000.0001)     ;
(PID.TID 0000.0001) f0 =   /* Reference coriolis parameter ( 1/s ) */
(PID.TID 0000.0001)                 1.000000000000000E-04
(PID.TID 0000.0001)     ;
(PID.TID 0000.0001) beta =   /* Beta ( 1/(m.s) ) */
(PID.TID 0000.0001)                 9.999999999999999E-12
(PID.TID 0000.0001)     ;
(PID.TID 0000.0001) fPrime =   /* Second coriolis parameter ( 1/s ) */
(PID.TID 0000.0001)                 0.000000000000000E+00
(PID.TID 0000.0001)     ;
(PID.TID 0000.0001) rigidLid =   /* Rigid lid on/off flag */
(PID.TID 0000.0001)                   F
(PID.TID 0000.0001)     ;
(PID.TID 0000.0001) implicitFreeSurface =   /* Implicit free surface on/off flag */
(PID.TID 0000.0001)                   T
(PID.TID 0000.0001)     ;
(PID.TID 0000.0001) freeSurfFac =   /* Implicit free surface factor */
(PID.TID 0000.0001)                 1.000000000000000E+00
(PID.TID 0000.0001)     ;
(PID.TID 0000.0001) implicSurfPress =  /* Surface Pressure implicit factor (0-1)*/
(PID.TID 0000.0001)                 1.000000000000000E+00
(PID.TID 0000.0001)     ;
(PID.TID 0000.0001) implicDiv2Dflow =  /* Barot. Flow Div. implicit factor (0-1)*/
(PID.TID 0000.0001)                 1.000000000000000E+00
(PID.TID 0000.0001)     ;
(PID.TID 0000.0001) uniformLin_PhiSurf = /* use uniform Bo_surf on/off flag*/
(PID.TID 0000.0001)                   T
(PID.TID 0000.0001)     ;
(PID.TID 0000.0001) uniformFreeSurfLev = /* free-surface level-index is uniform */
(PID.TID 0000.0001)                   F
(PID.TID 0000.0001)     ;
(PID.TID 0000.0001) hFacMin =   /* minimum partial cell factor (hFac) */
(PID.TID 0000.0001)                 5.000000000000000E-02
(PID.TID 0000.0001)     ;
(PID.TID 0000.0001) hFacMinDr = /* minimum partial cell thickness ( m) */
(PID.TID 0000.0001)                 0.000000000000000E+00
(PID.TID 0000.0001)     ;
(PID.TID 0000.0001) exactConserv =  /* Exact Volume Conservation on/off flag*/
(PID.TID 0000.0001)                   T
(PID.TID 0000.0001)     ;
(PID.TID 0000.0001) linFSConserveTr = /* Tracer correction for Lin Free Surface on/off flag*/
(PID.TID 0000.0001)                   F
(PID.TID 0000.0001)     ;
(PID.TID 0000.0001) nonlinFreeSurf = /* Non-linear Free Surf. options (-1,0,1,2,3)*/
(PID.TID 0000.0001)                       0
(PID.TID 0000.0001)      -1,0= Off ; 1,2,3= On, 2=+rescale gU,gV, 3=+update cg2d solv.
(PID.TID 0000.0001)     ;
(PID.TID 0000.0001) hFacInf =   /* lower threshold for hFac (nonlinFreeSurf only)*/
(PID.TID 0000.0001)                 2.000000000000000E-01
(PID.TID 0000.0001)     ;
(PID.TID 0000.0001) hFacSup =   /* upper threshold for hFac (nonlinFreeSurf only)*/
(PID.TID 0000.0001)                 2.000000000000000E+00
(PID.TID 0000.0001)     ;
(PID.TID 0000.0001) select_rStar = /* r* Vertical coord. options (=0 r coord.; >0 uses r*)*/
(PID.TID 0000.0001)                       0
(PID.TID 0000.0001)     ;
(PID.TID 0000.0001) useRealFreshWaterFlux = /* Real Fresh Water Flux on/off flag*/
(PID.TID 0000.0001)                   F
(PID.TID 0000.0001)     ;
(PID.TID 0000.0001) temp_EvPrRn = /* Temp. of Evap/Prec/R (UNSET=use local T)(oC)*/
(PID.TID 0000.0001)                 1.234567000000000E+05
(PID.TID 0000.0001)     ;
(PID.TID 0000.0001) salt_EvPrRn = /* Salin. of Evap/Prec/R (UNSET=use local S)(psu)*/
(PID.TID 0000.0001)                 0.000000000000000E+00
(PID.TID 0000.0001)     ;
(PID.TID 0000.0001) selectAddFluid = /* option for mass source/sink of fluid (=0: off) */
(PID.TID 0000.0001)                       0
(PID.TID 0000.0001)     ;
(PID.TID 0000.0001) temp_addMass = /* Temp. of addMass array (UNSET=use local T)(oC)*/
(PID.TID 0000.0001)                 1.234567000000000E+05
(PID.TID 0000.0001)     ;
(PID.TID 0000.0001) salt_addMass = /* Salin. of addMass array (UNSET=use local S)(psu)*/
(PID.TID 0000.0001)                 0.000000000000000E+00
(PID.TID 0000.0001)     ;
(PID.TID 0000.0001) convertFW2Salt = /* convert F.W. Flux to Salt Flux (-1=use local S)(psu)*/
(PID.TID 0000.0001)                 3.340000000000000E+01
(PID.TID 0000.0001)     ;
(PID.TID 0000.0001) use3Dsolver = /* use 3-D pressure solver on/off flag */
(PID.TID 0000.0001)                   F
(PID.TID 0000.0001)     ;
(PID.TID 0000.0001) nonHydrostatic =  /* Non-Hydrostatic on/off flag */
(PID.TID 0000.0001)                   F
(PID.TID 0000.0001)     ;
(PID.TID 0000.0001) nh_Am2 = /* Non-Hydrostatic terms scaling factor */
(PID.TID 0000.0001)                 1.000000000000000E+00
(PID.TID 0000.0001)     ;
(PID.TID 0000.0001) implicitNHPress = /* Non-Hyd Pressure implicit factor (0-1)*/
(PID.TID 0000.0001)                 1.000000000000000E+00
(PID.TID 0000.0001)     ;
(PID.TID 0000.0001) selectNHfreeSurf = /* Non-Hyd (free-)Surface option */
(PID.TID 0000.0001)                       0
(PID.TID 0000.0001)     ;
(PID.TID 0000.0001) quasiHydrostatic = /* Quasi-Hydrostatic on/off flag */
(PID.TID 0000.0001)                   F
(PID.TID 0000.0001)     ;
(PID.TID 0000.0001) calc_wVelocity = /* vertical velocity calculation on/off flag */
(PID.TID 0000.0001)                   T
(PID.TID 0000.0001)     ;
(PID.TID 0000.0001) momStepping =  /* Momentum equation on/off flag */
(PID.TID 0000.0001)                   T
(PID.TID 0000.0001)     ;
(PID.TID 0000.0001) vectorInvariantMomentum= /* Vector-Invariant Momentum on/off */
(PID.TID 0000.0001)                   F
(PID.TID 0000.0001)     ;
(PID.TID 0000.0001) momAdvection =  /* Momentum advection on/off flag */
(PID.TID 0000.0001)                   T
(PID.TID 0000.0001)     ;
(PID.TID 0000.0001) momViscosity =  /* Momentum viscosity on/off flag */
(PID.TID 0000.0001)                   T
(PID.TID 0000.0001)     ;
(PID.TID 0000.0001) momImplVertAdv= /* Momentum implicit vert. advection on/off*/
(PID.TID 0000.0001)                   F
(PID.TID 0000.0001)     ;
(PID.TID 0000.0001) implicitViscosity = /* Implicit viscosity on/off flag */
(PID.TID 0000.0001)                   F
(PID.TID 0000.0001)     ;
(PID.TID 0000.0001) implBottomFriction= /* Implicit bottom friction on/off flag */
(PID.TID 0000.0001)                   F
(PID.TID 0000.0001)     ;
(PID.TID 0000.0001) metricTerms =  /* metric-Terms on/off flag */
(PID.TID 0000.0001)                   T
(PID.TID 0000.0001)     ;
(PID.TID 0000.0001) useNHMTerms = /* Non-Hydrostatic Metric-Terms on/off */
(PID.TID 0000.0001)                   F
(PID.TID 0000.0001)     ;
(PID.TID 0000.0001) selectCoriMap = /* Coriolis Map options (0,1,2,3)*/
(PID.TID 0000.0001)                       2
(PID.TID 0000.0001)     0= f-Plane ; 1= Beta-Plane ; 2= Spherical ; 3= read from file
(PID.TID 0000.0001)     ;
(PID.TID 0000.0001) use3dCoriolis = /* 3-D Coriolis on/off flag */
(PID.TID 0000.0001)                   F
(PID.TID 0000.0001)     ;
(PID.TID 0000.0001) useCoriolis =  /* Coriolis on/off flag */
(PID.TID 0000.0001)                   T
(PID.TID 0000.0001)     ;
(PID.TID 0000.0001) useCDscheme =  /* CD scheme on/off flag */
(PID.TID 0000.0001)                   T
(PID.TID 0000.0001)     ;
(PID.TID 0000.0001) useEnergyConservingCoriolis= /* Flx-Form Coriolis scheme flag */
(PID.TID 0000.0001)                   F
(PID.TID 0000.0001)     ;
(PID.TID 0000.0001) useJamartWetPoints= /* Coriolis WetPoints method flag */
(PID.TID 0000.0001)                   F
(PID.TID 0000.0001)     ;
(PID.TID 0000.0001) useJamartMomAdv= /* V.I Non-linear terms Jamart flag */
(PID.TID 0000.0001)                   F
(PID.TID 0000.0001)     ;
(PID.TID 0000.0001) useAbsVorticity= /* V.I Works with f+zeta in Coriolis */
(PID.TID 0000.0001)                   F
(PID.TID 0000.0001)     ;
(PID.TID 0000.0001) selectVortScheme= /* V.I Scheme selector for Vorticity-Term */
(PID.TID 0000.0001)               123456789
(PID.TID 0000.0001)    = 0 : enstrophy (Shallow-Water Eq.) conserving scheme by Sadourny, JAS 75
(PID.TID 0000.0001)    = 1 : same as 0 with modified hFac
(PID.TID 0000.0001)    = 2 : energy conserving scheme (used by Sadourny in JAS 75 paper)
(PID.TID 0000.0001)    = 3 : energy (general) and enstrophy (2D, nonDiv.) conserving scheme
(PID.TID 0000.0001)          from Sadourny (Burridge & Haseler, ECMWF Rep.4, 1977)
(PID.TID 0000.0001)     ;
(PID.TID 0000.0001) upwindVorticity= /* V.I Upwind bias vorticity flag */
(PID.TID 0000.0001)                   F
(PID.TID 0000.0001)     ;
(PID.TID 0000.0001) highOrderVorticity= /* V.I High order vort. advect. flag */
(PID.TID 0000.0001)                   F
(PID.TID 0000.0001)     ;
(PID.TID 0000.0001) upwindShear= /* V.I Upwind vertical Shear advection flag */
(PID.TID 0000.0001)                   F
(PID.TID 0000.0001)     ;
(PID.TID 0000.0001) selectKEscheme= /* V.I Kinetic Energy scheme selector */
(PID.TID 0000.0001)                       0
(PID.TID 0000.0001)     ;
(PID.TID 0000.0001) momForcing =  /* Momentum forcing on/off flag */
(PID.TID 0000.0001)                   T
(PID.TID 0000.0001)     ;
(PID.TID 0000.0001) momPressureForcing =  /* Momentum pressure term on/off flag */
(PID.TID 0000.0001)                   T
(PID.TID 0000.0001)     ;
(PID.TID 0000.0001) implicitIntGravWave= /* Implicit Internal Gravity Wave flag */
(PID.TID 0000.0001)                   F
(PID.TID 0000.0001)     ;
(PID.TID 0000.0001) staggerTimeStep =    /* Stagger time stepping on/off flag */
(PID.TID 0000.0001)                   F
(PID.TID 0000.0001)     ;
(PID.TID 0000.0001) doResetHFactors = /* reset thickness factors @ each time-step */
(PID.TID 0000.0001)                   F
(PID.TID 0000.0001)     ;
(PID.TID 0000.0001) multiDimAdvection =  /* enable/disable Multi-Dim Advection */
(PID.TID 0000.0001)                   T
(PID.TID 0000.0001)     ;
(PID.TID 0000.0001) useMultiDimAdvec =   /* Multi-Dim Advection is/is-not used */
(PID.TID 0000.0001)                   F
(PID.TID 0000.0001)     ;
(PID.TID 0000.0001) implicitDiffusion = /* Implicit Diffusion on/off flag */
(PID.TID 0000.0001)                   F
(PID.TID 0000.0001)     ;
(PID.TID 0000.0001) tempStepping =  /* Temperature equation on/off flag */
(PID.TID 0000.0001)                   T
(PID.TID 0000.0001)     ;
(PID.TID 0000.0001) tempAdvection = /* Temperature advection on/off flag */
(PID.TID 0000.0001)                   T
(PID.TID 0000.0001)     ;
(PID.TID 0000.0001) tempImplVertAdv = /* Temp. implicit vert. advection on/off */
(PID.TID 0000.0001)                   F
(PID.TID 0000.0001)     ;
(PID.TID 0000.0001) tempForcing  =  /* Temperature forcing on/off flag */
(PID.TID 0000.0001)                   T
(PID.TID 0000.0001)     ;
(PID.TID 0000.0001) doThetaClimRelax = /* apply SST relaxation on/off flag */
(PID.TID 0000.0001)                   F
(PID.TID 0000.0001)     ;
(PID.TID 0000.0001) tempIsActiveTr = /* Temp. is a dynamically Active Tracer */
(PID.TID 0000.0001)                   T
(PID.TID 0000.0001)     ;
(PID.TID 0000.0001) saltStepping =  /* Salinity equation on/off flag */
(PID.TID 0000.0001)                   T
(PID.TID 0000.0001)     ;
(PID.TID 0000.0001) saltAdvection = /* Salinity advection on/off flag */
(PID.TID 0000.0001)                   T
(PID.TID 0000.0001)     ;
(PID.TID 0000.0001) saltImplVertAdv = /* Sali. implicit vert. advection on/off */
(PID.TID 0000.0001)                   F
(PID.TID 0000.0001)     ;
(PID.TID 0000.0001) saltForcing  =  /* Salinity forcing on/off flag */
(PID.TID 0000.0001)                   T
(PID.TID 0000.0001)     ;
(PID.TID 0000.0001) doSaltClimRelax = /* apply SSS relaxation on/off flag */
(PID.TID 0000.0001)                   F
(PID.TID 0000.0001)     ;
(PID.TID 0000.0001) saltIsActiveTr = /* Salt  is a dynamically Active Tracer */
(PID.TID 0000.0001)                   T
(PID.TID 0000.0001)     ;
(PID.TID 0000.0001)  readBinaryPrec = /* Precision used for reading binary files */
(PID.TID 0000.0001)                      64
(PID.TID 0000.0001)     ;
(PID.TID 0000.0001) writeBinaryPrec = /* Precision used for writing binary files */
(PID.TID 0000.0001)                      32
(PID.TID 0000.0001)     ;
(PID.TID 0000.0001)  globalFiles = /* write "global" (=not per tile) files */
(PID.TID 0000.0001)                   F
(PID.TID 0000.0001)     ;
(PID.TID 0000.0001)  useSingleCpuIO = /* only master MPI process does I/O */
(PID.TID 0000.0001)                   F
(PID.TID 0000.0001)     ;
(PID.TID 0000.0001)  useSingleCpuInput = /* only master process reads input */
(PID.TID 0000.0001)                   F
(PID.TID 0000.0001)     ;
(PID.TID 0000.0001) /* debLev[*]  : level of debug & auxiliary message printing */
(PID.TID 0000.0001) debLevZero =  0 ; /* level of disabled aux. msg printing */
(PID.TID 0000.0001)    debLevA =  1 ; /* level of minimum  aux. msg printing */
(PID.TID 0000.0001)    debLevB =  2 ; /* level of low aux. print (report read-file opening)*/
(PID.TID 0000.0001)    debLevC =  3 ; /* level of moderate debug prt (most pkgs debug msg) */
(PID.TID 0000.0001)    debLevD =  4 ; /* level of enhanced debug prt (add DEBUG_STATS prt) */
(PID.TID 0000.0001)    debLevE =  5 ; /* level of extensive debug printing */
(PID.TID 0000.0001) debugLevel =  /* select debug printing level */
(PID.TID 0000.0001)                       2
(PID.TID 0000.0001)     ;
(PID.TID 0000.0001) //
(PID.TID 0000.0001) // Elliptic solver(s) paramters ( PARM02 in namelist )
(PID.TID 0000.0001) //
(PID.TID 0000.0001) cg2dMaxIters =   /* Upper limit on 2d con. grad iterations  */
(PID.TID 0000.0001)                    1000
(PID.TID 0000.0001)     ;
(PID.TID 0000.0001) cg2dChkResFreq =   /* 2d con. grad convergence test frequency */
(PID.TID 0000.0001)                       1
(PID.TID 0000.0001)     ;
(PID.TID 0000.0001) cg2dUseMinResSol= /* use cg2d last-iter(=0) / min-resid.(=1) solution */
(PID.TID 0000.0001)                       0
(PID.TID 0000.0001)     ;
(PID.TID 0000.0001) cg2dTargetResidual =   /* 2d con. grad target residual  */
(PID.TID 0000.0001)                 1.000000000000000E-13
(PID.TID 0000.0001)     ;
(PID.TID 0000.0001) cg2dTargetResWunit =   /* CG2d target residual [W units] */
(PID.TID 0000.0001)                -1.000000000000000E+00
(PID.TID 0000.0001)     ;
(PID.TID 0000.0001) cg2dPreCondFreq =   /* Freq. for updating cg2d preconditioner */
(PID.TID 0000.0001)                       1
(PID.TID 0000.0001)     ;
(PID.TID 0000.0001) useSRCGSolver =  /* use single reduction CG solver(s) */
(PID.TID 0000.0001)                   F
(PID.TID 0000.0001)     ;
(PID.TID 0000.0001) printResidualFreq = /* Freq. for printing CG residual */
(PID.TID 0000.0001)                       0
(PID.TID 0000.0001)     ;
(PID.TID 0000.0001) //
(PID.TID 0000.0001) // Time stepping paramters ( PARM03 in namelist )
(PID.TID 0000.0001) //
(PID.TID 0000.0001) deltaTMom =   /* Momentum equation timestep ( s ) */
(PID.TID 0000.0001)                 1.800000000000000E+03
(PID.TID 0000.0001)     ;
(PID.TID 0000.0001) deltaTFreeSurf = /* FreeSurface equation timestep ( s ) */
(PID.TID 0000.0001)                 1.800000000000000E+03
(PID.TID 0000.0001)     ;
(PID.TID 0000.0001) dTtracerLev =  /* Tracer equation timestep ( s ) */
(PID.TID 0000.0001)    30 @  1.800000000000000E+03              /* K =  1: 30 */
(PID.TID 0000.0001)     ;
(PID.TID 0000.0001) deltaTClock  =   /* Model clock timestep ( s ) */
(PID.TID 0000.0001)                 1.800000000000000E+03
(PID.TID 0000.0001)     ;
(PID.TID 0000.0001) cAdjFreq =   /* Convective adjustment interval ( s ) */
(PID.TID 0000.0001)                 1.800000000000000E+03
(PID.TID 0000.0001)     ;
(PID.TID 0000.0001) momForcingOutAB = /* =1: take Momentum Forcing out of Adams-Bash. stepping */
(PID.TID 0000.0001)                       0
(PID.TID 0000.0001)     ;
(PID.TID 0000.0001) tracForcingOutAB = /* =1: take T,S,pTr Forcing out of Adams-Bash. stepping */
(PID.TID 0000.0001)                       0
(PID.TID 0000.0001)     ;
(PID.TID 0000.0001) momDissip_In_AB = /* put Dissipation Tendency in Adams-Bash. stepping */
(PID.TID 0000.0001)                   T
(PID.TID 0000.0001)     ;
(PID.TID 0000.0001) doAB_onGtGs = /* apply AB on Tendencies (rather than on T,S)*/
(PID.TID 0000.0001)                   T
(PID.TID 0000.0001)     ;
(PID.TID 0000.0001) abEps =   /* Adams-Bashforth-2 stabilizing weight */
(PID.TID 0000.0001)                 1.000000000000000E-01
(PID.TID 0000.0001)     ;
(PID.TID 0000.0001) tauCD =   /* CD coupling time-scale ( s ) */
(PID.TID 0000.0001)                 4.000000000000000E+05
(PID.TID 0000.0001)     ;
(PID.TID 0000.0001) rCD =   /* Normalised CD coupling parameter */
(PID.TID 0000.0001)                 9.955000000000001E-01
(PID.TID 0000.0001)     ;
(PID.TID 0000.0001) epsAB_CD = /* AB-2 stabilizing weight for CD-scheme*/
(PID.TID 0000.0001)                 1.000000000000000E-01
(PID.TID 0000.0001)     ;
(PID.TID 0000.0001) pickupStrictlyMatch= /* stop if pickup do not strictly match */
(PID.TID 0000.0001)                   T
(PID.TID 0000.0001)     ;
(PID.TID 0000.0001) nIter0   =   /* Run starting timestep number */
(PID.TID 0000.0001)                       0
(PID.TID 0000.0001)     ;
(PID.TID 0000.0001) nTimeSteps = /* Number of timesteps */
(PID.TID 0000.0001)                      20
(PID.TID 0000.0001)     ;
(PID.TID 0000.0001) nEndIter =   /* Run ending timestep number */
(PID.TID 0000.0001)                      20
(PID.TID 0000.0001)     ;
(PID.TID 0000.0001) baseTime =   /* Model base time ( s ) */
(PID.TID 0000.0001)                 0.000000000000000E+00
(PID.TID 0000.0001)     ;
(PID.TID 0000.0001) startTime =  /* Run start time ( s ) */
(PID.TID 0000.0001)                 0.000000000000000E+00
(PID.TID 0000.0001)     ;
(PID.TID 0000.0001) endTime  =   /* Integration ending time ( s ) */
(PID.TID 0000.0001)                 3.600000000000000E+04
(PID.TID 0000.0001)     ;
(PID.TID 0000.0001) pChkPtFreq = /* Permanent restart/pickup file interval ( s ) */
(PID.TID 0000.0001)                 0.000000000000000E+00
(PID.TID 0000.0001)     ;
(PID.TID 0000.0001) chkPtFreq  = /* Rolling restart/pickup file interval ( s ) */
(PID.TID 0000.0001)                 0.000000000000000E+00
(PID.TID 0000.0001)     ;
(PID.TID 0000.0001) pickup_write_mdsio =   /* Model IO flag. */
(PID.TID 0000.0001)                   T
(PID.TID 0000.0001)     ;
(PID.TID 0000.0001) pickup_read_mdsio =   /* Model IO flag. */
(PID.TID 0000.0001)                   T
(PID.TID 0000.0001)     ;
(PID.TID 0000.0001) pickup_write_mnc =   /* Model IO flag. */
(PID.TID 0000.0001)                   F
(PID.TID 0000.0001)     ;
(PID.TID 0000.0001) pickup_read_mnc =   /* Model IO flag. */
(PID.TID 0000.0001)                   F
(PID.TID 0000.0001)     ;
(PID.TID 0000.0001) pickup_write_immed =   /* Model IO flag. */
(PID.TID 0000.0001)                   F
(PID.TID 0000.0001)     ;
(PID.TID 0000.0001) writePickupAtEnd =   /* Model IO flag. */
(PID.TID 0000.0001)                   T
(PID.TID 0000.0001)     ;
(PID.TID 0000.0001) dumpFreq =   /* Model state write out interval ( s ). */
(PID.TID 0000.0001)                 0.000000000000000E+00
(PID.TID 0000.0001)     ;
(PID.TID 0000.0001) dumpInitAndLast= /* write out Initial & Last iter. model state */
(PID.TID 0000.0001)                   T
(PID.TID 0000.0001)     ;
(PID.TID 0000.0001) snapshot_mdsio =   /* Model IO flag. */
(PID.TID 0000.0001)                   T
(PID.TID 0000.0001)     ;
(PID.TID 0000.0001) snapshot_mnc =   /* Model IO flag. */
(PID.TID 0000.0001)                   F
(PID.TID 0000.0001)     ;
(PID.TID 0000.0001) monitorFreq =   /* Monitor output interval ( s ). */
(PID.TID 0000.0001)                 1.000000000000000E+00
(PID.TID 0000.0001)     ;
(PID.TID 0000.0001) monitorSelect = /* select group of variables to monitor */
(PID.TID 0000.0001)                       2
(PID.TID 0000.0001)     ;
(PID.TID 0000.0001) monitor_stdio =   /* Model IO flag. */
(PID.TID 0000.0001)                   T
(PID.TID 0000.0001)     ;
(PID.TID 0000.0001) monitor_mnc =   /* Model IO flag. */
(PID.TID 0000.0001)                   F
(PID.TID 0000.0001)     ;
(PID.TID 0000.0001) externForcingPeriod =   /* forcing period (s) */
(PID.TID 0000.0001)                 0.000000000000000E+00
(PID.TID 0000.0001)     ;
(PID.TID 0000.0001) externForcingCycle =   /* period of the cyle (s). */
(PID.TID 0000.0001)                 0.000000000000000E+00
(PID.TID 0000.0001)     ;
(PID.TID 0000.0001) tauThetaClimRelax =   /* relaxation time scale (s) */
(PID.TID 0000.0001)                 0.000000000000000E+00
(PID.TID 0000.0001)     ;
(PID.TID 0000.0001) tauSaltClimRelax =   /* relaxation time scale (s) */
(PID.TID 0000.0001)                 0.000000000000000E+00
(PID.TID 0000.0001)     ;
(PID.TID 0000.0001) latBandClimRelax =   /* max. Lat. where relaxation */
(PID.TID 0000.0001)                 1.800000000000000E+02
(PID.TID 0000.0001)     ;
(PID.TID 0000.0001) //
(PID.TID 0000.0001) // Gridding paramters ( PARM04 in namelist )
(PID.TID 0000.0001) //
(PID.TID 0000.0001) usingCartesianGrid = /* Cartesian coordinates flag ( True/False ) */
(PID.TID 0000.0001)                   F
(PID.TID 0000.0001)     ;
(PID.TID 0000.0001) usingCylindricalGrid = /* Cylindrical coordinates flag ( True/False ) */
(PID.TID 0000.0001)                   F
(PID.TID 0000.0001)     ;
(PID.TID 0000.0001) usingSphericalPolarGrid = /* Spherical coordinates flag ( True/False ) */
(PID.TID 0000.0001)                   T
(PID.TID 0000.0001)     ;
(PID.TID 0000.0001) usingCurvilinearGrid = /* Curvilinear coordinates flag ( True/False ) */
(PID.TID 0000.0001)                   F
(PID.TID 0000.0001)     ;
(PID.TID 0000.0001) selectSigmaCoord = /* Hybrid-Sigma Vert. Coordinate option */
(PID.TID 0000.0001)                       0
(PID.TID 0000.0001)     ;
(PID.TID 0000.0001) Ro_SeaLevel = /* r(1) ( units of r ==  m ) */
(PID.TID 0000.0001)                 0.000000000000000E+00
(PID.TID 0000.0001)     ;
(PID.TID 0000.0001) rSigmaBnd = /* r/sigma transition ( units of r ==  m ) */
(PID.TID 0000.0001)                 1.234567000000000E+05
(PID.TID 0000.0001)     ;
(PID.TID 0000.0001) rkSign =   /* index orientation relative to vertical coordinate */
(PID.TID 0000.0001)                -1.000000000000000E+00
(PID.TID 0000.0001)     ;
(PID.TID 0000.0001) gravitySign = /* gravity orientation relative to vertical coordinate */
(PID.TID 0000.0001)                -1.000000000000000E+00
(PID.TID 0000.0001)     ;
(PID.TID 0000.0001) mass2rUnit = /* convert mass per unit area [kg/m2] to r-units [m] */
(PID.TID 0000.0001)                 9.708737864077669E-04
(PID.TID 0000.0001)     ;
(PID.TID 0000.0001) rUnit2mass = /* convert r-units [m] to mass per unit area [kg/m2] */
(PID.TID 0000.0001)                 1.030000000000000E+03
(PID.TID 0000.0001)     ;
(PID.TID 0000.0001) drC =   /* C spacing ( units of r ) */
(PID.TID 0000.0001)                 1.500000000000000E+01,      /* K =  1 */
(PID.TID 0000.0001)    29 @  3.000000000000000E+01,             /* K =  2: 30 */
(PID.TID 0000.0001)                 1.500000000000000E+01       /* K = 31 */
(PID.TID 0000.0001)     ;
(PID.TID 0000.0001) drF =   /* W spacing ( units of r ) */
(PID.TID 0000.0001)    30 @  3.000000000000000E+01              /* K =  1: 30 */
(PID.TID 0000.0001)     ;
(PID.TID 0000.0001) delX = /* U spacing ( m - cartesian, degrees - spherical ) */
(PID.TID 0000.0001)    50 @  3.000000000000000E-01              /* I =  1: 50 */
(PID.TID 0000.0001)     ;
(PID.TID 0000.0001) delY = /* V spacing ( m - cartesian, degrees - spherical ) */
(PID.TID 0000.0001)   100 @  1.000000000000000E-01              /* J =  1:100 */
(PID.TID 0000.0001)     ;
(PID.TID 0000.0001) xgOrigin = /* X-axis origin of West  edge (cartesian: m, lat-lon: deg) */
(PID.TID 0000.0001)                 0.000000000000000E+00
(PID.TID 0000.0001)     ;
(PID.TID 0000.0001) ygOrigin = /* Y-axis origin of South edge (cartesian: m, lat-lon: deg) */
(PID.TID 0000.0001)                -8.000000000000000E+01
(PID.TID 0000.0001)     ;
(PID.TID 0000.0001) rSphere =  /* Radius ( ignored - cartesian, m - spherical ) */
(PID.TID 0000.0001)                 6.370000000000000E+06
(PID.TID 0000.0001)     ;
(PID.TID 0000.0001) deepAtmosphere = /* Deep/Shallow Atmosphere flag (True/False) */
(PID.TID 0000.0001)                   F
(PID.TID 0000.0001)     ;
(PID.TID 0000.0001) xC =  /* xC(:,1,:,1) : P-point X coord ( deg. or m if cartesian) */
(PID.TID 0000.0001)                 1.500000000000001E-01,      /* I =  1 */
(PID.TID 0000.0001)                 4.500000000000001E-01,      /* I =  2 */
(PID.TID 0000.0001)                 7.500000000000002E-01,      /* I =  3 */
(PID.TID 0000.0001)                 1.050000000000000E+00,      /* I =  4 */
(PID.TID 0000.0001)                 1.350000000000000E+00,      /* I =  5 */
(PID.TID 0000.0001)                 1.650000000000000E+00,      /* I =  6 */
(PID.TID 0000.0001)                 1.950000000000000E+00,      /* I =  7 */
(PID.TID 0000.0001)                 2.250000000000000E+00,      /* I =  8 */
(PID.TID 0000.0001)                 2.550000000000000E+00,      /* I =  9 */
(PID.TID 0000.0001)                 2.850000000000000E+00,      /* I = 10 */
(PID.TID 0000.0001)                 3.149999999999999E+00,      /* I = 11 */
(PID.TID 0000.0001)                 3.449999999999999E+00,      /* I = 12 */
(PID.TID 0000.0001)                 3.749999999999999E+00,      /* I = 13 */
(PID.TID 0000.0001)                 4.049999999999999E+00,      /* I = 14 */
(PID.TID 0000.0001)                 4.350000000000000E+00,      /* I = 15 */
(PID.TID 0000.0001)                 4.649999999999999E+00,      /* I = 16 */
(PID.TID 0000.0001)                 4.949999999999999E+00,      /* I = 17 */
(PID.TID 0000.0001)                 5.249999999999998E+00,      /* I = 18 */
(PID.TID 0000.0001)                 5.549999999999999E+00,      /* I = 19 */
(PID.TID 0000.0001)                 5.849999999999998E+00,      /* I = 20 */
(PID.TID 0000.0001)                 6.149999999999999E+00,      /* I = 21 */
(PID.TID 0000.0001)                 6.449999999999998E+00,      /* I = 22 */
(PID.TID 0000.0001)                 6.749999999999998E+00,      /* I = 23 */
(PID.TID 0000.0001)                 7.049999999999997E+00,      /* I = 24 */
(PID.TID 0000.0001)                 7.349999999999997E+00,      /* I = 25 */
(PID.TID 0000.0001)                 7.649999999999997E+00,      /* I = 26 */
(PID.TID 0000.0001)                 7.949999999999998E+00,      /* I = 27 */
(PID.TID 0000.0001)                 8.249999999999998E+00,      /* I = 28 */
(PID.TID 0000.0001)                 8.549999999999999E+00,      /* I = 29 */
(PID.TID 0000.0001)                 8.850000000000000E+00,      /* I = 30 */
(PID.TID 0000.0001)                 9.150000000000000E+00,      /* I = 31 */
(PID.TID 0000.0001)                 9.450000000000001E+00,      /* I = 32 */
(PID.TID 0000.0001)                 9.750000000000002E+00,      /* I = 33 */
(PID.TID 0000.0001)                 1.005000000000000E+01,      /* I = 34 */
(PID.TID 0000.0001)                 1.035000000000000E+01,      /* I = 35 */
(PID.TID 0000.0001)                 1.065000000000000E+01,      /* I = 36 */
(PID.TID 0000.0001)                 1.095000000000001E+01,      /* I = 37 */
(PID.TID 0000.0001)                 1.125000000000001E+01,      /* I = 38 */
(PID.TID 0000.0001)                 1.155000000000000E+01,      /* I = 39 */
(PID.TID 0000.0001)                 1.185000000000001E+01,      /* I = 40 */
(PID.TID 0000.0001)                 1.215000000000001E+01,      /* I = 41 */
(PID.TID 0000.0001)                 1.245000000000001E+01,      /* I = 42 */
(PID.TID 0000.0001)                 1.275000000000001E+01,      /* I = 43 */
(PID.TID 0000.0001)                 1.305000000000001E+01,      /* I = 44 */
(PID.TID 0000.0001)                 1.335000000000001E+01,      /* I = 45 */
(PID.TID 0000.0001)                 1.365000000000001E+01,      /* I = 46 */
(PID.TID 0000.0001)                 1.395000000000001E+01,      /* I = 47 */
(PID.TID 0000.0001)                 1.425000000000001E+01,      /* I = 48 */
(PID.TID 0000.0001)                 1.455000000000001E+01,      /* I = 49 */
(PID.TID 0000.0001)                 1.485000000000001E+01       /* I = 50 */
(PID.TID 0000.0001)     ;
(PID.TID 0000.0001) yC =  /* yC(1,:,1,:) : P-point Y coord ( deg. or m if cartesian) */
(PID.TID 0000.0001)                -7.995000000000000E+01,      /* J =  1 */
(PID.TID 0000.0001)                -7.985000000000001E+01,      /* J =  2 */
(PID.TID 0000.0001)                -7.975000000000001E+01,      /* J =  3 */
(PID.TID 0000.0001)      . . .
(PID.TID 0000.0001)                -7.775000000000013E+01,      /* J = 23 */
(PID.TID 0000.0001)                -7.765000000000013E+01,      /* J = 24 */
(PID.TID 0000.0001)                -7.755000000000014E+01,      /* J = 25 */
(PID.TID 0000.0001)                -7.745000000000014E+01,      /* J = 26 */
(PID.TID 0000.0001)                -7.735000000000015E+01,      /* J = 27 */
(PID.TID 0000.0001)                -7.725000000000016E+01,      /* J = 28 */
(PID.TID 0000.0001)      . . .
(PID.TID 0000.0001)                -7.525000000000027E+01,      /* J = 48 */
(PID.TID 0000.0001)                -7.515000000000028E+01,      /* J = 49 */
(PID.TID 0000.0001)                -7.505000000000028E+01,      /* J = 50 */
(PID.TID 0000.0001)                -7.495000000000029E+01,      /* J = 51 */
(PID.TID 0000.0001)                -7.485000000000029E+01,      /* J = 52 */
(PID.TID 0000.0001)                -7.475000000000030E+01,      /* J = 53 */
(PID.TID 0000.0001)      . . .
(PID.TID 0000.0001)                -7.275000000000041E+01,      /* J = 73 */
(PID.TID 0000.0001)                -7.265000000000042E+01,      /* J = 74 */
(PID.TID 0000.0001)                -7.255000000000042E+01,      /* J = 75 */
(PID.TID 0000.0001)                -7.245000000000043E+01,      /* J = 76 */
(PID.TID 0000.0001)                -7.235000000000043E+01,      /* J = 77 */
(PID.TID 0000.0001)                -7.225000000000044E+01,      /* J = 78 */
(PID.TID 0000.0001)      . . .
(PID.TID 0000.0001)                -7.025000000000055E+01,      /* J = 98 */
(PID.TID 0000.0001)                -7.015000000000056E+01,      /* J = 99 */
(PID.TID 0000.0001)                -7.005000000000057E+01       /* J =100 */
(PID.TID 0000.0001)     ;
(PID.TID 0000.0001) rcoord = /* P-point R coordinate (  units of r ) */
(PID.TID 0000.0001)                -1.500000000000000E+01,      /* K =  1 */
(PID.TID 0000.0001)                -4.500000000000000E+01,      /* K =  2 */
(PID.TID 0000.0001)                -7.500000000000000E+01,      /* K =  3 */
(PID.TID 0000.0001)                -1.050000000000000E+02,      /* K =  4 */
(PID.TID 0000.0001)                -1.350000000000000E+02,      /* K =  5 */
(PID.TID 0000.0001)                -1.650000000000000E+02,      /* K =  6 */
(PID.TID 0000.0001)                -1.950000000000000E+02,      /* K =  7 */
(PID.TID 0000.0001)                -2.250000000000000E+02,      /* K =  8 */
(PID.TID 0000.0001)                -2.550000000000000E+02,      /* K =  9 */
(PID.TID 0000.0001)                -2.850000000000000E+02,      /* K = 10 */
(PID.TID 0000.0001)                -3.150000000000000E+02,      /* K = 11 */
(PID.TID 0000.0001)                -3.450000000000000E+02,      /* K = 12 */
(PID.TID 0000.0001)                -3.750000000000000E+02,      /* K = 13 */
(PID.TID 0000.0001)                -4.050000000000000E+02,      /* K = 14 */
(PID.TID 0000.0001)                -4.350000000000000E+02,      /* K = 15 */
(PID.TID 0000.0001)                -4.650000000000000E+02,      /* K = 16 */
(PID.TID 0000.0001)                -4.950000000000000E+02,      /* K = 17 */
(PID.TID 0000.0001)                -5.250000000000000E+02,      /* K = 18 */
(PID.TID 0000.0001)                -5.550000000000000E+02,      /* K = 19 */
(PID.TID 0000.0001)                -5.850000000000000E+02,      /* K = 20 */
(PID.TID 0000.0001)                -6.150000000000000E+02,      /* K = 21 */
(PID.TID 0000.0001)                -6.450000000000000E+02,      /* K = 22 */
(PID.TID 0000.0001)                -6.750000000000000E+02,      /* K = 23 */
(PID.TID 0000.0001)                -7.050000000000000E+02,      /* K = 24 */
(PID.TID 0000.0001)                -7.350000000000000E+02,      /* K = 25 */
(PID.TID 0000.0001)                -7.650000000000000E+02,      /* K = 26 */
(PID.TID 0000.0001)                -7.950000000000000E+02,      /* K = 27 */
(PID.TID 0000.0001)                -8.250000000000000E+02,      /* K = 28 */
(PID.TID 0000.0001)                -8.550000000000000E+02,      /* K = 29 */
(PID.TID 0000.0001)                -8.850000000000000E+02       /* K = 30 */
(PID.TID 0000.0001)     ;
(PID.TID 0000.0001) rF =   /* W-Interf. R coordinate (  units of r ) */
(PID.TID 0000.0001)                 0.000000000000000E+00,      /* K =  1 */
(PID.TID 0000.0001)                -3.000000000000000E+01,      /* K =  2 */
(PID.TID 0000.0001)                -6.000000000000000E+01,      /* K =  3 */
(PID.TID 0000.0001)                -9.000000000000000E+01,      /* K =  4 */
(PID.TID 0000.0001)                -1.200000000000000E+02,      /* K =  5 */
(PID.TID 0000.0001)                -1.500000000000000E+02,      /* K =  6 */
(PID.TID 0000.0001)                -1.800000000000000E+02,      /* K =  7 */
(PID.TID 0000.0001)                -2.100000000000000E+02,      /* K =  8 */
(PID.TID 0000.0001)                -2.400000000000000E+02,      /* K =  9 */
(PID.TID 0000.0001)                -2.700000000000000E+02,      /* K = 10 */
(PID.TID 0000.0001)                -3.000000000000000E+02,      /* K = 11 */
(PID.TID 0000.0001)                -3.300000000000000E+02,      /* K = 12 */
(PID.TID 0000.0001)                -3.600000000000000E+02,      /* K = 13 */
(PID.TID 0000.0001)                -3.900000000000000E+02,      /* K = 14 */
(PID.TID 0000.0001)                -4.200000000000000E+02,      /* K = 15 */
(PID.TID 0000.0001)                -4.500000000000000E+02,      /* K = 16 */
(PID.TID 0000.0001)                -4.800000000000000E+02,      /* K = 17 */
(PID.TID 0000.0001)                -5.100000000000000E+02,      /* K = 18 */
(PID.TID 0000.0001)                -5.400000000000000E+02,      /* K = 19 */
(PID.TID 0000.0001)                -5.700000000000000E+02,      /* K = 20 */
(PID.TID 0000.0001)                -6.000000000000000E+02,      /* K = 21 */
(PID.TID 0000.0001)                -6.300000000000000E+02,      /* K = 22 */
(PID.TID 0000.0001)                -6.600000000000000E+02,      /* K = 23 */
(PID.TID 0000.0001)                -6.900000000000000E+02,      /* K = 24 */
(PID.TID 0000.0001)                -7.200000000000000E+02,      /* K = 25 */
(PID.TID 0000.0001)                -7.500000000000000E+02,      /* K = 26 */
(PID.TID 0000.0001)                -7.800000000000000E+02,      /* K = 27 */
(PID.TID 0000.0001)                -8.100000000000000E+02,      /* K = 28 */
(PID.TID 0000.0001)                -8.400000000000000E+02,      /* K = 29 */
(PID.TID 0000.0001)                -8.700000000000000E+02,      /* K = 30 */
(PID.TID 0000.0001)                -9.000000000000000E+02       /* K = 31 */
(PID.TID 0000.0001)     ;
(PID.TID 0000.0001) deepFacC = /* deep-model grid factor @ cell-Center (-) */
(PID.TID 0000.0001)    30 @  1.000000000000000E+00              /* K =  1: 30 */
(PID.TID 0000.0001)     ;
(PID.TID 0000.0001) deepFacF = /* deep-model grid factor @ W-Interface (-) */
(PID.TID 0000.0001)    31 @  1.000000000000000E+00              /* K =  1: 31 */
(PID.TID 0000.0001)     ;
(PID.TID 0000.0001) rVel2wUnit = /* convert units: rVel -> wSpeed (=1 if z-coord)*/
(PID.TID 0000.0001)    31 @  1.000000000000000E+00              /* K =  1: 31 */
(PID.TID 0000.0001)     ;
(PID.TID 0000.0001) wUnit2rVel = /* convert units: wSpeed -> rVel (=1 if z-coord)*/
(PID.TID 0000.0001)    31 @  1.000000000000000E+00              /* K =  1: 31 */
(PID.TID 0000.0001)     ;
(PID.TID 0000.0001) dBdrRef = /* Vertical grad. of reference buoyancy [(m/s/r)^2] */
(PID.TID 0000.0001)    30 @  0.000000000000000E+00              /* K =  1: 30 */
(PID.TID 0000.0001)     ;
(PID.TID 0000.0001) rotateGrid = /* use rotated grid ( True/False ) */
(PID.TID 0000.0001)                   F
(PID.TID 0000.0001)     ;
(PID.TID 0000.0001) phiEuler = /* Euler angle, rotation about original z-coordinate [rad] */
(PID.TID 0000.0001)                 0.000000000000000E+00
(PID.TID 0000.0001)     ;
(PID.TID 0000.0001) thetaEuler = /* Euler angle, rotation about new x-coordinate [rad] */
(PID.TID 0000.0001)                 0.000000000000000E+00
(PID.TID 0000.0001)     ;
(PID.TID 0000.0001) psiEuler = /* Euler angle, rotation about new z-coordinate [rad] */
(PID.TID 0000.0001)                 0.000000000000000E+00
(PID.TID 0000.0001)     ;
(PID.TID 0000.0001) dxF =  /* dxF(:,1,:,1) ( units: m ) */
(PID.TID 0000.0001)    50 @  5.820391490558872E+03              /* I =  1: 50 */
(PID.TID 0000.0001)     ;
(PID.TID 0000.0001) dxF =  /* dxF(1,:,1,:) ( units: m ) */
(PID.TID 0000.0001)                 5.820391490558872E+03,      /* J =  1 */
(PID.TID 0000.0001)                 5.877701765291692E+03,      /* J =  2 */
(PID.TID 0000.0001)                 5.934994135525598E+03,      /* J =  3 */
(PID.TID 0000.0001)      . . .
(PID.TID 0000.0001)                 7.076813247621209E+03,      /* J = 23 */
(PID.TID 0000.0001)                 7.133689397375063E+03,      /* J = 24 */
(PID.TID 0000.0001)                 7.190543816673855E+03,      /* J = 25 */
(PID.TID 0000.0001)                 7.247376332329164E+03,      /* J = 26 */
(PID.TID 0000.0001)                 7.304186771219292E+03,      /* J = 27 */
(PID.TID 0000.0001)                 7.360974960289787E+03,      /* J = 28 */
(PID.TID 0000.0001)      . . .
(PID.TID 0000.0001)                 8.491800393599013E+03,      /* J = 48 */
(PID.TID 0000.0001)                 8.548081485571185E+03,      /* J = 49 */
(PID.TID 0000.0001)                 8.604336538604706E+03,      /* J = 50 */
(PID.TID 0000.0001)                 8.660565381336924E+03,      /* J = 51 */
(PID.TID 0000.0001)                 8.716767842485036E+03,      /* J = 52 */
(PID.TID 0000.0001)                 8.772943750846600E+03,      /* J = 53 */
(PID.TID 0000.0001)      . . .
(PID.TID 0000.0001)                 9.890622914885218E+03,      /* J = 73 */
(PID.TID 0000.0001)                 9.946201814818334E+03,      /* J = 74 */
(PID.TID 0000.0001)                 1.000175041689580E+04,      /* J = 75 */
(PID.TID 0000.0001)                 1.005726855190695E+04,      /* J = 76 */
(PID.TID 0000.0001)                 1.011275605073392E+04,      /* J = 77 */
(PID.TID 0000.0001)                 1.016821274435215E+04,      /* J = 78 */
(PID.TID 0000.0001)      . . .
(PID.TID 0000.0001)                 1.127061807330668E+04,      /* J = 98 */
(PID.TID 0000.0001)                 1.132538898360582E+04,      /* J = 99 */
(PID.TID 0000.0001)                 1.138012539480601E+04       /* J =100 */
(PID.TID 0000.0001)     ;
(PID.TID 0000.0001) dyF =  /* dyF(:,1,:,1) ( units: m ) */
(PID.TID 0000.0001)    50 @  1.111774733520388E+04              /* I =  1: 50 */
(PID.TID 0000.0001)     ;
(PID.TID 0000.0001) dyF =  /* dyF(1,:,1,:) ( units: m ) */
(PID.TID 0000.0001)   100 @  1.111774733520388E+04              /* J =  1:100 */
(PID.TID 0000.0001)     ;
(PID.TID 0000.0001) dxG =  /* dxG(:,1,:,1) ( units: m ) */
(PID.TID 0000.0001)    50 @  5.791729693558576E+03              /* I =  1: 50 */
(PID.TID 0000.0001)     ;
(PID.TID 0000.0001) dxG =  /* dxG(1,:,1,:) ( units: m ) */
(PID.TID 0000.0001)                 5.791729693558576E+03,      /* J =  1 */
(PID.TID 0000.0001)                 5.849048855077854E+03,      /* J =  2 */
(PID.TID 0000.0001)                 5.906350199379949E+03,      /* J =  3 */
(PID.TID 0000.0001)      . . .
(PID.TID 0000.0001)                 7.048367077963129E+03,      /* J = 23 */
(PID.TID 0000.0001)                 7.105254027978149E+03,      /* J = 24 */
(PID.TID 0000.0001)                 7.162119334157175E+03,      /* J = 25 */
(PID.TID 0000.0001)                 7.218962823278620E+03,      /* J = 26 */
(PID.TID 0000.0001)                 7.275784322187360E+03,      /* J = 27 */
(PID.TID 0000.0001)                 7.332583657795253E+03,      /* J = 28 */
(PID.TID 0000.0001)      . . .
(PID.TID 0000.0001)                 8.463650136583461E+03,      /* J = 48 */
(PID.TID 0000.0001)                 8.519944183739159E+03,      /* J = 49 */
(PID.TID 0000.0001)                 8.576212277667308E+03,      /* J = 50 */
(PID.TID 0000.0001)                 8.632454246965530E+03,      /* J = 51 */
(PID.TID 0000.0001)                 8.688669920311038E+03,      /* J = 52 */
(PID.TID 0000.0001)                 8.744859126461139E+03,      /* J = 53 */
(PID.TID 0000.0001)      . . .
(PID.TID 0000.0001)                 9.862822156126382E+03,      /* J = 73 */
(PID.TID 0000.0001)                 9.918416141504455E+03,      /* J = 74 */
(PID.TID 0000.0001)                 9.973979913666863E+03,      /* J = 75 */
(PID.TID 0000.0001)                 1.002951330335672E+04,      /* J = 76 */
(PID.TID 0000.0001)                 1.008501614140969E+04,      /* J = 77 */
(PID.TID 0000.0001)                 1.014048825875450E+04,      /* J = 78 */
(PID.TID 0000.0001)      . . .
(PID.TID 0000.0001)                 1.124321973312895E+04,      /* J = 98 */
(PID.TID 0000.0001)                 1.129800783041847E+04,      /* J = 99 */
(PID.TID 0000.0001)                 1.135276151201679E+04       /* J =100 */
(PID.TID 0000.0001)     ;
(PID.TID 0000.0001) dyG =  /* dyG(:,1,:,1) ( units: m ) */
(PID.TID 0000.0001)    50 @  1.111774733520388E+04              /* I =  1: 50 */
(PID.TID 0000.0001)     ;
(PID.TID 0000.0001) dyG =  /* dyG(1,:,1,:) ( units: m ) */
(PID.TID 0000.0001)   100 @  1.111774733520388E+04              /* J =  1:100 */
(PID.TID 0000.0001)     ;
(PID.TID 0000.0001) dxC =  /* dxC(:,1,:,1) ( units: m ) */
(PID.TID 0000.0001)    50 @  5.820391490558872E+03              /* I =  1: 50 */
(PID.TID 0000.0001)     ;
(PID.TID 0000.0001) dxC =  /* dxC(1,:,1,:) ( units: m ) */
(PID.TID 0000.0001)                 5.820391490558872E+03,      /* J =  1 */
(PID.TID 0000.0001)                 5.877701765291692E+03,      /* J =  2 */
(PID.TID 0000.0001)                 5.934994135525598E+03,      /* J =  3 */
(PID.TID 0000.0001)      . . .
(PID.TID 0000.0001)                 7.076813247621209E+03,      /* J = 23 */
(PID.TID 0000.0001)                 7.133689397375063E+03,      /* J = 24 */
(PID.TID 0000.0001)                 7.190543816673855E+03,      /* J = 25 */
(PID.TID 0000.0001)                 7.247376332329164E+03,      /* J = 26 */
(PID.TID 0000.0001)                 7.304186771219292E+03,      /* J = 27 */
(PID.TID 0000.0001)                 7.360974960289787E+03,      /* J = 28 */
(PID.TID 0000.0001)      . . .
(PID.TID 0000.0001)                 8.491800393599013E+03,      /* J = 48 */
(PID.TID 0000.0001)                 8.548081485571185E+03,      /* J = 49 */
(PID.TID 0000.0001)                 8.604336538604706E+03,      /* J = 50 */
(PID.TID 0000.0001)                 8.660565381336924E+03,      /* J = 51 */
(PID.TID 0000.0001)                 8.716767842485036E+03,      /* J = 52 */
(PID.TID 0000.0001)                 8.772943750846600E+03,      /* J = 53 */
(PID.TID 0000.0001)      . . .
(PID.TID 0000.0001)                 9.890622914885218E+03,      /* J = 73 */
(PID.TID 0000.0001)                 9.946201814818334E+03,      /* J = 74 */
(PID.TID 0000.0001)                 1.000175041689580E+04,      /* J = 75 */
(PID.TID 0000.0001)                 1.005726855190695E+04,      /* J = 76 */
(PID.TID 0000.0001)                 1.011275605073392E+04,      /* J = 77 */
(PID.TID 0000.0001)                 1.016821274435215E+04,      /* J = 78 */
(PID.TID 0000.0001)      . . .
(PID.TID 0000.0001)                 1.127061807330668E+04,      /* J = 98 */
(PID.TID 0000.0001)                 1.132538898360582E+04,      /* J = 99 */
(PID.TID 0000.0001)                 1.138012539480601E+04       /* J =100 */
(PID.TID 0000.0001)     ;
(PID.TID 0000.0001) dyC =  /* dyC(:,1,:,1) ( units: m ) */
(PID.TID 0000.0001)    50 @  1.111774733520388E+04              /* I =  1: 50 */
(PID.TID 0000.0001)     ;
(PID.TID 0000.0001) dyC =  /* dyC(1,:,1,:) ( units: m ) */
(PID.TID 0000.0001)   100 @  1.111774733520388E+04              /* J =  1:100 */
(PID.TID 0000.0001)     ;
(PID.TID 0000.0001) dxV =  /* dxV(:,1,:,1) ( units: m ) */
(PID.TID 0000.0001)    50 @  5.791729693558576E+03              /* I =  1: 50 */
(PID.TID 0000.0001)     ;
(PID.TID 0000.0001) dxV =  /* dxV(1,:,1,:) ( units: m ) */
(PID.TID 0000.0001)                 5.791729693558576E+03,      /* J =  1 */
(PID.TID 0000.0001)                 5.849048855077854E+03,      /* J =  2 */
(PID.TID 0000.0001)                 5.906350199379949E+03,      /* J =  3 */
(PID.TID 0000.0001)      . . .
(PID.TID 0000.0001)                 7.048367077963129E+03,      /* J = 23 */
(PID.TID 0000.0001)                 7.105254027978149E+03,      /* J = 24 */
(PID.TID 0000.0001)                 7.162119334157175E+03,      /* J = 25 */
(PID.TID 0000.0001)                 7.218962823278620E+03,      /* J = 26 */
(PID.TID 0000.0001)                 7.275784322187360E+03,      /* J = 27 */
(PID.TID 0000.0001)                 7.332583657795253E+03,      /* J = 28 */
(PID.TID 0000.0001)      . . .
(PID.TID 0000.0001)                 8.463650136583461E+03,      /* J = 48 */
(PID.TID 0000.0001)                 8.519944183739159E+03,      /* J = 49 */
(PID.TID 0000.0001)                 8.576212277667308E+03,      /* J = 50 */
(PID.TID 0000.0001)                 8.632454246965530E+03,      /* J = 51 */
(PID.TID 0000.0001)                 8.688669920311038E+03,      /* J = 52 */
(PID.TID 0000.0001)                 8.744859126461139E+03,      /* J = 53 */
(PID.TID 0000.0001)      . . .
(PID.TID 0000.0001)                 9.862822156126382E+03,      /* J = 73 */
(PID.TID 0000.0001)                 9.918416141504455E+03,      /* J = 74 */
(PID.TID 0000.0001)                 9.973979913666863E+03,      /* J = 75 */
(PID.TID 0000.0001)                 1.002951330335672E+04,      /* J = 76 */
(PID.TID 0000.0001)                 1.008501614140969E+04,      /* J = 77 */
(PID.TID 0000.0001)                 1.014048825875450E+04,      /* J = 78 */
(PID.TID 0000.0001)      . . .
(PID.TID 0000.0001)                 1.124321973312895E+04,      /* J = 98 */
(PID.TID 0000.0001)                 1.129800783041847E+04,      /* J = 99 */
(PID.TID 0000.0001)                 1.135276151201679E+04       /* J =100 */
(PID.TID 0000.0001)     ;
(PID.TID 0000.0001) dyU =  /* dyU(:,1,:,1) ( units: m ) */
(PID.TID 0000.0001)    50 @  1.111774733520388E+04              /* I =  1: 50 */
(PID.TID 0000.0001)     ;
(PID.TID 0000.0001) dyU =  /* dyU(1,:,1,:) ( units: m ) */
(PID.TID 0000.0001)   100 @  1.111774733520388E+04              /* J =  1:100 */
(PID.TID 0000.0001)     ;
(PID.TID 0000.0001) rA  =  /* rA (:,1,:,1) ( units: m^2 ) */
(PID.TID 0000.0001)    50 @  6.470963377080289E+07              /* I =  1: 50 */
(PID.TID 0000.0001)     ;
(PID.TID 0000.0001) rA  =  /* rA (1,:,1,:) ( units: m^2 ) */
(PID.TID 0000.0001)                 6.470963377080289E+07,      /* J =  1 */
(PID.TID 0000.0001)                 6.534679484410104E+07,      /* J =  2 */
(PID.TID 0000.0001)                 6.598375685977945E+07,      /* J =  3 */
(PID.TID 0000.0001)      . . .
(PID.TID 0000.0001)                 7.867821163932665E+07,      /* J = 23 */
(PID.TID 0000.0001)                 7.931054622142966E+07,      /* J = 24 */
(PID.TID 0000.0001)                 7.994263920984067E+07,      /* J = 25 */
(PID.TID 0000.0001)                 8.057448867913349E+07,      /* J = 26 */
(PID.TID 0000.0001)                 8.120609270456599E+07,      /* J = 27 */
(PID.TID 0000.0001)                 8.183744936212724E+07,      /* J = 28 */
(PID.TID 0000.0001)      . . .
(PID.TID 0000.0001)                 9.440967921416211E+07,      /* J = 48 */
(PID.TID 0000.0001)                 9.503539809503193E+07,      /* J = 49 */
(PID.TID 0000.0001)                 9.566082748163140E+07,      /* J = 50 */
(PID.TID 0000.0001)                 9.628596546870193E+07,      /* J = 51 */
(PID.TID 0000.0001)                 9.691081015209354E+07,      /* J = 52 */
(PID.TID 0000.0001)                 9.753535962826957E+07,      /* J = 53 */
(PID.TID 0000.0001)      . . .
(PID.TID 0000.0001)                 1.099614325987181E+08,      /* J = 73 */
(PID.TID 0000.0001)                 1.105793446869293E+08,      /* J = 74 */
(PID.TID 0000.0001)                 1.111969199312560E+08,      /* J = 75 */
(PID.TID 0000.0001)                 1.118141564504991E+08,      /* J = 76 */
(PID.TID 0000.0001)                 1.124310523644033E+08,      /* J = 77 */
(PID.TID 0000.0001)                 1.130476057938687E+08,      /* J = 78 */
(PID.TID 0000.0001)      . . .
(PID.TID 0000.0001)                 1.253038681465364E+08,      /* J = 98 */
(PID.TID 0000.0001)                 1.259127972112936E+08,      /* J = 99 */
(PID.TID 0000.0001)                 1.265213427237870E+08       /* J =100 */
(PID.TID 0000.0001)     ;
(PID.TID 0000.0001) rAw =  /* rAw(:,1,:,1) ( units: m^2 ) */
(PID.TID 0000.0001)    50 @  6.470963377080289E+07              /* I =  1: 50 */
(PID.TID 0000.0001)     ;
(PID.TID 0000.0001) rAw =  /* rAw(1,:,1,:) ( units: m^2 ) */
(PID.TID 0000.0001)                 6.470963377080289E+07,      /* J =  1 */
(PID.TID 0000.0001)                 6.534679484410104E+07,      /* J =  2 */
(PID.TID 0000.0001)                 6.598375685977945E+07,      /* J =  3 */
(PID.TID 0000.0001)      . . .
(PID.TID 0000.0001)                 7.867821163932665E+07,      /* J = 23 */
(PID.TID 0000.0001)                 7.931054622142966E+07,      /* J = 24 */
(PID.TID 0000.0001)                 7.994263920984067E+07,      /* J = 25 */
(PID.TID 0000.0001)                 8.057448867913349E+07,      /* J = 26 */
(PID.TID 0000.0001)                 8.120609270456599E+07,      /* J = 27 */
(PID.TID 0000.0001)                 8.183744936212724E+07,      /* J = 28 */
(PID.TID 0000.0001)      . . .
(PID.TID 0000.0001)                 9.440967921416211E+07,      /* J = 48 */
(PID.TID 0000.0001)                 9.503539809503193E+07,      /* J = 49 */
(PID.TID 0000.0001)                 9.566082748163140E+07,      /* J = 50 */
(PID.TID 0000.0001)                 9.628596546870193E+07,      /* J = 51 */
(PID.TID 0000.0001)                 9.691081015209354E+07,      /* J = 52 */
(PID.TID 0000.0001)                 9.753535962826957E+07,      /* J = 53 */
(PID.TID 0000.0001)      . . .
(PID.TID 0000.0001)                 1.099614325987181E+08,      /* J = 73 */
(PID.TID 0000.0001)                 1.105793446869293E+08,      /* J = 74 */
(PID.TID 0000.0001)                 1.111969199312560E+08,      /* J = 75 */
(PID.TID 0000.0001)                 1.118141564504991E+08,      /* J = 76 */
(PID.TID 0000.0001)                 1.124310523644033E+08,      /* J = 77 */
(PID.TID 0000.0001)                 1.130476057938687E+08,      /* J = 78 */
(PID.TID 0000.0001)      . . .
(PID.TID 0000.0001)                 1.253038681465364E+08,      /* J = 98 */
(PID.TID 0000.0001)                 1.259127972112936E+08,      /* J = 99 */
(PID.TID 0000.0001)                 1.265213427237870E+08       /* J =100 */
(PID.TID 0000.0001)     ;
(PID.TID 0000.0001) rAs =  /* rAs(:,1,:,1) ( units: m^2 ) */
(PID.TID 0000.0001)    50 @  6.439097919401864E+07              /* I =  1: 50 */
(PID.TID 0000.0001)     ;
(PID.TID 0000.0001) rAs =  /* rAs(1,:,1,:) ( units: m^2 ) */
(PID.TID 0000.0001)                 6.439097919401864E+07,      /* J =  1 */
(PID.TID 0000.0001)                 6.502823906837179E+07,      /* J =  2 */
(PID.TID 0000.0001)                 6.566530085543716E+07,      /* J =  3 */
(PID.TID 0000.0001)      . . .
(PID.TID 0000.0001)                 7.836195435256335E+07,      /* J = 23 */
(PID.TID 0000.0001)                 7.899440900921808E+07,      /* J = 24 */
(PID.TID 0000.0001)                 7.962662303520055E+07,      /* J = 25 */
(PID.TID 0000.0001)                 8.025859450470714E+07,      /* J = 26 */
(PID.TID 0000.0001)                 8.089032149259475E+07,      /* J = 27 */
(PID.TID 0000.0001)                 8.152180207452223E+07,      /* J = 28 */
(PID.TID 0000.0001)      . . .
(PID.TID 0000.0001)                 9.409671180895932E+07,      /* J = 48 */
(PID.TID 0000.0001)                 9.472257472228888E+07,      /* J = 49 */
(PID.TID 0000.0001)                 9.534814909420149E+07,      /* J = 50 */
(PID.TID 0000.0001)                 9.597343301913190E+07,      /* J = 51 */
(PID.TID 0000.0001)                 9.659842459236403E+07,      /* J = 52 */
(PID.TID 0000.0001)                 9.722312190998378E+07,      /* J = 53 */
(PID.TID 0000.0001)      . . .
(PID.TID 0000.0001)                 1.096523508263446E+08,      /* J = 73 */
(PID.TID 0000.0001)                 1.102704306306916E+08,      /* J = 74 */
(PID.TID 0000.0001)                 1.108881745321664E+08,      /* J = 75 */
(PID.TID 0000.0001)                 1.115055806490511E+08,      /* J = 76 */
(PID.TID 0000.0001)                 1.121226471005947E+08,      /* J = 77 */
(PID.TID 0000.0001)                 1.127393720071080E+08,      /* J = 78 */
(PID.TID 0000.0001)      . . .
(PID.TID 0000.0001)                 1.249992603617116E+08,      /* J = 98 */
(PID.TID 0000.0001)                 1.256083805070198E+08,      /* J = 99 */
(PID.TID 0000.0001)                 1.262171180274426E+08       /* J =100 */
(PID.TID 0000.0001)     ;
(PID.TID 0000.0001) globalArea = /* Integrated horizontal Area (m^2) */
(PID.TID 0000.0001)                 4.665024516720074E+11
(PID.TID 0000.0001)     ;
(PID.TID 0000.0001) // =======================================================
(PID.TID 0000.0001) // End of Model config. summary
(PID.TID 0000.0001) // =======================================================
(PID.TID 0000.0001) 
(PID.TID 0000.0001) == Packages configuration : Check & print summary ==
(PID.TID 0000.0001) 
(PID.TID 0000.0001) SHELFICE_CHECK: #define ALLOW_SHELFICE
(PID.TID 0000.0001) ICEFRONT_CHECK: #define ALLOW_ICEFRONT
(PID.TID 0000.0001) GAD_CHECK: #define ALLOW_GENERIC_ADVDIFF
(PID.TID 0000.0001) // =======================================================
(PID.TID 0000.0001) // Check Model config. (CONFIG_CHECK):
(PID.TID 0000.0001) // CONFIG_CHECK : Normal End
(PID.TID 0000.0001) // =======================================================
(PID.TID 0000.0001) 
(PID.TID 0000.0001) Start initial hydrostatic pressure computation
(PID.TID 0000.0001) Pressure is predetermined for buoyancyRelation OCEANIC
(PID.TID 0000.0001) 
(PID.TID 0000.0001)  write diagnostics summary to file ioUnit:      6
Iter.Nb:         0 ; Time(s):  0.0000000000000E+00
------------------------------------------------------------------------
2D/3D diagnostics: Number of lists:     2
------------------------------------------------------------------------
listId=    1 ; file name: shelficeDiag
 nFlds, nActive,       freq     &     phase        , nLev               
    2  |    2  |     18000.000000         0.000000 |   1
 levels:   1
 diag# | name   |   ipt  |  iMate | kLev|   count |   mate.C|           
   192 |SHIfwFlx|      1 |      0 |   1 |       0 |
   193 |SHIhtFlx|      2 |      0 |   1 |       0 |
------------------------------------------------------------------------
listId=    2 ; file name: icefrontDiag
 nFlds, nActive,       freq     &     phase        , nLev               
    2  |    2  |     18000.000000         0.000000 |  30
 levels:   1   2   3   4   5   6   7   8   9  10  11  12  13  14  15  16  17  18  19  20  21  22  23  24  25
 levels:  26  27  28  29  30
 diag# | name   |   ipt  |  iMate | kLev|   count |   mate.C|           
   201 |ICFfwFlx|      3 |      0 |  30 |       0 |
   202 |ICFhtFlx|     33 |      0 |  30 |       0 |
------------------------------------------------------------------------
Global & Regional Statistics diagnostics: Number of lists:     0
------------------------------------------------------------------------
(PID.TID 0000.0001) // =======================================================
(PID.TID 0000.0001) // Model current state
(PID.TID 0000.0001) // =======================================================
(PID.TID 0000.0001) 
(PID.TID 0000.0001) // =======================================================
(PID.TID 0000.0001) // Begin MONITOR dynamic field statistics
(PID.TID 0000.0001) // =======================================================
(PID.TID 0000.0001) %MON time_tsnumber                =                     0
(PID.TID 0000.0001) %MON time_secondsf                =   0.0000000000000E+00
(PID.TID 0000.0001) %MON dynstat_eta_max              =   0.0000000000000E+00
(PID.TID 0000.0001) %MON dynstat_eta_min              =   0.0000000000000E+00
(PID.TID 0000.0001) %MON dynstat_eta_mean             =   0.0000000000000E+00
(PID.TID 0000.0001) %MON dynstat_eta_sd               =   0.0000000000000E+00
(PID.TID 0000.0001) %MON dynstat_eta_del2             =   0.0000000000000E+00
(PID.TID 0000.0001) %MON dynstat_uvel_max             =   0.0000000000000E+00
(PID.TID 0000.0001) %MON dynstat_uvel_min             =   0.0000000000000E+00
(PID.TID 0000.0001) %MON dynstat_uvel_mean            =   0.0000000000000E+00
(PID.TID 0000.0001) %MON dynstat_uvel_sd              =   0.0000000000000E+00
(PID.TID 0000.0001) %MON dynstat_uvel_del2            =   0.0000000000000E+00
(PID.TID 0000.0001) %MON dynstat_vvel_max             =   0.0000000000000E+00
(PID.TID 0000.0001) %MON dynstat_vvel_min             =   0.0000000000000E+00
(PID.TID 0000.0001) %MON dynstat_vvel_mean            =   0.0000000000000E+00
(PID.TID 0000.0001) %MON dynstat_vvel_sd              =   0.0000000000000E+00
(PID.TID 0000.0001) %MON dynstat_vvel_del2            =   0.0000000000000E+00
(PID.TID 0000.0001) %MON dynstat_wvel_max             =  -0.0000000000000E+00
(PID.TID 0000.0001) %MON dynstat_wvel_min             =  -0.0000000000000E+00
(PID.TID 0000.0001) %MON dynstat_wvel_mean            =   0.0000000000000E+00
(PID.TID 0000.0001) %MON dynstat_wvel_sd              =   0.0000000000000E+00
(PID.TID 0000.0001) %MON dynstat_wvel_del2            =   0.0000000000000E+00
(PID.TID 0000.0001) %MON dynstat_theta_max            =  -1.9000000000000E+00
(PID.TID 0000.0001) %MON dynstat_theta_min            =  -1.9000000000000E+00
(PID.TID 0000.0001) %MON dynstat_theta_mean           =  -1.9000000000001E+00
(PID.TID 0000.0001) %MON dynstat_theta_sd             =   1.2256862191862E-13
(PID.TID 0000.0001) %MON dynstat_theta_del2           =   0.0000000000000E+00
(PID.TID 0000.0001) %MON dynstat_salt_max             =   3.4400000000000E+01
(PID.TID 0000.0001) %MON dynstat_salt_min             =   3.4400000000000E+01
(PID.TID 0000.0001) %MON dynstat_salt_mean            =   3.4400000000001E+01
(PID.TID 0000.0001) %MON dynstat_salt_sd              =   1.1084466677858E-12
(PID.TID 0000.0001) %MON dynstat_salt_del2            =   0.0000000000000E+00
(PID.TID 0000.0001) %MON advcfl_uvel_max              =   0.0000000000000E+00
(PID.TID 0000.0001) %MON advcfl_vvel_max              =   0.0000000000000E+00
(PID.TID 0000.0001) %MON advcfl_wvel_max              =   0.0000000000000E+00
(PID.TID 0000.0001) %MON advcfl_W_hf_max              =   0.0000000000000E+00
(PID.TID 0000.0001) %MON pe_b_mean                    =   0.0000000000000E+00
(PID.TID 0000.0001) %MON ke_max                       =   0.0000000000000E+00
(PID.TID 0000.0001) %MON ke_mean                      =   0.0000000000000E+00
(PID.TID 0000.0001) %MON ke_vol                       =   3.4703745874272E+14
(PID.TID 0000.0001) %MON vort_r_min                   =   0.0000000000000E+00
(PID.TID 0000.0001) %MON vort_r_max                   =   0.0000000000000E+00
(PID.TID 0000.0001) %MON vort_a_mean                  =  -1.3992981969631E-04
(PID.TID 0000.0001) %MON vort_a_sd                    =   1.7365065483553E-06
(PID.TID 0000.0001) %MON vort_p_mean                  =  -1.4746660593269E-04
(PID.TID 0000.0001) %MON vort_p_sd                    =   7.7973631850226E-05
(PID.TID 0000.0001) %MON surfExpan_theta_mean         =   0.0000000000000E+00
(PID.TID 0000.0001) %MON surfExpan_salt_mean          =   0.0000000000000E+00
(PID.TID 0000.0001) // =======================================================
(PID.TID 0000.0001) // End MONITOR dynamic field statistics
(PID.TID 0000.0001) // =======================================================
(PID.TID 0000.0001) SOLVE_FOR_PRESSURE: putPmEinXvector =    F
(PID.TID 0000.0001) SOLVE_FOR_PRESSURE: zeroPsNH=    F , zeroMeanPnh=    F
(PID.TID 0000.0001) SOLVE_FOR_PRESSURE: oldFreeSurfTerm =    F
 cg2d: Sum(rhs),rhsMax =  -8.17124146124115E-14  4.59731572276010E-09
(PID.TID 0000.0001)      cg2d_init_res =   1.44107621990967E+01
(PID.TID 0000.0001)      cg2d_iters(min,last) =      -1     212
(PID.TID 0000.0001)      cg2d_last_res =   9.39690652712236E-14
(PID.TID 0000.0001) // =======================================================
(PID.TID 0000.0001) // Begin MONITOR dynamic field statistics
(PID.TID 0000.0001) // =======================================================
(PID.TID 0000.0001) %MON time_tsnumber                =                     1
(PID.TID 0000.0001) %MON time_secondsf                =   1.8000000000000E+03
(PID.TID 0000.0001) %MON dynstat_eta_max              =   8.4447170963731E-10
(PID.TID 0000.0001) %MON dynstat_eta_min              =  -5.7950492778906E-10
(PID.TID 0000.0001) %MON dynstat_eta_mean             =  -8.6310561103006E-27
(PID.TID 0000.0001) %MON dynstat_eta_sd               =   1.7020143244462E-10
(PID.TID 0000.0001) %MON dynstat_eta_del2             =   5.0280316540713E-12
(PID.TID 0000.0001) %MON dynstat_uvel_max             =   2.1880758942175E-10
(PID.TID 0000.0001) %MON dynstat_uvel_min             =  -2.0733345171321E-10
(PID.TID 0000.0001) %MON dynstat_uvel_mean            =  -1.1795658549673E-13
(PID.TID 0000.0001) %MON dynstat_uvel_sd              =   4.0010664451119E-11
(PID.TID 0000.0001) %MON dynstat_uvel_del2            =   2.5908774779012E-13
(PID.TID 0000.0001) %MON dynstat_vvel_max             =   1.6036443264482E-10
(PID.TID 0000.0001) %MON dynstat_vvel_min             =  -1.5705571366466E-10
(PID.TID 0000.0001) %MON dynstat_vvel_mean            =   1.1301301300653E-12
(PID.TID 0000.0001) %MON dynstat_vvel_sd              =   8.1734194442066E-12
(PID.TID 0000.0001) %MON dynstat_vvel_del2            =   3.7497171362377E-14
(PID.TID 0000.0001) %MON dynstat_wvel_max             =   1.5391551333155E-12
(PID.TID 0000.0001) %MON dynstat_wvel_min             =  -1.1638111964216E-12
(PID.TID 0000.0001) %MON dynstat_wvel_mean            =   1.0980150525139E-15
(PID.TID 0000.0001) %MON dynstat_wvel_sd              =   5.5793458620641E-14
(PID.TID 0000.0001) %MON dynstat_wvel_del2            =   3.3084933957862E-16
(PID.TID 0000.0001) %MON dynstat_theta_max            =  -1.9000000000000E+00
(PID.TID 0000.0001) %MON dynstat_theta_min            =  -1.9006712454661E+00
(PID.TID 0000.0001) %MON dynstat_theta_mean           =  -1.9000056936508E+00
(PID.TID 0000.0001) %MON dynstat_theta_sd             =   4.3995309114464E-05
(PID.TID 0000.0001) %MON dynstat_theta_del2           =   5.2039299503794E-08
(PID.TID 0000.0001) %MON dynstat_salt_max             =   3.4400000000000E+01
(PID.TID 0000.0001) %MON dynstat_salt_min             =   3.4399726072437E+01
(PID.TID 0000.0001) %MON dynstat_salt_mean            =   3.4399997687770E+01
(PID.TID 0000.0001) %MON dynstat_salt_sd              =   1.7908352267916E-05
(PID.TID 0000.0001) %MON dynstat_salt_del2            =   2.1160203740469E-08
(PID.TID 0000.0001) %MON advcfl_uvel_max              =   6.2280289617623E-11
(PID.TID 0000.0001) %MON advcfl_vvel_max              =   2.5963531105502E-11
(PID.TID 0000.0001) %MON advcfl_wvel_max              =   9.2349307998929E-11
(PID.TID 0000.0001) %MON advcfl_W_hf_max              =   9.2349307998929E-11
(PID.TID 0000.0001) %MON pe_b_mean                    =   4.8942278811813E-14
(PID.TID 0000.0001) %MON ke_max                       =   2.4035943577141E-20
(PID.TID 0000.0001) %MON ke_mean                      =   8.1769497024218E-22
(PID.TID 0000.0001) %MON ke_vol                       =   3.4703745874272E+14
(PID.TID 0000.0001) %MON vort_r_min                   =  -2.7567877600667E-14
(PID.TID 0000.0001) %MON vort_r_max                   =   2.6634637115188E-14
(PID.TID 0000.0001) %MON vort_a_mean                  =  -1.3992981969631E-04
(PID.TID 0000.0001) %MON vort_a_sd                    =   1.7365065484877E-06
(PID.TID 0000.0001) %MON vort_p_mean                  =  -1.4746660593269E-04
(PID.TID 0000.0001) %MON vort_p_sd                    =   7.7973631850647E-05
(PID.TID 0000.0001) %MON surfExpan_theta_mean         =   8.9104000454850E-19
(PID.TID 0000.0001) %MON surfExpan_salt_mean          =   3.5045216853726E-19
(PID.TID 0000.0001) // =======================================================
(PID.TID 0000.0001) // End MONITOR dynamic field statistics
(PID.TID 0000.0001) // =======================================================
 cg2d: Sum(rhs),rhsMax =   5.17089151987234E-14  1.14227506369669E-05
(PID.TID 0000.0001)      cg2d_init_res =   8.47195858002542E+00
(PID.TID 0000.0001)      cg2d_iters(min,last) =      -1     214
(PID.TID 0000.0001)      cg2d_last_res =   9.47521434317060E-14
(PID.TID 0000.0001) // =======================================================
(PID.TID 0000.0001) // Begin MONITOR dynamic field statistics
(PID.TID 0000.0001) // =======================================================
(PID.TID 0000.0001) %MON time_tsnumber                =                     2
(PID.TID 0000.0001) %MON time_secondsf                =   3.6000000000000E+03
(PID.TID 0000.0001) %MON dynstat_eta_max              =   1.4759726518295E-06
(PID.TID 0000.0001) %MON dynstat_eta_min              =  -1.5536459705750E-06
(PID.TID 0000.0001) %MON dynstat_eta_mean             =  -7.4864765282382E-23
(PID.TID 0000.0001) %MON dynstat_eta_sd               =   4.6709884006509E-07
(PID.TID 0000.0001) %MON dynstat_eta_del2             =   4.3348555988816E-09
(PID.TID 0000.0001) %MON dynstat_uvel_max             =   4.3228492097302E-07
(PID.TID 0000.0001) %MON dynstat_uvel_min             =  -1.3848863109393E-06
(PID.TID 0000.0001) %MON dynstat_uvel_mean            =   3.5346938351133E-09
(PID.TID 0000.0001) %MON dynstat_uvel_sd              =   1.0027371150338E-07
(PID.TID 0000.0001) %MON dynstat_uvel_del2            =   3.1278972603885E-10
(PID.TID 0000.0001) %MON dynstat_vvel_max             =   5.4890850272085E-06
(PID.TID 0000.0001) %MON dynstat_vvel_min             =  -7.0389422579602E-07
(PID.TID 0000.0001) %MON dynstat_vvel_mean            =  -5.0050028545490E-08
(PID.TID 0000.0001) %MON dynstat_vvel_sd              =   3.1113195109882E-07
(PID.TID 0000.0001) %MON dynstat_vvel_del2            =   8.5307933861946E-10
(PID.TID 0000.0001) %MON dynstat_wvel_max             =   1.2653749445073E-08
(PID.TID 0000.0001) %MON dynstat_wvel_min             =  -1.7769373282214E-08
(PID.TID 0000.0001) %MON dynstat_wvel_mean            =  -4.0067854088826E-11
(PID.TID 0000.0001) %MON dynstat_wvel_sd              =   1.0492266718278E-09
(PID.TID 0000.0001) %MON dynstat_wvel_del2            =   1.0132314373369E-11
(PID.TID 0000.0001) %MON dynstat_theta_max            =  -1.9000000000000E+00
(PID.TID 0000.0001) %MON dynstat_theta_min            =  -1.9013410087871E+00
(PID.TID 0000.0001) %MON dynstat_theta_mean           =  -1.9000113768838E+00
(PID.TID 0000.0001) %MON dynstat_theta_sd             =   8.7881797284001E-05
(PID.TID 0000.0001) %MON dynstat_theta_del2           =   1.0373354564023E-07
(PID.TID 0000.0001) %MON dynstat_salt_max             =   3.4400000000000E+01
(PID.TID 0000.0001) %MON dynstat_salt_min             =   3.4399452752663E+01
(PID.TID 0000.0001) %MON dynstat_salt_mean            =   3.4399995379811E+01
(PID.TID 0000.0001) %MON dynstat_salt_sd              =   3.5772132242687E-05
(PID.TID 0000.0001) %MON dynstat_salt_del2            =   4.2179852713209E-08
(PID.TID 0000.0001) %MON advcfl_uvel_max              =   4.1206467951900E-07
(PID.TID 0000.0001) %MON advcfl_vvel_max              =   8.8870098870566E-07
(PID.TID 0000.0001) %MON advcfl_wvel_max              =   1.0661623969328E-06
(PID.TID 0000.0001) %MON advcfl_W_hf_max              =   1.1790030160417E-06
(PID.TID 0000.0001) %MON pe_b_mean                    =  -1.0775523761381E-09
(PID.TID 0000.0001) %MON ke_max                       =   8.9067364866407E-12
(PID.TID 0000.0001) %MON ke_mean                      =   5.3936850705338E-14
(PID.TID 0000.0001) %MON ke_vol                       =   3.4703745874272E+14
(PID.TID 0000.0001) %MON vort_r_min                   =  -9.2796684611966E-10
(PID.TID 0000.0001) %MON vort_r_max                   =   9.1475693538671E-10
(PID.TID 0000.0001) %MON vort_a_mean                  =  -1.3992981969614E-04
(PID.TID 0000.0001) %MON vort_a_sd                    =   1.7365065511410E-06
(PID.TID 0000.0001) %MON vort_p_mean                  =  -1.4746660593252E-04
(PID.TID 0000.0001) %MON vort_p_sd                    =   7.7973619498287E-05
(PID.TID 0000.0001) %MON surfExpan_theta_mean         =  -5.7684862593412E-14
(PID.TID 0000.0001) %MON surfExpan_salt_mean          =  -2.3383134716047E-14
(PID.TID 0000.0001) // =======================================================
(PID.TID 0000.0001) // End MONITOR dynamic field statistics
(PID.TID 0000.0001) // =======================================================
 cg2d: Sum(rhs),rhsMax =   4.98767693812852E-14  1.79528571440466E-05
(PID.TID 0000.0001)      cg2d_init_res =   3.35493216586781E+00
(PID.TID 0000.0001)      cg2d_iters(min,last) =      -1     214
(PID.TID 0000.0001)      cg2d_last_res =   9.12833134022789E-14
(PID.TID 0000.0001) // =======================================================
(PID.TID 0000.0001) // Begin MONITOR dynamic field statistics
(PID.TID 0000.0001) // =======================================================
(PID.TID 0000.0001) %MON time_tsnumber                =                     3
(PID.TID 0000.0001) %MON time_secondsf                =   5.4000000000000E+03
(PID.TID 0000.0001) %MON dynstat_eta_max              =   2.4412019822061E-06
(PID.TID 0000.0001) %MON dynstat_eta_min              =  -2.8380039137724E-06
(PID.TID 0000.0001) %MON dynstat_eta_mean             =   3.3273229014392E-23
(PID.TID 0000.0001) %MON dynstat_eta_sd               =   1.1570990796044E-06
(PID.TID 0000.0001) %MON dynstat_eta_del2             =   7.0459704459701E-09
(PID.TID 0000.0001) %MON dynstat_uvel_max             =   8.7058455565702E-07
(PID.TID 0000.0001) %MON dynstat_uvel_min             =  -4.7324488273806E-06
(PID.TID 0000.0001) %MON dynstat_uvel_mean            =   8.9183830173073E-09
(PID.TID 0000.0001) %MON dynstat_uvel_sd              =   3.1251620632701E-07
(PID.TID 0000.0001) %MON dynstat_uvel_del2            =   8.0425665461315E-10
(PID.TID 0000.0001) %MON dynstat_vvel_max             =   1.3593765503668E-05
(PID.TID 0000.0001) %MON dynstat_vvel_min             =  -1.8398371136151E-06
(PID.TID 0000.0001) %MON dynstat_vvel_mean            =  -1.1795796761650E-07
(PID.TID 0000.0001) %MON dynstat_vvel_sd              =   7.7593992910261E-07
(PID.TID 0000.0001) %MON dynstat_vvel_del2            =   2.0958770395562E-09
(PID.TID 0000.0001) %MON dynstat_wvel_max             =   3.4824760395674E-08
(PID.TID 0000.0001) %MON dynstat_wvel_min             =  -3.9312813063088E-08
(PID.TID 0000.0001) %MON dynstat_wvel_mean            =  -8.2125989914531E-11
(PID.TID 0000.0001) %MON dynstat_wvel_sd              =   2.5268670210706E-09
(PID.TID 0000.0001) %MON dynstat_wvel_del2            =   2.4356301004340E-11
(PID.TID 0000.0001) %MON dynstat_theta_max            =  -1.9000000000000E+00
(PID.TID 0000.0001) %MON dynstat_theta_min            =  -1.9020098497381E+00
(PID.TID 0000.0001) %MON dynstat_theta_mean           =  -1.9000170536332E+00
(PID.TID 0000.0001) %MON dynstat_theta_sd             =   1.3170062018200E-04
(PID.TID 0000.0001) %MON dynstat_theta_del2           =   1.5521606147701E-07
(PID.TID 0000.0001) %MON dynstat_salt_max             =   3.4400000000000E+01
(PID.TID 0000.0001) %MON dynstat_salt_min             =   3.4399179811123E+01
(PID.TID 0000.0001) %MON dynstat_salt_mean            =   3.4399993074510E+01
(PID.TID 0000.0001) %MON dynstat_salt_sd              =   5.3608197272766E-05
(PID.TID 0000.0001) %MON dynstat_salt_del2            =   6.3113107469453E-08
(PID.TID 0000.0001) %MON advcfl_uvel_max              =   1.4081119829049E-06
(PID.TID 0000.0001) %MON advcfl_vvel_max              =   2.2008755163128E-06
(PID.TID 0000.0001) %MON advcfl_wvel_max              =   2.3587687837853E-06
(PID.TID 0000.0001) %MON advcfl_W_hf_max              =   2.9053346134790E-06
(PID.TID 0000.0001) %MON pe_b_mean                    =  -3.0457768371973E-09
(PID.TID 0000.0001) %MON ke_max                       =   6.0183000486470E-11
(PID.TID 0000.0001) %MON ke_mean                      =   3.5185373251328E-13
(PID.TID 0000.0001) %MON ke_vol                       =   3.4703745874272E+14
(PID.TID 0000.0001) %MON vort_r_min                   =  -2.3015511729172E-09
(PID.TID 0000.0001) %MON vort_r_max                   =   2.2674579093743E-09
(PID.TID 0000.0001) %MON vort_a_mean                  =  -1.3992981969460E-04
(PID.TID 0000.0001) %MON vort_a_sd                    =   1.7365065525634E-06
(PID.TID 0000.0001) %MON vort_p_mean                  =  -1.4746660593089E-04
(PID.TID 0000.0001) %MON vort_p_sd                    =   7.7973588419925E-05
(PID.TID 0000.0001) %MON surfExpan_theta_mean         =  -1.7826818281130E-13
(PID.TID 0000.0001) %MON surfExpan_salt_mean          =  -7.2420118984569E-14
(PID.TID 0000.0001) // =======================================================
(PID.TID 0000.0001) // End MONITOR dynamic field statistics
(PID.TID 0000.0001) // =======================================================
 cg2d: Sum(rhs),rhsMax =  -2.64233079860787E-14  2.44659483622737E-05
(PID.TID 0000.0001)      cg2d_init_res =   2.43586133118782E+00
(PID.TID 0000.0001)      cg2d_iters(min,last) =      -1     212
(PID.TID 0000.0001)      cg2d_last_res =   9.87615467852561E-14
(PID.TID 0000.0001) // =======================================================
(PID.TID 0000.0001) // Begin MONITOR dynamic field statistics
(PID.TID 0000.0001) // =======================================================
(PID.TID 0000.0001) %MON time_tsnumber                =                     4
(PID.TID 0000.0001) %MON time_secondsf                =   7.2000000000000E+03
(PID.TID 0000.0001) %MON dynstat_eta_max              =   4.0163861560017E-06
(PID.TID 0000.0001) %MON dynstat_eta_min              =  -4.1255306088180E-06
(PID.TID 0000.0001) %MON dynstat_eta_mean             =   3.9927874817270E-22
(PID.TID 0000.0001) %MON dynstat_eta_sd               =   2.0893421001063E-06
(PID.TID 0000.0001) %MON dynstat_eta_del2             =   9.7260485652061E-09
(PID.TID 0000.0001) %MON dynstat_uvel_max             =   1.4962934848518E-06
(PID.TID 0000.0001) %MON dynstat_uvel_min             =  -1.0516801067498E-05
(PID.TID 0000.0001) %MON dynstat_uvel_mean            =   1.2785411091944E-08
(PID.TID 0000.0001) %MON dynstat_uvel_sd              =   6.8102564809440E-07
(PID.TID 0000.0001) %MON dynstat_uvel_del2            =   1.6176194229461E-09
(PID.TID 0000.0001) %MON dynstat_vvel_max             =   2.3707282187248E-05
(PID.TID 0000.0001) %MON dynstat_vvel_min             =  -3.3080138211392E-06
(PID.TID 0000.0001) %MON dynstat_vvel_mean            =  -1.8969964074718E-07
(PID.TID 0000.0001) %MON dynstat_vvel_sd              =   1.3585296285174E-06
(PID.TID 0000.0001) %MON dynstat_vvel_del2            =   3.6281508330720E-09
(PID.TID 0000.0001) %MON dynstat_wvel_max             =   6.7068907031390E-08
(PID.TID 0000.0001) %MON dynstat_wvel_min             =  -6.8108595715325E-08
(PID.TID 0000.0001) %MON dynstat_wvel_mean            =  -1.2500527384662E-10
(PID.TID 0000.0001) %MON dynstat_wvel_sd              =   4.4305680504332E-09
(PID.TID 0000.0001) %MON dynstat_wvel_del2            =   4.1943077027460E-11
(PID.TID 0000.0001) %MON dynstat_theta_max            =  -1.9000000000000E+00
(PID.TID 0000.0001) %MON dynstat_theta_min            =  -1.9026777693380E+00
(PID.TID 0000.0001) %MON dynstat_theta_mean           =  -1.9000227239066E+00
(PID.TID 0000.0001) %MON dynstat_theta_sd             =   1.7545187742353E-04
(PID.TID 0000.0001) %MON dynstat_theta_del2           =   2.0648736725806E-07
(PID.TID 0000.0001) %MON dynstat_salt_max             =   3.4400000000000E+01
(PID.TID 0000.0001) %MON dynstat_salt_min             =   3.4398907247394E+01
(PID.TID 0000.0001) %MON dynstat_salt_mean            =   3.4399990771865E+01
(PID.TID 0000.0001) %MON dynstat_salt_sd              =   7.1416588302917E-05
(PID.TID 0000.0001) %MON dynstat_salt_del2            =   8.3960220052715E-08
(PID.TID 0000.0001) %MON advcfl_uvel_max              =   3.1292115657526E-06
(PID.TID 0000.0001) %MON advcfl_vvel_max              =   3.8382872582401E-06
(PID.TID 0000.0001) %MON advcfl_wvel_max              =   4.0865157429195E-06
(PID.TID 0000.0001) %MON advcfl_W_hf_max              =   5.6262518332871E-06
(PID.TID 0000.0001) %MON pe_b_mean                    =  -5.8474807652289E-09
(PID.TID 0000.0001) %MON ke_max                       =   2.0468651903262E-10
(PID.TID 0000.0001) %MON ke_mean                      =   1.1557597690051E-12
(PID.TID 0000.0001) %MON ke_vol                       =   3.4703745874272E+14
(PID.TID 0000.0001) %MON vort_r_min                   =  -4.0138637899864E-09
(PID.TID 0000.0001) %MON vort_r_max                   =   3.9518345071161E-09
(PID.TID 0000.0001) %MON vort_a_mean                  =  -1.3992981968938E-04
(PID.TID 0000.0001) %MON vort_a_sd                    =   1.7365065508152E-06
(PID.TID 0000.0001) %MON vort_p_mean                  =  -1.4746660592539E-04
(PID.TID 0000.0001) %MON vort_p_sd                    =   7.7973533827905E-05
(PID.TID 0000.0001) %MON surfExpan_theta_mean         =  -3.6339694259790E-13
(PID.TID 0000.0001) %MON surfExpan_salt_mean          =  -1.4775258994283E-13
(PID.TID 0000.0001) // =======================================================
(PID.TID 0000.0001) // End MONITOR dynamic field statistics
(PID.TID 0000.0001) // =======================================================
 cg2d: Sum(rhs),rhsMax =  -7.99360577730113E-15  3.09326893681128E-05
(PID.TID 0000.0001)      cg2d_init_res =   1.91892677116541E+00
(PID.TID 0000.0001)      cg2d_iters(min,last) =      -1     212
(PID.TID 0000.0001)      cg2d_last_res =   7.08937588621522E-14
(PID.TID 0000.0001) // =======================================================
(PID.TID 0000.0001) // Begin MONITOR dynamic field statistics
(PID.TID 0000.0001) // =======================================================
(PID.TID 0000.0001) %MON time_tsnumber                =                     5
(PID.TID 0000.0001) %MON time_secondsf                =   9.0000000000000E+03
(PID.TID 0000.0001) %MON dynstat_eta_max              =   6.2251980104262E-06
(PID.TID 0000.0001) %MON dynstat_eta_min              =  -5.3174769896584E-06
(PID.TID 0000.0001) %MON dynstat_eta_mean             =  -1.9963937408635E-22
(PID.TID 0000.0001) %MON dynstat_eta_sd               =   3.2408405117985E-06
(PID.TID 0000.0001) %MON dynstat_eta_del2             =   1.2396286801847E-08
(PID.TID 0000.0001) %MON dynstat_uvel_max             =   2.7344141110599E-06
(PID.TID 0000.0001) %MON dynstat_uvel_min             =  -1.9039587966840E-05
(PID.TID 0000.0001) %MON dynstat_uvel_mean            =   1.3209359584064E-08
(PID.TID 0000.0001) %MON dynstat_uvel_sd              =   1.2265723731841E-06
(PID.TID 0000.0001) %MON dynstat_uvel_del2            =   2.7956576289400E-09
(PID.TID 0000.0001) %MON dynstat_vvel_max             =   3.5066957140392E-05
(PID.TID 0000.0001) %MON dynstat_vvel_min             =  -4.9969711544002E-06
(PID.TID 0000.0001) %MON dynstat_vvel_mean            =  -2.5269496274943E-07
(PID.TID 0000.0001) %MON dynstat_vvel_sd              =   2.0156705516239E-06
(PID.TID 0000.0001) %MON dynstat_vvel_del2            =   5.3311764392051E-09
(PID.TID 0000.0001) %MON dynstat_wvel_max             =   1.1490924618137E-07
(PID.TID 0000.0001) %MON dynstat_wvel_min             =  -1.1494591967612E-07
(PID.TID 0000.0001) %MON dynstat_wvel_mean            =  -1.6210860974827E-10
(PID.TID 0000.0001) %MON dynstat_wvel_sd              =   6.6571538845655E-09
(PID.TID 0000.0001) %MON dynstat_wvel_del2            =   6.1530263087643E-11
(PID.TID 0000.0001) %MON dynstat_theta_max            =  -1.9000000000000E+00
(PID.TID 0000.0001) %MON dynstat_theta_min            =  -1.9033447692097E+00
(PID.TID 0000.0001) %MON dynstat_theta_mean           =  -1.9000283877151E+00
(PID.TID 0000.0001) %MON dynstat_theta_sd             =   2.1913571220849E-04
(PID.TID 0000.0001) %MON dynstat_theta_del2           =   2.5754847387753E-07
(PID.TID 0000.0001) %MON dynstat_salt_max             =   3.4400000000000E+01
(PID.TID 0000.0001) %MON dynstat_salt_min             =   3.4398635060808E+01
(PID.TID 0000.0001) %MON dynstat_salt_mean            =   3.4399988471870E+01
(PID.TID 0000.0001) %MON dynstat_salt_sd              =   8.9197364139003E-05
(PID.TID 0000.0001) %MON dynstat_salt_del2            =   1.0472160520324E-07
(PID.TID 0000.0001) %MON advcfl_uvel_max              =   5.6651160833617E-06
(PID.TID 0000.0001) %MON advcfl_vvel_max              =   5.6774561383345E-06
(PID.TID 0000.0001) %MON advcfl_wvel_max              =   6.8967551805673E-06
(PID.TID 0000.0001) %MON advcfl_W_hf_max              =   9.3224518359269E-06
(PID.TID 0000.0001) %MON pe_b_mean                    =  -9.3441314128969E-09
(PID.TID 0000.0001) %MON ke_max                       =   5.0892126945626E-10
(PID.TID 0000.0001) %MON ke_mean                      =   2.7734317693861E-12
(PID.TID 0000.0001) %MON ke_vol                       =   3.4703745874272E+14
(PID.TID 0000.0001) %MON vort_r_min                   =  -5.9371626143858E-09
(PID.TID 0000.0001) %MON vort_r_max                   =   5.8401639176372E-09
(PID.TID 0000.0001) %MON vort_a_mean                  =  -1.3992981967871E-04
(PID.TID 0000.0001) %MON vort_a_sd                    =   1.7365065477589E-06
(PID.TID 0000.0001) %MON vort_p_mean                  =  -1.4746660591414E-04
(PID.TID 0000.0001) %MON vort_p_sd                    =   7.7973452732064E-05
(PID.TID 0000.0001) %MON surfExpan_theta_mean         =  -5.9051844995061E-13
(PID.TID 0000.0001) %MON surfExpan_salt_mean          =  -2.4019272974110E-13
(PID.TID 0000.0001) // =======================================================
(PID.TID 0000.0001) // End MONITOR dynamic field statistics
(PID.TID 0000.0001) // =======================================================
 cg2d: Sum(rhs),rhsMax =   1.04360964314765E-14  3.72930012111590E-05
(PID.TID 0000.0001)      cg2d_init_res =   1.58340840460820E+00
(PID.TID 0000.0001)      cg2d_iters(min,last) =      -1     211
(PID.TID 0000.0001)      cg2d_last_res =   8.73058333199394E-14
(PID.TID 0000.0001) // =======================================================
(PID.TID 0000.0001) // Begin MONITOR dynamic field statistics
(PID.TID 0000.0001) // =======================================================
(PID.TID 0000.0001) %MON time_tsnumber                =                     6
(PID.TID 0000.0001) %MON time_secondsf                =   1.0800000000000E+04
(PID.TID 0000.0001) %MON dynstat_eta_max              =   8.5627754232430E-06
(PID.TID 0000.0001) %MON dynstat_eta_min              =  -6.3626401996222E-06
(PID.TID 0000.0001) %MON dynstat_eta_mean             =   1.1312897864893E-21
(PID.TID 0000.0001) %MON dynstat_eta_sd               =   4.5637319721433E-06
(PID.TID 0000.0001) %MON dynstat_eta_del2             =   1.5053294582881E-08
(PID.TID 0000.0001) %MON dynstat_uvel_max             =   4.3939132548114E-06
(PID.TID 0000.0001) %MON dynstat_uvel_min             =  -3.0397557908797E-05
(PID.TID 0000.0001) %MON dynstat_uvel_mean            =   1.0048287197991E-08
(PID.TID 0000.0001) %MON dynstat_uvel_sd              =   1.9565164840760E-06
(PID.TID 0000.0001) %MON dynstat_uvel_del2            =   4.3504508987135E-09
(PID.TID 0000.0001) %MON dynstat_vvel_max             =   4.6889456743298E-05
(PID.TID 0000.0001) %MON dynstat_vvel_min             =  -6.7874133805324E-06
(PID.TID 0000.0001) %MON dynstat_vvel_mean            =  -2.9815884278813E-07
(PID.TID 0000.0001) %MON dynstat_vvel_sd              =   2.7010635310077E-06
(PID.TID 0000.0001) %MON dynstat_vvel_del2            =   7.0853878845090E-09
(PID.TID 0000.0001) %MON dynstat_wvel_max             =   1.7546192860480E-07
(PID.TID 0000.0001) %MON dynstat_wvel_min             =  -1.7369356840279E-07
(PID.TID 0000.0001) %MON dynstat_wvel_mean            =  -1.8883912637723E-10
(PID.TID 0000.0001) %MON dynstat_wvel_sd              =   9.1128814949172E-09
(PID.TID 0000.0001) %MON dynstat_wvel_del2            =   8.1805206828993E-11
(PID.TID 0000.0001) %MON dynstat_theta_max            =  -1.9000000000000E+00
(PID.TID 0000.0001) %MON dynstat_theta_min            =  -1.9040108511115E+00
(PID.TID 0000.0001) %MON dynstat_theta_mean           =  -1.9000340450699E+00
(PID.TID 0000.0001) %MON dynstat_theta_sd             =   2.6275226785043E-04
(PID.TID 0000.0001) %MON dynstat_theta_del2           =   3.0840040274538E-07
(PID.TID 0000.0001) %MON dynstat_salt_max             =   3.4400000000000E+01
(PID.TID 0000.0001) %MON dynstat_salt_min             =   3.4398363250641E+01
(PID.TID 0000.0001) %MON dynstat_salt_mean            =   3.4399986174522E+01
(PID.TID 0000.0001) %MON dynstat_salt_sd              =   1.0695058363208E-04
(PID.TID 0000.0001) %MON dynstat_salt_del2            =   1.2539767981948E-07
(PID.TID 0000.0001) %MON advcfl_uvel_max              =   9.0446124414018E-06
(PID.TID 0000.0001) %MON advcfl_vvel_max              =   7.5915578572904E-06
(PID.TID 0000.0001) %MON advcfl_wvel_max              =   1.0527715716288E-05
(PID.TID 0000.0001) %MON advcfl_W_hf_max              =   1.3832130612744E-05
(PID.TID 0000.0001) %MON pe_b_mean                    =  -1.3341284897531E-08
(PID.TID 0000.0001) %MON ke_max                       =   1.0486971867549E-09
(PID.TID 0000.0001) %MON ke_mean                      =   5.5190934712718E-12
(PID.TID 0000.0001) %MON ke_vol                       =   3.4703745874272E+14
(PID.TID 0000.0001) %MON vort_r_min                   =  -7.9388219648094E-09
(PID.TID 0000.0001) %MON vort_r_max                   =   7.7996570455718E-09
(PID.TID 0000.0001) %MON vort_a_mean                  =  -1.3992981966285E-04
(PID.TID 0000.0001) %MON vort_a_sd                    =   1.7365065411596E-06
(PID.TID 0000.0001) %MON vort_p_mean                  =  -1.4746660589743E-04
(PID.TID 0000.0001) %MON vort_p_sd                    =   7.7973344115151E-05
(PID.TID 0000.0001) %MON surfExpan_theta_mean         =  -8.2614997737326E-13
(PID.TID 0000.0001) %MON surfExpan_salt_mean          =  -3.3609624508353E-13
(PID.TID 0000.0001) // =======================================================
(PID.TID 0000.0001) // End MONITOR dynamic field statistics
(PID.TID 0000.0001) // =======================================================
 cg2d: Sum(rhs),rhsMax =   2.13162820728030E-14  4.35303662937705E-05
(PID.TID 0000.0001)      cg2d_init_res =   1.34936955353989E+00
(PID.TID 0000.0001)      cg2d_iters(min,last) =      -1     209
(PID.TID 0000.0001)      cg2d_last_res =   9.49774511746049E-14
(PID.TID 0000.0001) // =======================================================
(PID.TID 0000.0001) // Begin MONITOR dynamic field statistics
(PID.TID 0000.0001) // =======================================================
(PID.TID 0000.0001) %MON time_tsnumber                =                     7
(PID.TID 0000.0001) %MON time_secondsf                =   1.2600000000000E+04
(PID.TID 0000.0001) %MON dynstat_eta_max              =   1.0970969680431E-05
(PID.TID 0000.0001) %MON dynstat_eta_min              =  -7.2827239329350E-06
(PID.TID 0000.0001) %MON dynstat_eta_mean             =  -1.3309291605757E-21
(PID.TID 0000.0001) %MON dynstat_eta_sd               =   5.9843808176022E-06
(PID.TID 0000.0001) %MON dynstat_eta_del2             =   1.7696364623565E-08
(PID.TID 0000.0001) %MON dynstat_uvel_max             =   6.4982826964082E-06
(PID.TID 0000.0001) %MON dynstat_uvel_min             =  -4.4484245371281E-05
(PID.TID 0000.0001) %MON dynstat_uvel_mean            =   4.5062614833707E-09
(PID.TID 0000.0001) %MON dynstat_uvel_sd              =   2.8655417795419E-06
(PID.TID 0000.0001) %MON dynstat_uvel_del2            =   6.2676664225273E-09
(PID.TID 0000.0001) %MON dynstat_vvel_max             =   5.8413358689968E-05
(PID.TID 0000.0001) %MON dynstat_vvel_min             =  -8.5635087222701E-06
(PID.TID 0000.0001) %MON dynstat_vvel_mean            =  -3.2172914638509E-07
(PID.TID 0000.0001) %MON dynstat_vvel_sd              =   3.3688011974666E-06
(PID.TID 0000.0001) %MON dynstat_vvel_del2            =   8.7779168704966E-09
(PID.TID 0000.0001) %MON dynstat_wvel_max             =   2.4753713206291E-07
(PID.TID 0000.0001) %MON dynstat_wvel_min             =  -2.4311040011810E-07
(PID.TID 0000.0001) %MON dynstat_wvel_mean            =  -2.0258854295230E-10
(PID.TID 0000.0001) %MON dynstat_wvel_sd              =   1.1709992130679E-08
(PID.TID 0000.0001) %MON dynstat_wvel_del2            =   1.0154199431063E-10
(PID.TID 0000.0001) %MON dynstat_theta_max            =  -1.9000000000000E+00
(PID.TID 0000.0001) %MON dynstat_theta_min            =  -1.9046760169733E+00
(PID.TID 0000.0001) %MON dynstat_theta_mean           =  -1.9000396959823E+00
(PID.TID 0000.0001) %MON dynstat_theta_sd             =   3.0630168780623E-04
(PID.TID 0000.0001) %MON dynstat_theta_del2           =   3.5904189436990E-07
(PID.TID 0000.0001) %MON dynstat_salt_max             =   3.4400000000000E+01
(PID.TID 0000.0001) %MON dynstat_salt_min             =   3.4398091816097E+01
(PID.TID 0000.0001) %MON dynstat_salt_mean            =   3.4399983879815E+01
(PID.TID 0000.0001) %MON dynstat_salt_sd              =   1.2467630569392E-04
(PID.TID 0000.0001) %MON dynstat_salt_del2            =   1.4598802143047E-07
(PID.TID 0000.0001) %MON advcfl_uvel_max              =   1.3236022457417E-05
(PID.TID 0000.0001) %MON advcfl_vvel_max              =   9.4573156298496E-06
(PID.TID 0000.0001) %MON advcfl_wvel_max              =   1.4852227923775E-05
(PID.TID 0000.0001) %MON advcfl_W_hf_max              =   1.9029655417527E-05
(PID.TID 0000.0001) %MON pe_b_mean                    =  -1.7605061325231E-08
(PID.TID 0000.0001) %MON ke_max                       =   1.8997699275695E-09
(PID.TID 0000.0001) %MON ke_mean                      =   9.6733091077626E-12
(PID.TID 0000.0001) %MON ke_vol                       =   3.4703745874272E+14
(PID.TID 0000.0001) %MON vort_r_min                   =  -9.8899259495576E-09
(PID.TID 0000.0001) %MON vort_r_max                   =   9.7017321616934E-09
(PID.TID 0000.0001) %MON vort_a_mean                  =  -1.3992981964416E-04
(PID.TID 0000.0001) %MON vort_a_sd                    =   1.7365065236786E-06
(PID.TID 0000.0001) %MON vort_p_mean                  =  -1.4746660587773E-04
(PID.TID 0000.0001) %MON vort_p_sd                    =   7.7973208884653E-05
(PID.TID 0000.0001) %MON surfExpan_theta_mean         =  -1.0337419924112E-12
(PID.TID 0000.0001) %MON surfExpan_salt_mean          =  -4.2057057378941E-13
(PID.TID 0000.0001) // =======================================================
(PID.TID 0000.0001) // End MONITOR dynamic field statistics
(PID.TID 0000.0001) // =======================================================
 cg2d: Sum(rhs),rhsMax =  -2.13162820728030E-14  4.96380371902010E-05
(PID.TID 0000.0001)      cg2d_init_res =   1.17695603800712E+00
(PID.TID 0000.0001)      cg2d_iters(min,last) =      -1     208
(PID.TID 0000.0001)      cg2d_last_res =   8.37450475022553E-14
(PID.TID 0000.0001) // =======================================================
(PID.TID 0000.0001) // Begin MONITOR dynamic field statistics
(PID.TID 0000.0001) // =======================================================
(PID.TID 0000.0001) %MON time_tsnumber                =                     8
(PID.TID 0000.0001) %MON time_secondsf                =   1.4400000000000E+04
(PID.TID 0000.0001) %MON dynstat_eta_max              =   1.3369922380196E-05
(PID.TID 0000.0001) %MON dynstat_eta_min              =  -8.0786525454924E-06
(PID.TID 0000.0001) %MON dynstat_eta_mean             =  -3.9927874817270E-22
(PID.TID 0000.0001) %MON dynstat_eta_sd               =   7.4175538605527E-06
(PID.TID 0000.0001) %MON dynstat_eta_del2             =   2.0324681531306E-08
(PID.TID 0000.0001) %MON dynstat_uvel_max             =   8.9867724600492E-06
(PID.TID 0000.0001) %MON dynstat_uvel_min             =  -6.1012780712424E-05
(PID.TID 0000.0001) %MON dynstat_uvel_mean            =  -1.7198431649749E-09
(PID.TID 0000.0001) %MON dynstat_uvel_sd              =   3.9367429325105E-06
(PID.TID 0000.0001) %MON dynstat_uvel_del2            =   8.5101445428591E-09
(PID.TID 0000.0001) %MON dynstat_vvel_max             =   6.8945901761743E-05
(PID.TID 0000.0001) %MON dynstat_vvel_min             =  -1.0221732684628E-05
(PID.TID 0000.0001) %MON dynstat_vvel_mean            =  -3.2297944526177E-07
(PID.TID 0000.0001) %MON dynstat_vvel_sd              =   3.9764666533815E-06
(PID.TID 0000.0001) %MON dynstat_vvel_del2            =   1.0309566843298E-08
(PID.TID 0000.0001) %MON dynstat_wvel_max             =   3.2931692118632E-07
(PID.TID 0000.0001) %MON dynstat_wvel_min             =  -3.2134724904390E-07
(PID.TID 0000.0001) %MON dynstat_wvel_mean            =  -2.0279053161044E-10
(PID.TID 0000.0001) %MON dynstat_wvel_sd              =   1.4370512864691E-08
(PID.TID 0000.0001) %MON dynstat_wvel_del2            =   1.1968145635312E-10
(PID.TID 0000.0001) %MON dynstat_theta_max            =  -1.9000000000000E+00
(PID.TID 0000.0001) %MON dynstat_theta_min            =  -1.9053402689139E+00
(PID.TID 0000.0001) %MON dynstat_theta_mean           =  -1.9000453404636E+00
(PID.TID 0000.0001) %MON dynstat_theta_sd             =   3.4978411524702E-04
(PID.TID 0000.0001) %MON dynstat_theta_del2           =   4.0947747433408E-07
(PID.TID 0000.0001) %MON dynstat_salt_max             =   3.4400000000000E+01
(PID.TID 0000.0001) %MON dynstat_salt_min             =   3.4397820756306E+01
(PID.TID 0000.0001) %MON dynstat_salt_mean            =   3.4399981587744E+01
(PID.TID 0000.0001) %MON dynstat_salt_sd              =   1.4237458912824E-04
(PID.TID 0000.0001) %MON dynstat_salt_del2            =   1.6649424102818E-07
(PID.TID 0000.0001) %MON advcfl_uvel_max              =   1.8153989776804E-05
(PID.TID 0000.0001) %MON advcfl_vvel_max              =   1.1162569127486E-05
(PID.TID 0000.0001) %MON advcfl_wvel_max              =   1.9759015271179E-05
(PID.TID 0000.0001) %MON advcfl_W_hf_max              =   2.4757902272421E-05
(PID.TID 0000.0001) %MON pe_b_mean                    =  -2.1887301330648E-08
(PID.TID 0000.0001) %MON ke_max                       =   3.1267418249174E-09
(PID.TID 0000.0001) %MON ke_mean                      =   1.5445255568870E-11
(PID.TID 0000.0001) %MON ke_vol                       =   3.4703745874272E+14
(PID.TID 0000.0001) %MON vort_r_min                   =  -1.1673183638835E-08
(PID.TID 0000.0001) %MON vort_r_max                   =   1.1430243354323E-08
(PID.TID 0000.0001) %MON vort_a_mean                  =  -1.3992981962591E-04
(PID.TID 0000.0001) %MON vort_a_sd                    =   1.7365064861100E-06
(PID.TID 0000.0001) %MON vort_p_mean                  =  -1.4746660585850E-04
(PID.TID 0000.0001) %MON vort_p_sd                    =   7.7973049669650E-05
(PID.TID 0000.0001) %MON surfExpan_theta_mean         =  -1.1814513511997E-12
(PID.TID 0000.0001) %MON surfExpan_salt_mean          =  -4.8064499599921E-13
(PID.TID 0000.0001) // =======================================================
(PID.TID 0000.0001) // End MONITOR dynamic field statistics
(PID.TID 0000.0001) // =======================================================
 cg2d: Sum(rhs),rhsMax =   8.88178419700125E-15  5.56180007327621E-05
(PID.TID 0000.0001)      cg2d_init_res =   1.04471689689756E+00
(PID.TID 0000.0001)      cg2d_iters(min,last) =      -1     208
(PID.TID 0000.0001)      cg2d_last_res =   8.18072343934819E-14
(PID.TID 0000.0001) // =======================================================
(PID.TID 0000.0001) // Begin MONITOR dynamic field statistics
(PID.TID 0000.0001) // =======================================================
(PID.TID 0000.0001) %MON time_tsnumber                =                     9
(PID.TID 0000.0001) %MON time_secondsf                =   1.6200000000000E+04
(PID.TID 0000.0001) %MON dynstat_eta_max              =   1.5999389763535E-05
(PID.TID 0000.0001) %MON dynstat_eta_min              =  -8.7220824129427E-06
(PID.TID 0000.0001) %MON dynstat_eta_mean             =  -2.5287654050938E-21
(PID.TID 0000.0001) %MON dynstat_eta_sd               =   8.7832422800886E-06
(PID.TID 0000.0001) %MON dynstat_eta_del2             =   2.2937588902550E-08
(PID.TID 0000.0001) %MON dynstat_uvel_max             =   1.1798847306775E-05
(PID.TID 0000.0001) %MON dynstat_uvel_min             =  -7.9550925434409E-05
(PID.TID 0000.0001) %MON dynstat_uvel_mean            =  -7.1776607846487E-09
(PID.TID 0000.0001) %MON dynstat_uvel_sd              =   5.1433621389170E-06
(PID.TID 0000.0001) %MON dynstat_uvel_del2            =   1.1022219381439E-08
(PID.TID 0000.0001) %MON dynstat_vvel_max             =   7.7903628712916E-05
(PID.TID 0000.0001) %MON dynstat_vvel_min             =  -1.1675904644563E-05
(PID.TID 0000.0001) %MON dynstat_vvel_mean            =  -3.0454164149955E-07
(PID.TID 0000.0001) %MON dynstat_vvel_sd              =   4.4877244732223E-06
(PID.TID 0000.0001) %MON dynstat_vvel_del2            =   1.1599548541131E-08
(PID.TID 0000.0001) %MON dynstat_wvel_max             =   4.1849170741611E-07
(PID.TID 0000.0001) %MON dynstat_wvel_min             =  -4.0610604218698E-07
(PID.TID 0000.0001) %MON dynstat_wvel_mean            =  -1.9080022066433E-10
(PID.TID 0000.0001) %MON dynstat_wvel_sd              =   1.7028165983382E-08
(PID.TID 0000.0001) %MON dynstat_wvel_del2            =   1.3538674952510E-10
(PID.TID 0000.0001) %MON dynstat_theta_max            =  -1.9000000000000E+00
(PID.TID 0000.0001) %MON dynstat_theta_min            =  -1.9060036092377E+00
(PID.TID 0000.0001) %MON dynstat_theta_mean           =  -1.9000509785253E+00
(PID.TID 0000.0001) %MON dynstat_theta_sd             =   3.9319969330110E-04
(PID.TID 0000.0001) %MON dynstat_theta_del2           =   4.5970939720240E-07
(PID.TID 0000.0001) %MON dynstat_salt_max             =   3.4400000000000E+01
(PID.TID 0000.0001) %MON dynstat_salt_min             =   3.4397550070321E+01
(PID.TID 0000.0001) %MON dynstat_salt_mean            =   3.4399979298306E+01
(PID.TID 0000.0001) %MON dynstat_salt_sd              =   1.6004549270845E-04
(PID.TID 0000.0001) %MON dynstat_salt_del2            =   1.8691739781041E-07
(PID.TID 0000.0001) %MON advcfl_uvel_max              =   2.3669904407053E-05
(PID.TID 0000.0001) %MON advcfl_vvel_max              =   1.2612854695773E-05
(PID.TID 0000.0001) %MON advcfl_wvel_max              =   2.5109502444967E-05
(PID.TID 0000.0001) %MON advcfl_W_hf_max              =   3.0837695586444E-05
(PID.TID 0000.0001) %MON pe_b_mean                    =  -2.5958425987174E-08
(PID.TID 0000.0001) %MON ke_max                       =   4.7723178734125E-09
(PID.TID 0000.0001) %MON ke_mean                      =   2.2941336460024E-11
(PID.TID 0000.0001) %MON ke_vol                       =   3.4703745874272E+14
(PID.TID 0000.0001) %MON vort_r_min                   =  -1.3189810284011E-08
(PID.TID 0000.0001) %MON vort_r_max                   =   1.2888302884043E-08
(PID.TID 0000.0001) %MON vort_a_mean                  =  -1.3992981961098E-04
(PID.TID 0000.0001) %MON vort_a_sd                    =   1.7365064211229E-06
(PID.TID 0000.0001) %MON vort_p_mean                  =  -1.4746660584277E-04
(PID.TID 0000.0001) %MON vort_p_sd                    =   7.7972870519778E-05
(PID.TID 0000.0001) %MON surfExpan_theta_mean         =  -1.2487019491418E-12
(PID.TID 0000.0001) %MON surfExpan_salt_mean          =  -5.0794244896979E-13
(PID.TID 0000.0001) // =======================================================
(PID.TID 0000.0001) // End MONITOR dynamic field statistics
(PID.TID 0000.0001) // =======================================================
 cg2d: Sum(rhs),rhsMax =  -4.48530101948563E-14  6.14806585469824E-05
(PID.TID 0000.0001)      cg2d_init_res =   9.39958059502515E-01
(PID.TID 0000.0001)      cg2d_iters(min,last) =      -1     208
(PID.TID 0000.0001)      cg2d_last_res =   8.99564582494186E-14
(PID.TID 0000.0001) // =======================================================
(PID.TID 0000.0001) // Begin MONITOR dynamic field statistics
(PID.TID 0000.0001) // =======================================================
(PID.TID 0000.0001) %MON time_tsnumber                =                    10
(PID.TID 0000.0001) %MON time_secondsf                =   1.8000000000000E+04
(PID.TID 0000.0001) %MON dynstat_eta_max              =   1.8537217233274E-05
(PID.TID 0000.0001) %MON dynstat_eta_min              =  -9.3306113346422E-06
(PID.TID 0000.0001) %MON dynstat_eta_mean             =  -3.9927874817270E-21
(PID.TID 0000.0001) %MON dynstat_eta_sd               =   1.0019015294934E-05
(PID.TID 0000.0001) %MON dynstat_eta_del2             =   2.5534537884044E-08
(PID.TID 0000.0001) %MON dynstat_uvel_max             =   1.4855528040781E-05
(PID.TID 0000.0001) %MON dynstat_uvel_min             =  -9.9561189319027E-05
(PID.TID 0000.0001) %MON dynstat_uvel_mean            =  -1.1000313312252E-08
(PID.TID 0000.0001) %MON dynstat_uvel_sd              =   6.4510483529753E-06
(PID.TID 0000.0001) %MON dynstat_uvel_del2            =   1.3734774889895E-08
(PID.TID 0000.0001) %MON dynstat_vvel_max             =   8.4843967210790E-05
(PID.TID 0000.0001) %MON dynstat_vvel_min             =  -1.2859879337603E-05
(PID.TID 0000.0001) %MON dynstat_vvel_mean            =  -2.7117366510633E-07
(PID.TID 0000.0001) %MON dynstat_vvel_sd              =   4.8743641960052E-06
(PID.TID 0000.0001) %MON dynstat_vvel_del2            =   1.2588902193797E-08
(PID.TID 0000.0001) %MON dynstat_wvel_max             =   5.1243013139584E-07
(PID.TID 0000.0001) %MON dynstat_wvel_min             =  -4.9481480821112E-07
(PID.TID 0000.0001) %MON dynstat_wvel_mean            =  -1.6948585806107E-10
(PID.TID 0000.0001) %MON dynstat_wvel_sd              =   1.9629155408483E-08
(PID.TID 0000.0001) %MON dynstat_wvel_del2            =   1.4808305408954E-10
(PID.TID 0000.0001) %MON dynstat_theta_max            =  -1.9000000000000E+00
(PID.TID 0000.0001) %MON dynstat_theta_min            =  -1.9066660404103E+00
(PID.TID 0000.0001) %MON dynstat_theta_mean           =  -1.9000566101788E+00
(PID.TID 0000.0001) %MON dynstat_theta_sd             =   4.3654856492794E-04
(PID.TID 0000.0001) %MON dynstat_theta_del2           =   5.0973819106128E-07
(PID.TID 0000.0001) %MON dynstat_salt_max             =   3.4400000000000E+01
(PID.TID 0000.0001) %MON dynstat_salt_min             =   3.4397279757128E+01
(PID.TID 0000.0001) %MON dynstat_salt_mean            =   3.4399977011495E+01
(PID.TID 0000.0001) %MON dynstat_salt_sd              =   1.7768907513816E-04
(PID.TID 0000.0001) %MON dynstat_salt_del2            =   2.0725769431283E-07
(PID.TID 0000.0001) %MON advcfl_uvel_max              =   2.9623839332666E-05
(PID.TID 0000.0001) %MON advcfl_vvel_max              =   1.3736518412848E-05
(PID.TID 0000.0001) %MON advcfl_wvel_max              =   3.0745807883750E-05
(PID.TID 0000.0001) %MON advcfl_W_hf_max              =   3.7079457684192E-05
(PID.TID 0000.0001) %MON pe_b_mean                    =  -2.9637956292152E-08
(PID.TID 0000.0001) %MON ke_max                       =   6.8491267912922E-09
(PID.TID 0000.0001) %MON ke_mean                      =   3.2144357853073E-11
(PID.TID 0000.0001) %MON ke_vol                       =   3.4703745874272E+14
(PID.TID 0000.0001) %MON vort_r_min                   =  -1.4364874265063E-08
(PID.TID 0000.0001) %MON vort_r_max                   =   1.4003382558272E-08
(PID.TID 0000.0001) %MON vort_a_mean                  =  -1.3992981960122E-04
(PID.TID 0000.0001) %MON vort_a_sd                    =   1.7365063259591E-06
(PID.TID 0000.0001) %MON vort_p_mean                  =  -1.4746660583248E-04
(PID.TID 0000.0001) %MON vort_p_sd                    =   7.7972676548195E-05
(PID.TID 0000.0001) %MON surfExpan_theta_mean         =  -1.2300450861376E-12
(PID.TID 0000.0001) %MON surfExpan_salt_mean          =  -5.0024935881703E-13
(PID.TID 0000.0001) // =======================================================
(PID.TID 0000.0001) // End MONITOR dynamic field statistics
(PID.TID 0000.0001) // =======================================================
 Computing Diagnostic #    192  SHIfwFlx     Counter:      10   Parms: SM      L1      
 Computing Diagnostic #    193  SHIhtFlx     Counter:      10   Parms: SM      L1      
 Computing Diagnostic #    201  ICFfwFlx     Counter:      10   Parms: SM      MR      
 Computing Diagnostic #    202  ICFhtFlx     Counter:      10   Parms: SM      MR      
 cg2d: Sum(rhs),rhsMax =  -4.57411886145564E-14  6.72424775253986E-05
(PID.TID 0000.0001)      cg2d_init_res =   8.54689044905176E-01
(PID.TID 0000.0001)      cg2d_iters(min,last) =      -1     208
(PID.TID 0000.0001)      cg2d_last_res =   8.79775796386867E-14
(PID.TID 0000.0001) // =======================================================
(PID.TID 0000.0001) // Begin MONITOR dynamic field statistics
(PID.TID 0000.0001) // =======================================================
(PID.TID 0000.0001) %MON time_tsnumber                =                    11
(PID.TID 0000.0001) %MON time_secondsf                =   1.9800000000000E+04
(PID.TID 0000.0001) %MON dynstat_eta_max              =   2.0801921350716E-05
(PID.TID 0000.0001) %MON dynstat_eta_min              =  -1.0079562245098E-05
(PID.TID 0000.0001) %MON dynstat_eta_mean             =  -2.1294866569211E-21
(PID.TID 0000.0001) %MON dynstat_eta_sd               =   1.1086928839611E-05
(PID.TID 0000.0001) %MON dynstat_eta_del2             =   2.8115062183086E-08
(PID.TID 0000.0001) %MON dynstat_uvel_max             =   1.8065303208566E-05
(PID.TID 0000.0001) %MON dynstat_uvel_min             =  -1.2044253249259E-04
(PID.TID 0000.0001) %MON dynstat_uvel_mean            =  -1.2882001488641E-08
(PID.TID 0000.0001) %MON dynstat_uvel_sd              =   7.8204804101354E-06
(PID.TID 0000.0001) %MON dynstat_uvel_del2            =   1.6570769848541E-08
(PID.TID 0000.0001) %MON dynstat_vvel_max             =   8.9485460210413E-05
(PID.TID 0000.0001) %MON dynstat_vvel_min             =  -1.3729236462366E-05
(PID.TID 0000.0001) %MON dynstat_vvel_mean            =  -2.2883553629437E-07
(PID.TID 0000.0001) %MON dynstat_vvel_sd              =   5.1177305871004E-06
(PID.TID 0000.0001) %MON dynstat_vvel_del2            =   1.3242619494640E-08
(PID.TID 0000.0001) %MON dynstat_wvel_max             =   6.0837112554636E-07
(PID.TID 0000.0001) %MON dynstat_wvel_min             =  -5.8481123134095E-07
(PID.TID 0000.0001) %MON dynstat_wvel_mean            =  -1.4261949074463E-10
(PID.TID 0000.0001) %MON dynstat_wvel_sd              =   2.2131883074126E-08
(PID.TID 0000.0001) %MON dynstat_wvel_del2            =   1.5747874855621E-10
(PID.TID 0000.0001) %MON dynstat_theta_max            =  -1.9000000000000E+00
(PID.TID 0000.0001) %MON dynstat_theta_min            =  -1.9073275650172E+00
(PID.TID 0000.0001) %MON dynstat_theta_mean           =  -1.9000622354353E+00
(PID.TID 0000.0001) %MON dynstat_theta_sd             =   4.7983087261459E-04
(PID.TID 0000.0001) %MON dynstat_theta_del2           =   5.5956470782846E-07
(PID.TID 0000.0001) %MON dynstat_salt_max             =   3.4400000000000E+01
(PID.TID 0000.0001) %MON dynstat_salt_min             =   3.4397009815665E+01
(PID.TID 0000.0001) %MON dynstat_salt_mean            =   3.4399974727307E+01
(PID.TID 0000.0001) %MON dynstat_salt_sd              =   1.9530539492837E-04
(PID.TID 0000.0001) %MON dynstat_salt_del2            =   2.2751547431009E-07
(PID.TID 0000.0001) %MON advcfl_uvel_max              =   3.5836958716382E-05
(PID.TID 0000.0001) %MON advcfl_vvel_max              =   1.4487991453872E-05
(PID.TID 0000.0001) %MON advcfl_wvel_max              =   3.6502267532781E-05
(PID.TID 0000.0001) %MON advcfl_W_hf_max              =   4.3296394269291E-05
(PID.TID 0000.0001) %MON pe_b_mean                    =  -3.2814529631626E-08
(PID.TID 0000.0001) %MON ke_max                       =   9.3351394588287E-09
(PID.TID 0000.0001) %MON ke_mean                      =   4.2906451043782E-11
(PID.TID 0000.0001) %MON ke_vol                       =   3.4703745874272E+14
(PID.TID 0000.0001) %MON vort_r_min                   =  -1.5150722281529E-08
(PID.TID 0000.0001) %MON vort_r_max                   =   1.4730477249188E-08
(PID.TID 0000.0001) %MON vort_a_mean                  =  -1.3992981959735E-04
(PID.TID 0000.0001) %MON vort_a_sd                    =   1.7365062021840E-06
(PID.TID 0000.0001) %MON vort_p_mean                  =  -1.4746660582840E-04
(PID.TID 0000.0001) %MON vort_p_sd                    =   7.7972473544781E-05
(PID.TID 0000.0001) %MON surfExpan_theta_mean         =  -1.1356649163209E-12
(PID.TID 0000.0001) %MON surfExpan_salt_mean          =  -4.6171937053381E-13
(PID.TID 0000.0001) // =======================================================
(PID.TID 0000.0001) // End MONITOR dynamic field statistics
(PID.TID 0000.0001) // =======================================================
 cg2d: Sum(rhs),rhsMax =  -4.57411886145564E-14  7.29230171179296E-05
(PID.TID 0000.0001)      cg2d_init_res =   7.83709969377025E-01
(PID.TID 0000.0001)      cg2d_iters(min,last) =      -1     208
(PID.TID 0000.0001)      cg2d_last_res =   7.75963292908045E-14
(PID.TID 0000.0001) // =======================================================
(PID.TID 0000.0001) // Begin MONITOR dynamic field statistics
(PID.TID 0000.0001) // =======================================================
(PID.TID 0000.0001) %MON time_tsnumber                =                    12
(PID.TID 0000.0001) %MON time_secondsf                =   2.1600000000000E+04
(PID.TID 0000.0001) %MON dynstat_eta_max              =   2.2699401748413E-05
(PID.TID 0000.0001) %MON dynstat_eta_min              =  -1.0723049822554E-05
(PID.TID 0000.0001) %MON dynstat_eta_mean             =  -1.3309291605757E-21
(PID.TID 0000.0001) %MON dynstat_eta_sd               =   1.1975392812412E-05
(PID.TID 0000.0001) %MON dynstat_eta_del2             =   3.0678913158746E-08
(PID.TID 0000.0001) %MON dynstat_uvel_max             =   2.1330792854441E-05
(PID.TID 0000.0001) %MON dynstat_uvel_min             =  -1.4157321656923E-04
(PID.TID 0000.0001) %MON dynstat_uvel_mean            =  -1.2883140297052E-08
(PID.TID 0000.0001) %MON dynstat_uvel_sd              =   9.2101799380458E-06
(PID.TID 0000.0001) %MON dynstat_uvel_del2            =   1.9450859008733E-08
(PID.TID 0000.0001) %MON dynstat_vvel_max             =   9.1715802412305E-05
(PID.TID 0000.0001) %MON dynstat_vvel_min             =  -1.4262226363259E-05
(PID.TID 0000.0001) %MON dynstat_vvel_mean            =  -1.8378488000326E-07
(PID.TID 0000.0001) %MON dynstat_vvel_sd              =   5.2094837755430E-06
(PID.TID 0000.0001) %MON dynstat_vvel_del2            =   1.3549969508655E-08
(PID.TID 0000.0001) %MON dynstat_wvel_max             =   7.0361661201897E-07
(PID.TID 0000.0001) %MON dynstat_wvel_min             =  -6.7352231525947E-07
(PID.TID 0000.0001) %MON dynstat_wvel_mean            =  -1.1421189332807E-10
(PID.TID 0000.0001) %MON dynstat_wvel_sd              =   2.4505658930104E-08
(PID.TID 0000.0001) %MON dynstat_wvel_del2            =   1.6356456069878E-10
(PID.TID 0000.0001) %MON dynstat_theta_max            =  -1.9000000000000E+00
(PID.TID 0000.0001) %MON dynstat_theta_min            =  -1.9079881857094E+00
(PID.TID 0000.0001) %MON dynstat_theta_mean           =  -1.9000678543062E+00
(PID.TID 0000.0001) %MON dynstat_theta_sd             =   5.2304675815225E-04
(PID.TID 0000.0001) %MON dynstat_theta_del2           =   6.0918988524557E-07
(PID.TID 0000.0001) %MON dynstat_salt_max             =   3.4400000000000E+01
(PID.TID 0000.0001) %MON dynstat_salt_min             =   3.4396740244845E+01
(PID.TID 0000.0001) %MON dynstat_salt_mean            =   3.4399972445738E+01
(PID.TID 0000.0001) %MON dynstat_salt_sd              =   2.1289451030462E-04
(PID.TID 0000.0001) %MON dynstat_salt_del2            =   2.4769111868161E-07
(PID.TID 0000.0001) %MON advcfl_uvel_max              =   4.2124268001829E-05
(PID.TID 0000.0001) %MON advcfl_vvel_max              =   1.4849091220071E-05
(PID.TID 0000.0001) %MON advcfl_wvel_max              =   4.2216996721138E-05
(PID.TID 0000.0001) %MON advcfl_W_hf_max              =   4.9317268001949E-05
(PID.TID 0000.0001) %MON pe_b_mean                    =  -3.5452438169221E-08
(PID.TID 0000.0001) %MON ke_max                       =   1.2173842147181E-08
(PID.TID 0000.0001) %MON ke_mean                      =   5.4957117936405E-11
(PID.TID 0000.0001) %MON ke_vol                       =   3.4703745874272E+14
(PID.TID 0000.0001) %MON vort_r_min                   =  -1.5528339999695E-08
(PID.TID 0000.0001) %MON vort_r_max                   =   1.5053235872622E-08
(PID.TID 0000.0001) %MON vort_a_mean                  =  -1.3992981959924E-04
(PID.TID 0000.0001) %MON vort_a_sd                    =   1.7365060545848E-06
(PID.TID 0000.0001) %MON vort_p_mean                  =  -1.4746660583039E-04
(PID.TID 0000.0001) %MON vort_p_sd                    =   7.7972267577215E-05
(PID.TID 0000.0001) %MON surfExpan_theta_mean         =  -9.8878645838863E-13
(PID.TID 0000.0001) %MON surfExpan_salt_mean          =  -4.0181654096339E-13
(PID.TID 0000.0001) // =======================================================
(PID.TID 0000.0001) // End MONITOR dynamic field statistics
(PID.TID 0000.0001) // =======================================================
 cg2d: Sum(rhs),rhsMax =  -1.99840144432528E-14  7.85420411161377E-05
(PID.TID 0000.0001)      cg2d_init_res =   7.23506822472483E-01
(PID.TID 0000.0001)      cg2d_iters(min,last) =      -1     204
(PID.TID 0000.0001)      cg2d_last_res =   9.84066053732215E-14
(PID.TID 0000.0001) // =======================================================
(PID.TID 0000.0001) // Begin MONITOR dynamic field statistics
(PID.TID 0000.0001) // =======================================================
(PID.TID 0000.0001) %MON time_tsnumber                =                    13
(PID.TID 0000.0001) %MON time_secondsf                =   2.3400000000000E+04
(PID.TID 0000.0001) %MON dynstat_eta_max              =   2.4273878290682E-05
(PID.TID 0000.0001) %MON dynstat_eta_min              =  -1.1218499585857E-05
(PID.TID 0000.0001) %MON dynstat_eta_mean             =  -4.2589733138422E-21
(PID.TID 0000.0001) %MON dynstat_eta_sd               =   1.2696776678851E-05
(PID.TID 0000.0001) %MON dynstat_eta_del2             =   3.3226058482316E-08
(PID.TID 0000.0001) %MON dynstat_uvel_max             =   2.4555541764357E-05
(PID.TID 0000.0001) %MON dynstat_uvel_min             =  -1.6234895819129E-04
(PID.TID 0000.0001) %MON dynstat_uvel_mean            =  -1.1245682081958E-08
(PID.TID 0000.0001) %MON dynstat_uvel_sd              =   1.0579329088993E-05
(PID.TID 0000.0001) %MON dynstat_uvel_del2            =   2.2298743177650E-08
(PID.TID 0000.0001) %MON dynstat_vvel_max             =   9.1588112304605E-05
(PID.TID 0000.0001) %MON dynstat_vvel_min             =  -1.4459895284353E-05
(PID.TID 0000.0001) %MON dynstat_vvel_mean            =  -1.4175130528473E-07
(PID.TID 0000.0001) %MON dynstat_vvel_sd              =   5.1516721131411E-06
(PID.TID 0000.0001) %MON dynstat_vvel_del2            =   1.3523245162938E-08
(PID.TID 0000.0001) %MON dynstat_wvel_max             =   7.9570531830979E-07
(PID.TID 0000.0001) %MON dynstat_wvel_min             =  -7.5862660345259E-07
(PID.TID 0000.0001) %MON dynstat_wvel_mean            =  -8.7919320838700E-11
(PID.TID 0000.0001) %MON dynstat_wvel_sd              =   2.6728991567090E-08
(PID.TID 0000.0001) %MON dynstat_wvel_del2            =   1.6659381660830E-10
(PID.TID 0000.0001) %MON dynstat_theta_max            =  -1.9000000000000E+00
(PID.TID 0000.0001) %MON dynstat_theta_min            =  -1.9086479051442E+00
(PID.TID 0000.0001) %MON dynstat_theta_mean           =  -1.9000734668027E+00
(PID.TID 0000.0001) %MON dynstat_theta_sd             =   5.6619636249286E-04
(PID.TID 0000.0001) %MON dynstat_theta_del2           =   6.5861467892274E-07
(PID.TID 0000.0001) %MON dynstat_salt_max             =   3.4400000000000E+01
(PID.TID 0000.0001) %MON dynstat_salt_min             =   3.4396471043576E+01
(PID.TID 0000.0001) %MON dynstat_salt_mean            =   3.4399970166781E+01
(PID.TID 0000.0001) %MON dynstat_salt_sd              =   2.3045647914865E-04
(PID.TID 0000.0001) %MON dynstat_salt_del2            =   2.6778501636372E-07
(PID.TID 0000.0001) %MON advcfl_uvel_max              =   4.8305966272396E-05
(PID.TID 0000.0001) %MON advcfl_vvel_max              =   1.4828417770052E-05
(PID.TID 0000.0001) %MON advcfl_wvel_max              =   4.7742319098587E-05
(PID.TID 0000.0001) %MON advcfl_W_hf_max              =   5.4997051897796E-05
(PID.TID 0000.0001) %MON pe_b_mean                    =  -3.7585893812294E-08
(PID.TID 0000.0001) %MON ke_max                       =   1.5278871062905E-08
(PID.TID 0000.0001) %MON ke_mean                      =   6.7925676617768E-11
(PID.TID 0000.0001) %MON ke_vol                       =   3.4703745874272E+14
(PID.TID 0000.0001) %MON vort_r_min                   =  -1.5506720874584E-08
(PID.TID 0000.0001) %MON vort_r_max                   =   1.4983109521175E-08
(PID.TID 0000.0001) %MON vort_a_mean                  =  -1.3992981960613E-04
(PID.TID 0000.0001) %MON vort_a_sd                    =   1.7365058904087E-06
(PID.TID 0000.0001) %MON vort_p_mean                  =  -1.4746660583765E-04
(PID.TID 0000.0001) %MON vort_p_sd                    =   7.7972064597199E-05
(PID.TID 0000.0001) %MON surfExpan_theta_mean         =  -8.2088741643563E-13
(PID.TID 0000.0001) %MON surfExpan_salt_mean          =  -3.3336469804770E-13
(PID.TID 0000.0001) // =======================================================
(PID.TID 0000.0001) // End MONITOR dynamic field statistics
(PID.TID 0000.0001) // =======================================================
 cg2d: Sum(rhs),rhsMax =  -4.57411886145564E-14  8.41174754201030E-05
(PID.TID 0000.0001)      cg2d_init_res =   6.71642230201643E-01
(PID.TID 0000.0001)      cg2d_iters(min,last) =      -1     206
(PID.TID 0000.0001)      cg2d_last_res =   9.50661669727635E-14
(PID.TID 0000.0001) // =======================================================
(PID.TID 0000.0001) // Begin MONITOR dynamic field statistics
(PID.TID 0000.0001) // =======================================================
(PID.TID 0000.0001) %MON time_tsnumber                =                    14
(PID.TID 0000.0001) %MON time_secondsf                =   2.5200000000000E+04
(PID.TID 0000.0001) %MON dynstat_eta_max              =   2.5556848356628E-05
(PID.TID 0000.0001) %MON dynstat_eta_min              =  -1.1567247393950E-05
(PID.TID 0000.0001) %MON dynstat_eta_mean             =   8.7841324597994E-21
(PID.TID 0000.0001) %MON dynstat_eta_sd               =   1.3281960035387E-05
(PID.TID 0000.0001) %MON dynstat_eta_del2             =   3.5756647891441E-08
(PID.TID 0000.0001) %MON dynstat_uvel_max             =   2.7650374288750E-05
(PID.TID 0000.0001) %MON dynstat_uvel_min             =  -1.8222310916384E-04
(PID.TID 0000.0001) %MON dynstat_uvel_mean            =  -8.2951041518958E-09
(PID.TID 0000.0001) %MON dynstat_uvel_sd              =   1.1890409785843E-05
(PID.TID 0000.0001) %MON dynstat_uvel_del2            =   2.5045923534035E-08
(PID.TID 0000.0001) %MON dynstat_vvel_max             =   8.9306667507150E-05
(PID.TID 0000.0001) %MON dynstat_vvel_min             =  -1.4343882516198E-05
(PID.TID 0000.0001) %MON dynstat_vvel_mean            =  -1.0728509972633E-07
(PID.TID 0000.0001) %MON dynstat_vvel_sd              =   4.9561394750227E-06
(PID.TID 0000.0001) %MON dynstat_vvel_del2            =   1.3195165445070E-08
(PID.TID 0000.0001) %MON dynstat_wvel_max             =   8.8255569450009E-07
(PID.TID 0000.0001) %MON dynstat_wvel_min             =  -8.3818815251913E-07
(PID.TID 0000.0001) %MON dynstat_wvel_mean            =  -6.6606706404347E-11
(PID.TID 0000.0001) %MON dynstat_wvel_sd              =   2.8787824680113E-08
(PID.TID 0000.0001) %MON dynstat_wvel_del2            =   1.6704469348525E-10
(PID.TID 0000.0001) %MON dynstat_theta_max            =  -1.9000000000000E+00
(PID.TID 0000.0001) %MON dynstat_theta_min            =  -1.9093067259261E+00
(PID.TID 0000.0001) %MON dynstat_theta_mean           =  -1.9000790729358E+00
(PID.TID 0000.0001) %MON dynstat_theta_sd             =   6.0927982568444E-04
(PID.TID 0000.0001) %MON dynstat_theta_del2           =   7.0784004380364E-07
(PID.TID 0000.0001) %MON dynstat_salt_max             =   3.4400000000000E+01
(PID.TID 0000.0001) %MON dynstat_salt_min             =   3.4396202210789E+01
(PID.TID 0000.0001) %MON dynstat_salt_mean            =   3.4399967890434E+01
(PID.TID 0000.0001) %MON dynstat_salt_sd              =   2.4799135897186E-04
(PID.TID 0000.0001) %MON dynstat_salt_del2            =   2.8779755643036E-07
(PID.TID 0000.0001) %MON advcfl_uvel_max              =   5.4219401611115E-05
(PID.TID 0000.0001) %MON advcfl_vvel_max              =   1.4459044324911E-05
(PID.TID 0000.0001) %MON advcfl_wvel_max              =   5.2953341670006E-05
(PID.TID 0000.0001) %MON advcfl_W_hf_max              =   6.0224638299549E-05
(PID.TID 0000.0001) %MON pe_b_mean                    =  -3.9304413291421E-08
(PID.TID 0000.0001) %MON ke_max                       =   1.8542677770908E-08
(PID.TID 0000.0001) %MON ke_mean                      =   8.1375321752479E-11
(PID.TID 0000.0001) %MON ke_vol                       =   3.4703745874272E+14
(PID.TID 0000.0001) %MON vort_r_min                   =  -1.5120451010792E-08
(PID.TID 0000.0001) %MON vort_r_max                   =   1.4556708272136E-08
(PID.TID 0000.0001) %MON vort_a_mean                  =  -1.3992981961681E-04
(PID.TID 0000.0001) %MON vort_a_sd                    =   1.7365057181747E-06
(PID.TID 0000.0001) %MON vort_p_mean                  =  -1.4746660584891E-04
(PID.TID 0000.0001) %MON vort_p_sd                    =   7.7971870071986E-05
(PID.TID 0000.0001) %MON surfExpan_theta_mean         =  -6.6592808794794E-13
(PID.TID 0000.0001) %MON surfExpan_salt_mean          =  -2.7019715315601E-13
(PID.TID 0000.0001) // =======================================================
(PID.TID 0000.0001) // End MONITOR dynamic field statistics
(PID.TID 0000.0001) // =======================================================
 cg2d: Sum(rhs),rhsMax =   5.24025267623074E-14  8.96642102540860E-05
(PID.TID 0000.0001)      cg2d_init_res =   6.26387011832620E-01
(PID.TID 0000.0001)      cg2d_iters(min,last) =      -1     206
(PID.TID 0000.0001)      cg2d_last_res =   9.52067471456506E-14
(PID.TID 0000.0001) // =======================================================
(PID.TID 0000.0001) // Begin MONITOR dynamic field statistics
(PID.TID 0000.0001) // =======================================================
(PID.TID 0000.0001) %MON time_tsnumber                =                    15
(PID.TID 0000.0001) %MON time_secondsf                =   2.7000000000000E+04
(PID.TID 0000.0001) %MON dynstat_eta_max              =   2.6557219387877E-05
(PID.TID 0000.0001) %MON dynstat_eta_min              =  -1.1813803856149E-05
(PID.TID 0000.0001) %MON dynstat_eta_mean             =   3.4604158174968E-21
(PID.TID 0000.0001) %MON dynstat_eta_sd               =   1.3773299032096E-05
(PID.TID 0000.0001) %MON dynstat_eta_del2             =   3.8270965494180E-08
(PID.TID 0000.0001) %MON dynstat_uvel_max             =   3.0538881874352E-05
(PID.TID 0000.0001) %MON dynstat_uvel_min             =  -2.0073847700713E-04
(PID.TID 0000.0001) %MON dynstat_uvel_mean            =  -4.4123001773167E-09
(PID.TID 0000.0001) %MON dynstat_uvel_sd              =   1.3111499063409E-05
(PID.TID 0000.0001) %MON dynstat_uvel_del2            =   2.7635593701283E-08
(PID.TID 0000.0001) %MON dynstat_vvel_max             =   8.5203806353155E-05
(PID.TID 0000.0001) %MON dynstat_vvel_min             =  -1.3983247639448E-05
(PID.TID 0000.0001) %MON dynstat_vvel_mean            =  -8.3359847856928E-08
(PID.TID 0000.0001) %MON dynstat_vvel_sd              =   4.6433325511334E-06
(PID.TID 0000.0001) %MON dynstat_vvel_del2            =   1.2615190441828E-08
(PID.TID 0000.0001) %MON dynstat_wvel_max             =   9.6257220622940E-07
(PID.TID 0000.0001) %MON dynstat_wvel_min             =  -9.1075549019533E-07
(PID.TID 0000.0001) %MON dynstat_wvel_mean            =  -5.2104942167276E-11
(PID.TID 0000.0001) %MON dynstat_wvel_sd              =   3.0674035821693E-08
(PID.TID 0000.0001) %MON dynstat_wvel_del2            =   1.6556502252130E-10
(PID.TID 0000.0001) %MON dynstat_theta_max            =  -1.9000000000000E+00
(PID.TID 0000.0001) %MON dynstat_theta_min            =  -1.9099646505520E+00
(PID.TID 0000.0001) %MON dynstat_theta_mean           =  -1.9000846727165E+00
(PID.TID 0000.0001) %MON dynstat_theta_sd             =   6.5229728688853E-04
(PID.TID 0000.0001) %MON dynstat_theta_del2           =   7.5686692851623E-07
(PID.TID 0000.0001) %MON dynstat_salt_max             =   3.4400000000000E+01
(PID.TID 0000.0001) %MON dynstat_salt_min             =   3.4395933745458E+01
(PID.TID 0000.0001) %MON dynstat_salt_mean            =   3.4399965616691E+01
(PID.TID 0000.0001) %MON dynstat_salt_sd              =   2.6549920692246E-04
(PID.TID 0000.0001) %MON dynstat_salt_del2            =   3.0772912564527E-07
(PID.TID 0000.0001) %MON advcfl_uvel_max              =   5.9728539116665E-05
(PID.TID 0000.0001) %MON advcfl_vvel_max              =   1.3794777558045E-05
(PID.TID 0000.0001) %MON advcfl_wvel_max              =   5.7754332373764E-05
(PID.TID 0000.0001) %MON advcfl_W_hf_max              =   6.4927472196179E-05
(PID.TID 0000.0001) %MON pe_b_mean                    =  -4.0733359063528E-08
(PID.TID 0000.0001) %MON ke_max                       =   2.1847941344112E-08
(PID.TID 0000.0001) %MON ke_mean                      =   9.4844510640018E-11
(PID.TID 0000.0001) %MON ke_vol                       =   3.4703745874272E+14
(PID.TID 0000.0001) %MON vort_r_min                   =  -1.4425798385017E-08
(PID.TID 0000.0001) %MON vort_r_max                   =   1.3831672419803E-08
(PID.TID 0000.0001) %MON vort_a_mean                  =  -1.3992981962975E-04
(PID.TID 0000.0001) %MON vort_a_sd                    =   1.7365055478861E-06
(PID.TID 0000.0001) %MON vort_p_mean                  =  -1.4746660586255E-04
(PID.TID 0000.0001) %MON vort_p_sd                    =   7.7971688662837E-05
(PID.TID 0000.0001) %MON surfExpan_theta_mean         =  -5.5480723072434E-13
(PID.TID 0000.0001) %MON surfExpan_salt_mean          =  -2.2489863606904E-13
(PID.TID 0000.0001) // =======================================================
(PID.TID 0000.0001) // End MONITOR dynamic field statistics
(PID.TID 0000.0001) // =======================================================
 cg2d: Sum(rhs),rhsMax =   2.04281036531029E-14  9.51935438811862E-05
(PID.TID 0000.0001)      cg2d_init_res =   5.86487164620231E-01
(PID.TID 0000.0001)      cg2d_iters(min,last) =      -1     205
(PID.TID 0000.0001)      cg2d_last_res =   9.31754546354455E-14
(PID.TID 0000.0001) // =======================================================
(PID.TID 0000.0001) // Begin MONITOR dynamic field statistics
(PID.TID 0000.0001) // =======================================================
(PID.TID 0000.0001) %MON time_tsnumber                =                    16
(PID.TID 0000.0001) %MON time_secondsf                =   2.8800000000000E+04
(PID.TID 0000.0001) %MON dynstat_eta_max              =   2.7349853000031E-05
(PID.TID 0000.0001) %MON dynstat_eta_min              =  -1.2115844996030E-05
(PID.TID 0000.0001) %MON dynstat_eta_mean             =   3.7266016496119E-21
(PID.TID 0000.0001) %MON dynstat_eta_sd               =   1.4217444297485E-05
(PID.TID 0000.0001) %MON dynstat_eta_del2             =   4.0769379749036E-08
(PID.TID 0000.0001) %MON dynstat_uvel_max             =   3.3161746544183E-05
(PID.TID 0000.0001) %MON dynstat_uvel_min             =  -2.1755318215107E-04
(PID.TID 0000.0001) %MON dynstat_uvel_mean            =  -2.4247540440213E-11
(PID.TID 0000.0001) %MON dynstat_uvel_sd              =   1.4218085943128E-05
(PID.TID 0000.0001) %MON dynstat_uvel_del2            =   3.0025475516737E-08
(PID.TID 0000.0001) %MON dynstat_vvel_max             =   7.9710036467667E-05
(PID.TID 0000.0001) %MON dynstat_vvel_min             =  -1.3449316645449E-05
(PID.TID 0000.0001) %MON dynstat_vvel_mean            =  -7.1256382128820E-08
(PID.TID 0000.0001) %MON dynstat_vvel_sd              =   4.2406122580395E-06
(PID.TID 0000.0001) %MON dynstat_vvel_del2            =   1.1845052348091E-08
(PID.TID 0000.0001) %MON dynstat_wvel_max             =   1.0347126538932E-06
(PID.TID 0000.0001) %MON dynstat_wvel_min             =  -9.7542228343974E-07
(PID.TID 0000.0001) %MON dynstat_wvel_mean            =  -4.5158716412566E-11
(PID.TID 0000.0001) %MON dynstat_wvel_sd              =   3.2384440906737E-08
(PID.TID 0000.0001) %MON dynstat_wvel_del2            =   1.6290060107247E-10
(PID.TID 0000.0001) %MON dynstat_theta_max            =  -1.9000000000000E+00
(PID.TID 0000.0001) %MON dynstat_theta_min            =  -1.9106216813670E+00
(PID.TID 0000.0001) %MON dynstat_theta_mean           =  -1.9000902661557E+00
(PID.TID 0000.0001) %MON dynstat_theta_sd             =   6.9524888446911E-04
(PID.TID 0000.0001) %MON dynstat_theta_del2           =   8.0569627515973E-07
(PID.TID 0000.0001) %MON dynstat_salt_max             =   3.4400000000000E+01
(PID.TID 0000.0001) %MON dynstat_salt_min             =   3.4395665646620E+01
(PID.TID 0000.0001) %MON dynstat_salt_mean            =   3.4399963345549E+01
(PID.TID 0000.0001) %MON dynstat_salt_sd              =   2.8298007982183E-04
(PID.TID 0000.0001) %MON dynstat_salt_del2            =   3.2758010829849E-07
(PID.TID 0000.0001) %MON advcfl_uvel_max              =   6.4731654557705E-05
(PID.TID 0000.0001) %MON advcfl_vvel_max              =   1.2905318075316E-05
(PID.TID 0000.0001) %MON advcfl_wvel_max              =   6.2082759233594E-05
(PID.TID 0000.0001) %MON advcfl_W_hf_max              =   6.9073268754382E-05
(PID.TID 0000.0001) %MON pe_b_mean                    =  -4.2013405513499E-08
(PID.TID 0000.0001) %MON ke_max                       =   2.5080344804579E-08
(PID.TID 0000.0001) %MON ke_mean                      =   1.0789073947434E-10
(PID.TID 0000.0001) %MON ke_vol                       =   3.4703745874272E+14
(PID.TID 0000.0001) %MON vort_r_min                   =  -1.3495651949854E-08
(PID.TID 0000.0001) %MON vort_r_max                   =   1.2881439376569E-08
(PID.TID 0000.0001) %MON vort_a_mean                  =  -1.3992981964323E-04
(PID.TID 0000.0001) %MON vort_a_sd                    =   1.7365053886592E-06
(PID.TID 0000.0001) %MON vort_p_mean                  =  -1.4746660587675E-04
(PID.TID 0000.0001) %MON vort_p_sd                    =   7.7971523969442E-05
(PID.TID 0000.0001) %MON surfExpan_theta_mean         =  -5.1099555733983E-13
(PID.TID 0000.0001) %MON surfExpan_salt_mean          =  -2.0702705827025E-13
(PID.TID 0000.0001) // =======================================================
(PID.TID 0000.0001) // End MONITOR dynamic field statistics
(PID.TID 0000.0001) // =======================================================
 cg2d: Sum(rhs),rhsMax =  -1.02140518265514E-14  1.01107025809721E-04
(PID.TID 0000.0001)      cg2d_init_res =   5.48865818665065E-01
(PID.TID 0000.0001)      cg2d_iters(min,last) =      -1     204
(PID.TID 0000.0001)      cg2d_last_res =   9.58592577188968E-14
(PID.TID 0000.0001) // =======================================================
(PID.TID 0000.0001) // Begin MONITOR dynamic field statistics
(PID.TID 0000.0001) // =======================================================
(PID.TID 0000.0001) %MON time_tsnumber                =                    17
(PID.TID 0000.0001) %MON time_secondsf                =   3.0600000000000E+04
(PID.TID 0000.0001) %MON dynstat_eta_max              =   2.8019550486280E-05
(PID.TID 0000.0001) %MON dynstat_eta_min              =  -1.2789942364674E-05
(PID.TID 0000.0001) %MON dynstat_eta_mean             =  -3.7266016496119E-21
(PID.TID 0000.0001) %MON dynstat_eta_sd               =   1.4659140956850E-05
(PID.TID 0000.0001) %MON dynstat_eta_del2             =   4.3252299640484E-08
(PID.TID 0000.0001) %MON dynstat_uvel_max             =   3.5479707429559E-05
(PID.TID 0000.0001) %MON dynstat_uvel_min             =  -2.3245391651808E-04
(PID.TID 0000.0001) %MON dynstat_uvel_mean            =   4.4221211964051E-09
(PID.TID 0000.0001) %MON dynstat_uvel_sd              =   1.5194313918509E-05
(PID.TID 0000.0001) %MON dynstat_uvel_del2            =   3.2189485565081E-08
(PID.TID 0000.0001) %MON dynstat_vvel_max             =   7.3319660190967E-05
(PID.TID 0000.0001) %MON dynstat_vvel_min             =  -1.2766989412578E-05
(PID.TID 0000.0001) %MON dynstat_vvel_mean            =  -7.0698321022752E-08
(PID.TID 0000.0001) %MON dynstat_vvel_sd              =   3.7801991357555E-06
(PID.TID 0000.0001) %MON dynstat_vvel_del2            =   1.0953819957742E-08
(PID.TID 0000.0001) %MON dynstat_wvel_max             =   1.0985158744239E-06
(PID.TID 0000.0001) %MON dynstat_wvel_min             =  -1.0438492629335E-06
(PID.TID 0000.0001) %MON dynstat_wvel_mean            =  -4.5531143113743E-11
(PID.TID 0000.0001) %MON dynstat_wvel_sd              =   3.3920429655515E-08
(PID.TID 0000.0001) %MON dynstat_wvel_del2            =   1.5981011871083E-10
(PID.TID 0000.0001) %MON dynstat_theta_max            =  -1.9000000000000E+00
(PID.TID 0000.0001) %MON dynstat_theta_min            =  -1.9112778205307E+00
(PID.TID 0000.0001) %MON dynstat_theta_mean           =  -1.9000958532641E+00
(PID.TID 0000.0001) %MON dynstat_theta_sd             =   7.3813475613026E-04
(PID.TID 0000.0001) %MON dynstat_theta_del2           =   8.5432902150180E-07
(PID.TID 0000.0001) %MON dynstat_salt_max             =   3.4400000000000E+01
(PID.TID 0000.0001) %MON dynstat_salt_min             =   3.4395397913388E+01
(PID.TID 0000.0001) %MON dynstat_salt_mean            =   3.4399961077001E+01
(PID.TID 0000.0001) %MON dynstat_salt_sd              =   3.0043403422074E-04
(PID.TID 0000.0001) %MON dynstat_salt_del2            =   3.4735088705527E-07
(PID.TID 0000.0001) %MON advcfl_uvel_max              =   6.9165279385273E-05
(PID.TID 0000.0001) %MON advcfl_vvel_max              =   1.1870695057608E-05
(PID.TID 0000.0001) %MON advcfl_wvel_max              =   6.5910952465431E-05
(PID.TID 0000.0001) %MON advcfl_W_hf_max              =   7.2669037840744E-05
(PID.TID 0000.0001) %MON pe_b_mean                    =  -4.3281941431257E-08
(PID.TID 0000.0001) %MON ke_max                       =   2.8140597246745E-08
(PID.TID 0000.0001) %MON ke_mean                      =   1.2013198152604E-10
(PID.TID 0000.0001) %MON ke_vol                       =   3.4703745874272E+14
(PID.TID 0000.0001) %MON vort_r_min                   =  -1.2413701697655E-08
(PID.TID 0000.0001) %MON vort_r_max                   =   1.1805943465867E-08
(PID.TID 0000.0001) %MON vort_a_mean                  =  -1.3992981965548E-04
(PID.TID 0000.0001) %MON vort_a_sd                    =   1.7365052497733E-06
(PID.TID 0000.0001) %MON vort_p_mean                  =  -1.4746660588966E-04
(PID.TID 0000.0001) %MON vort_p_sd                    =   7.7971378354221E-05
(PID.TID 0000.0001) %MON surfExpan_theta_mean         =  -5.4789979223724E-13
(PID.TID 0000.0001) %MON surfExpan_salt_mean          =  -2.2204025494333E-13
(PID.TID 0000.0001) // =======================================================
(PID.TID 0000.0001) // End MONITOR dynamic field statistics
(PID.TID 0000.0001) // =======================================================
 cg2d: Sum(rhs),rhsMax =   6.43929354282591E-14  1.07172981720535E-04
(PID.TID 0000.0001)      cg2d_init_res =   5.14674319713608E-01
(PID.TID 0000.0001)      cg2d_iters(min,last) =      -1     204
(PID.TID 0000.0001)      cg2d_last_res =   8.62345148630878E-14
(PID.TID 0000.0001) // =======================================================
(PID.TID 0000.0001) // Begin MONITOR dynamic field statistics
(PID.TID 0000.0001) // =======================================================
(PID.TID 0000.0001) %MON time_tsnumber                =                    18
(PID.TID 0000.0001) %MON time_secondsf                =   3.2400000000000E+04
(PID.TID 0000.0001) %MON dynstat_eta_max              =   2.8651350519808E-05
(PID.TID 0000.0001) %MON dynstat_eta_min              =  -1.3384229644366E-05
(PID.TID 0000.0001) %MON dynstat_eta_mean             =   0.0000000000000E+00
(PID.TID 0000.0001) %MON dynstat_eta_sd               =   1.5136676922617E-05
(PID.TID 0000.0001) %MON dynstat_eta_del2             =   4.5720140571905E-08
(PID.TID 0000.0001) %MON dynstat_uvel_max             =   3.7475064301907E-05
(PID.TID 0000.0001) %MON dynstat_uvel_min             =  -2.4536412233385E-04
(PID.TID 0000.0001) %MON dynstat_uvel_mean            =   8.5067875911705E-09
(PID.TID 0000.0001) %MON dynstat_uvel_sd              =   1.6033595598902E-05
(PID.TID 0000.0001) %MON dynstat_uvel_del2            =   3.4118203978560E-08
(PID.TID 0000.0001) %MON dynstat_vvel_max             =   6.6554389511187E-05
(PID.TID 0000.0001) %MON dynstat_vvel_min             =  -1.1999945027582E-05
(PID.TID 0000.0001) %MON dynstat_vvel_mean            =  -8.0169967548423E-08
(PID.TID 0000.0001) %MON dynstat_vvel_sd              =   3.2968873761001E-06
(PID.TID 0000.0001) %MON dynstat_vvel_del2            =   1.0012804049353E-08
(PID.TID 0000.0001) %MON dynstat_wvel_max             =   1.1568743176682E-06
(PID.TID 0000.0001) %MON dynstat_wvel_min             =  -1.1087195198073E-06
(PID.TID 0000.0001) %MON dynstat_wvel_mean            =  -5.2215099979785E-11
(PID.TID 0000.0001) %MON dynstat_wvel_sd              =   3.5288215679298E-08
(PID.TID 0000.0001) %MON dynstat_wvel_del2            =   1.5697515836290E-10
(PID.TID 0000.0001) %MON dynstat_theta_max            =  -1.9000000000000E+00
(PID.TID 0000.0001) %MON dynstat_theta_min            =  -1.9119330699999E+00
(PID.TID 0000.0001) %MON dynstat_theta_mean           =  -1.9001014340525E+00
(PID.TID 0000.0001) %MON dynstat_theta_sd             =   7.8095503907500E-04
(PID.TID 0000.0001) %MON dynstat_theta_del2           =   9.0276610403891E-07
(PID.TID 0000.0001) %MON dynstat_salt_max             =   3.4400000000000E+01
(PID.TID 0000.0001) %MON dynstat_salt_min             =   3.4395130544956E+01
(PID.TID 0000.0001) %MON dynstat_salt_mean            =   3.4399958811045E+01
(PID.TID 0000.0001) %MON dynstat_salt_sd              =   3.1786112646407E-04
(PID.TID 0000.0001) %MON dynstat_salt_del2            =   3.6704184417204E-07
(PID.TID 0000.0001) %MON advcfl_uvel_max              =   7.3006634289268E-05
(PID.TID 0000.0001) %MON advcfl_vvel_max              =   1.0775375398288E-05
(PID.TID 0000.0001) %MON advcfl_wvel_max              =   6.9412459060092E-05
(PID.TID 0000.0001) %MON advcfl_W_hf_max              =   7.5757676488501E-05
(PID.TID 0000.0001) %MON pe_b_mean                    =  -4.4658436006348E-08
(PID.TID 0000.0001) %MON ke_max                       =   3.0954452213291E-08
(PID.TID 0000.0001) %MON ke_mean                      =   1.3128188511203E-10
(PID.TID 0000.0001) %MON ke_vol                       =   3.4703745874272E+14
(PID.TID 0000.0001) %MON vort_r_min                   =  -1.1268278329572E-08
(PID.TID 0000.0001) %MON vort_r_max                   =   1.1869766422354E-08
(PID.TID 0000.0001) %MON vort_a_mean                  =  -1.3992981966491E-04
(PID.TID 0000.0001) %MON vort_a_sd                    =   1.7365051383108E-06
(PID.TID 0000.0001) %MON vort_p_mean                  =  -1.4746660589960E-04
(PID.TID 0000.0001) %MON vort_p_sd                    =   7.7971252853473E-05
(PID.TID 0000.0001) %MON surfExpan_theta_mean         =  -6.6809439081900E-13
(PID.TID 0000.0001) %MON surfExpan_salt_mean          =  -2.7098344118185E-13
(PID.TID 0000.0001) // =======================================================
(PID.TID 0000.0001) // End MONITOR dynamic field statistics
(PID.TID 0000.0001) // =======================================================
 cg2d: Sum(rhs),rhsMax =  -6.66133814775094E-15  1.13146443357587E-04
(PID.TID 0000.0001)      cg2d_init_res =   4.84558798680323E-01
(PID.TID 0000.0001)      cg2d_iters(min,last) =      -1     203
(PID.TID 0000.0001)      cg2d_last_res =   9.06342840891170E-14
(PID.TID 0000.0001) // =======================================================
(PID.TID 0000.0001) // Begin MONITOR dynamic field statistics
(PID.TID 0000.0001) // =======================================================
(PID.TID 0000.0001) %MON time_tsnumber                =                    19
(PID.TID 0000.0001) %MON time_secondsf                =   3.4200000000000E+04
(PID.TID 0000.0001) %MON dynstat_eta_max              =   2.9322702567139E-05
(PID.TID 0000.0001) %MON dynstat_eta_min              =  -1.3914081393467E-05
(PID.TID 0000.0001) %MON dynstat_eta_mean             =  -1.3309291605757E-21
(PID.TID 0000.0001) %MON dynstat_eta_sd               =   1.5679165471073E-05
(PID.TID 0000.0001) %MON dynstat_eta_del2             =   4.8173302010704E-08
(PID.TID 0000.0001) %MON dynstat_uvel_max             =   3.9151710189799E-05
(PID.TID 0000.0001) %MON dynstat_uvel_min             =  -2.5634118327831E-04
(PID.TID 0000.0001) %MON dynstat_uvel_mean            =   1.1887509164837E-08
(PID.TID 0000.0001) %MON dynstat_uvel_sd              =   1.6738589483155E-05
(PID.TID 0000.0001) %MON dynstat_uvel_del2            =   3.5818198982310E-08
(PID.TID 0000.0001) %MON dynstat_vvel_max             =   6.0116567770501E-05
(PID.TID 0000.0001) %MON dynstat_vvel_min             =  -1.1211711126029E-05
(PID.TID 0000.0001) %MON dynstat_vvel_mean            =  -9.7332175690183E-08
(PID.TID 0000.0001) %MON dynstat_vvel_sd              =   2.8256325803854E-06
(PID.TID 0000.0001) %MON dynstat_vvel_del2            =   9.0905883208478E-09
(PID.TID 0000.0001) %MON dynstat_wvel_max             =   1.2106219919835E-06
(PID.TID 0000.0001) %MON dynstat_wvel_min             =  -1.1659481737071E-06
(PID.TID 0000.0001) %MON dynstat_wvel_mean            =  -6.3697962426268E-11
(PID.TID 0000.0001) %MON dynstat_wvel_sd              =   3.6499547010384E-08
(PID.TID 0000.0001) %MON dynstat_wvel_del2            =   1.5492163401852E-10
(PID.TID 0000.0001) %MON dynstat_theta_max            =  -1.9000000000000E+00
(PID.TID 0000.0001) %MON dynstat_theta_min            =  -1.9125874315263E+00
(PID.TID 0000.0001) %MON dynstat_theta_mean           =  -1.9001070085316E+00
(PID.TID 0000.0001) %MON dynstat_theta_sd             =   8.2370987015872E-04
(PID.TID 0000.0001) %MON dynstat_theta_del2           =   9.5100846102863E-07
(PID.TID 0000.0001) %MON dynstat_salt_max             =   3.4400000000000E+01
(PID.TID 0000.0001) %MON dynstat_salt_min             =   3.4394863540603E+01
(PID.TID 0000.0001) %MON dynstat_salt_mean            =   3.4399956547676E+01
(PID.TID 0000.0001) %MON dynstat_salt_sd              =   3.3526141275362E-04
(PID.TID 0000.0001) %MON dynstat_salt_del2            =   3.8665336270947E-07
(PID.TID 0000.0001) %MON advcfl_uvel_max              =   7.6272793442121E-05
(PID.TID 0000.0001) %MON advcfl_vvel_max              =   9.7330708033147E-06
(PID.TID 0000.0001) %MON advcfl_wvel_max              =   7.2637319519012E-05
(PID.TID 0000.0001) %MON advcfl_W_hf_max              =   7.8412476480061E-05
(PID.TID 0000.0001) %MON pe_b_mean                    =  -4.6234785107847E-08
(PID.TID 0000.0001) %MON ke_max                       =   3.3479859789341E-08
(PID.TID 0000.0001) %MON ke_mean                      =   1.4117595859796E-10
(PID.TID 0000.0001) %MON ke_vol                       =   3.4703745874272E+14
(PID.TID 0000.0001) %MON vort_r_min                   =  -1.0146272585076E-08
(PID.TID 0000.0001) %MON vort_r_max                   =   1.2405783571379E-08
(PID.TID 0000.0001) %MON vort_a_mean                  =  -1.3992981967028E-04
(PID.TID 0000.0001) %MON vort_a_sd                    =   1.7365050593809E-06
(PID.TID 0000.0001) %MON vort_p_mean                  =  -1.4746660590525E-04
(PID.TID 0000.0001) %MON vort_p_sd                    =   7.7971147176344E-05
(PID.TID 0000.0001) %MON surfExpan_theta_mean         =  -8.6421893315343E-13
(PID.TID 0000.0001) %MON surfExpan_salt_mean          =  -3.5085502683249E-13
(PID.TID 0000.0001) // =======================================================
(PID.TID 0000.0001) // End MONITOR dynamic field statistics
(PID.TID 0000.0001) // =======================================================
 cg2d: Sum(rhs),rhsMax =  -1.11022302462516E-14  1.19029287822730E-04
(PID.TID 0000.0001)      cg2d_init_res =   4.57837415238202E-01
(PID.TID 0000.0001)      cg2d_iters(min,last) =      -1     202
(PID.TID 0000.0001)      cg2d_last_res =   8.98277012407825E-14
(PID.TID 0000.0001) // =======================================================
(PID.TID 0000.0001) // Begin MONITOR dynamic field statistics
(PID.TID 0000.0001) // =======================================================
(PID.TID 0000.0001) %MON time_tsnumber                =                    20
(PID.TID 0000.0001) %MON time_secondsf                =   3.6000000000000E+04
(PID.TID 0000.0001) %MON dynstat_eta_max              =   3.0097840822133E-05
(PID.TID 0000.0001) %MON dynstat_eta_min              =  -1.4398114493357E-05
(PID.TID 0000.0001) %MON dynstat_eta_mean             =   3.1942299853816E-21
(PID.TID 0000.0001) %MON dynstat_eta_sd               =   1.6305482277810E-05
(PID.TID 0000.0001) %MON dynstat_eta_del2             =   5.0612154128657E-08
(PID.TID 0000.0001) %MON dynstat_uvel_max             =   4.0533681008622E-05
(PID.TID 0000.0001) %MON dynstat_uvel_min             =  -2.6556629278944E-04
(PID.TID 0000.0001) %MON dynstat_uvel_mean            =   1.4335781002730E-08
(PID.TID 0000.0001) %MON dynstat_uvel_sd              =   1.7320570748046E-05
(PID.TID 0000.0001) %MON dynstat_uvel_del2            =   3.7310334624037E-08
(PID.TID 0000.0001) %MON dynstat_vvel_max             =   5.4551280772470E-05
(PID.TID 0000.0001) %MON dynstat_vvel_min             =  -1.0461880156499E-05
(PID.TID 0000.0001) %MON dynstat_vvel_mean            =  -1.1945638702561E-07
(PID.TID 0000.0001) %MON dynstat_vvel_sd              =   2.3990394060725E-06
(PID.TID 0000.0001) %MON dynstat_vvel_del2            =   8.2484636783922E-09
(PID.TID 0000.0001) %MON dynstat_wvel_max             =   1.2575877026440E-06
(PID.TID 0000.0001) %MON dynstat_wvel_min             =  -1.2161058863487E-06
(PID.TID 0000.0001) %MON dynstat_wvel_mean            =  -7.8232442734295E-11
(PID.TID 0000.0001) %MON dynstat_wvel_sd              =   3.7572609860486E-08
(PID.TID 0000.0001) %MON dynstat_wvel_del2            =   1.5397424191777E-10
(PID.TID 0000.0001) %MON dynstat_theta_max            =  -1.9000000000000E+00
(PID.TID 0000.0001) %MON dynstat_theta_min            =  -1.9132409066710E+00
(PID.TID 0000.0001) %MON dynstat_theta_mean           =  -1.9001125767122E+00
(PID.TID 0000.0001) %MON dynstat_theta_sd             =   8.6639938601712E-04
(PID.TID 0000.0001) %MON dynstat_theta_del2           =   9.9905703494856E-07
(PID.TID 0000.0001) %MON dynstat_salt_max             =   3.4400000000000E+01
(PID.TID 0000.0001) %MON dynstat_salt_min             =   3.4394596899685E+01
(PID.TID 0000.0001) %MON dynstat_salt_mean            =   3.4399954286889E+01
(PID.TID 0000.0001) %MON dynstat_salt_sd              =   3.5263494920022E-04
(PID.TID 0000.0001) %MON dynstat_salt_del2            =   4.0618582751659E-07
(PID.TID 0000.0001) %MON advcfl_uvel_max              =   7.9017669872920E-05
(PID.TID 0000.0001) %MON advcfl_vvel_max              =   8.8320324639439E-06
(PID.TID 0000.0001) %MON advcfl_wvel_max              =   7.5455262158639E-05
(PID.TID 0000.0001) %MON advcfl_W_hf_max              =   8.0730013789599E-05
(PID.TID 0000.0001) %MON pe_b_mean                    =  -4.8070760475890E-08
(PID.TID 0000.0001) %MON ke_max                       =   3.5709922712300E-08
(PID.TID 0000.0001) %MON ke_mean                      =   1.4978713292864E-10
(PID.TID 0000.0001) %MON ke_vol                       =   3.4703745874272E+14
(PID.TID 0000.0001) %MON vort_r_min                   =  -9.1275267169615E-09
(PID.TID 0000.0001) %MON vort_r_max                   =   1.2983793517123E-08
(PID.TID 0000.0001) %MON vort_a_mean                  =  -1.3992981967076E-04
(PID.TID 0000.0001) %MON vort_a_sd                    =   1.7365050150615E-06
(PID.TID 0000.0001) %MON vort_p_mean                  =  -1.4746660590577E-04
(PID.TID 0000.0001) %MON vort_p_sd                    =   7.7971059786963E-05
(PID.TID 0000.0001) %MON surfExpan_theta_mean         =  -1.1211167535222E-12
(PID.TID 0000.0001) %MON surfExpan_salt_mean          =  -4.5547789047065E-13
(PID.TID 0000.0001) // =======================================================
(PID.TID 0000.0001) // End MONITOR dynamic field statistics
(PID.TID 0000.0001) // =======================================================
 Computing Diagnostic #    192  SHIfwFlx     Counter:      10   Parms: SM      L1      
 Computing Diagnostic #    193  SHIhtFlx     Counter:      10   Parms: SM      L1      
 Computing Diagnostic #    201  ICFfwFlx     Counter:      10   Parms: SM      MR      
 Computing Diagnostic #    202  ICFhtFlx     Counter:      10   Parms: SM      MR      
(PID.TID 0000.0001) %CHECKPOINT        20 ckptA
(PID.TID 0000.0001)   Seconds in section "ALL                    [THE_MODEL_MAIN]":
(PID.TID 0000.0001)           User time:   47.310000000000002
(PID.TID 0000.0001)         System time:  8.99999999999999967E-002
(PID.TID 0000.0001)     Wall clock time:   47.539579868316650
(PID.TID 0000.0001)          No. starts:           1
(PID.TID 0000.0001)           No. stops:           1
(PID.TID 0000.0001)   Seconds in section "INITIALISE_FIXED       [THE_MODEL_MAIN]":
(PID.TID 0000.0001)           User time:  0.28999999999999998
(PID.TID 0000.0001)         System time:  2.00000000000000004E-002
(PID.TID 0000.0001)     Wall clock time:  0.34713196754455566
(PID.TID 0000.0001)          No. starts:           1
(PID.TID 0000.0001)           No. stops:           1
(PID.TID 0000.0001)   Seconds in section "THE_MAIN_LOOP          [THE_MODEL_MAIN]":
(PID.TID 0000.0001)           User time:   47.020000000000003
(PID.TID 0000.0001)         System time:  6.99999999999999928E-002
(PID.TID 0000.0001)     Wall clock time:   47.192414999008179
(PID.TID 0000.0001)          No. starts:           1
(PID.TID 0000.0001)           No. stops:           1
(PID.TID 0000.0001)   Seconds in section "INITIALISE_VARIA    [THE_MAIN_LOOP]":
(PID.TID 0000.0001)           User time:  0.59000000000000008
(PID.TID 0000.0001)         System time:  3.99999999999999939E-002
(PID.TID 0000.0001)     Wall clock time:  0.62817907333374023
(PID.TID 0000.0001)          No. starts:           1
(PID.TID 0000.0001)           No. stops:           1
(PID.TID 0000.0001)   Seconds in section "MAIN LOOP           [THE_MAIN_LOOP]":
(PID.TID 0000.0001)           User time:   46.430000000000000
(PID.TID 0000.0001)         System time:  2.99999999999999989E-002
(PID.TID 0000.0001)     Wall clock time:   46.564196109771729
(PID.TID 0000.0001)          No. starts:           1
(PID.TID 0000.0001)           No. stops:           1
(PID.TID 0000.0001)   Seconds in section "MAIN_DO_LOOP        [THE_MAIN_LOOP]":
(PID.TID 0000.0001)           User time:   46.430000000000000
(PID.TID 0000.0001)         System time:  2.99999999999999989E-002
(PID.TID 0000.0001)     Wall clock time:   46.564002275466919
(PID.TID 0000.0001)          No. starts:          20
(PID.TID 0000.0001)           No. stops:          20
(PID.TID 0000.0001)   Seconds in section "FORWARD_STEP        [MAIN_DO_LOOP]":
(PID.TID 0000.0001)           User time:   46.430000000000000
(PID.TID 0000.0001)         System time:  2.99999999999999989E-002
(PID.TID 0000.0001)     Wall clock time:   46.563624382019043
(PID.TID 0000.0001)          No. starts:          20
(PID.TID 0000.0001)           No. stops:          20
(PID.TID 0000.0001)   Seconds in section "DO_STATEVARS_DIAGS  [FORWARD_STEP]":
(PID.TID 0000.0001)           User time:  9.99999999999801048E-003
(PID.TID 0000.0001)         System time:   0.0000000000000000
(PID.TID 0000.0001)     Wall clock time:  1.53787136077880859E-002
(PID.TID 0000.0001)          No. starts:          40
(PID.TID 0000.0001)           No. stops:          40
(PID.TID 0000.0001)   Seconds in section "LOAD_FIELDS_DRIVER  [FORWARD_STEP]":
(PID.TID 0000.0001)           User time:   0.0000000000000000
(PID.TID 0000.0001)         System time:   0.0000000000000000
(PID.TID 0000.0001)     Wall clock time:  5.78165054321289063E-004
(PID.TID 0000.0001)          No. starts:          20
(PID.TID 0000.0001)           No. stops:          20
(PID.TID 0000.0001)   Seconds in section "EXTERNAL_FLDS_LOAD [LOAD_FLDS_DRIVER]":
(PID.TID 0000.0001)           User time:   0.0000000000000000
(PID.TID 0000.0001)         System time:   0.0000000000000000
(PID.TID 0000.0001)     Wall clock time:  1.96456909179687500E-004
(PID.TID 0000.0001)          No. starts:          20
(PID.TID 0000.0001)           No. stops:          20
(PID.TID 0000.0001)   Seconds in section "DO_ATMOSPHERIC_PHYS [FORWARD_STEP]":
(PID.TID 0000.0001)           User time:   0.0000000000000000
(PID.TID 0000.0001)         System time:   0.0000000000000000
(PID.TID 0000.0001)     Wall clock time:  1.91450119018554688E-004
(PID.TID 0000.0001)          No. starts:          20
(PID.TID 0000.0001)           No. stops:          20
(PID.TID 0000.0001)   Seconds in section "DO_OCEANIC_PHYS     [FORWARD_STEP]":
(PID.TID 0000.0001)           User time:   1.0499999999999901
(PID.TID 0000.0001)         System time:   0.0000000000000000
(PID.TID 0000.0001)     Wall clock time:   1.0531463623046875
(PID.TID 0000.0001)          No. starts:          20
(PID.TID 0000.0001)           No. stops:          20
(PID.TID 0000.0001)   Seconds in section "SHELFICE_THERMODYNAMICS [DO_OCEANIC_PHYS]":
(PID.TID 0000.0001)           User time:  7.00000000000073896E-002
(PID.TID 0000.0001)         System time:   0.0000000000000000
(PID.TID 0000.0001)     Wall clock time:  9.08346176147460938E-002
(PID.TID 0000.0001)          No. starts:          20
(PID.TID 0000.0001)           No. stops:          20
(PID.TID 0000.0001)   Seconds in section "ICEFRONT_THERMODYNAMICS [DO_OCEANIC_PHYS]":
(PID.TID 0000.0001)           User time:  0.23999999999999488
(PID.TID 0000.0001)         System time:   0.0000000000000000
(PID.TID 0000.0001)     Wall clock time:  0.22661066055297852
(PID.TID 0000.0001)          No. starts:          20
(PID.TID 0000.0001)           No. stops:          20
(PID.TID 0000.0001)   Seconds in section "THERMODYNAMICS      [FORWARD_STEP]":
(PID.TID 0000.0001)           User time:   8.6000000000000014
(PID.TID 0000.0001)         System time:   0.0000000000000000
(PID.TID 0000.0001)     Wall clock time:   8.6144752502441406
(PID.TID 0000.0001)          No. starts:          20
(PID.TID 0000.0001)           No. stops:          20
(PID.TID 0000.0001)   Seconds in section "DYNAMICS            [FORWARD_STEP]":
(PID.TID 0000.0001)           User time:   17.349999999999994
(PID.TID 0000.0001)         System time:   0.0000000000000000
(PID.TID 0000.0001)     Wall clock time:   17.400895357131958
(PID.TID 0000.0001)          No. starts:          20
(PID.TID 0000.0001)           No. stops:          20
(PID.TID 0000.0001)   Seconds in section "UPDATE_SURF_DR      [FORWARD_STEP]":
(PID.TID 0000.0001)           User time:  0.26000000000000512
(PID.TID 0000.0001)         System time:   0.0000000000000000
(PID.TID 0000.0001)     Wall clock time:  0.25597667694091797
(PID.TID 0000.0001)          No. starts:          20
(PID.TID 0000.0001)           No. stops:          20
(PID.TID 0000.0001)   Seconds in section "SOLVE_FOR_PRESSURE  [FORWARD_STEP]":
(PID.TID 0000.0001)           User time:   9.3500000000000014
(PID.TID 0000.0001)         System time:   0.0000000000000000
(PID.TID 0000.0001)     Wall clock time:   9.3677146434783936
(PID.TID 0000.0001)          No. starts:          20
(PID.TID 0000.0001)           No. stops:          20
(PID.TID 0000.0001)   Seconds in section "MOM_CORRECTION_STEP [FORWARD_STEP]":
(PID.TID 0000.0001)           User time:  0.75000000000000711
(PID.TID 0000.0001)         System time:   0.0000000000000000
(PID.TID 0000.0001)     Wall clock time:  0.75611972808837891
(PID.TID 0000.0001)          No. starts:          20
(PID.TID 0000.0001)           No. stops:          20
(PID.TID 0000.0001)   Seconds in section "INTEGR_CONTINUITY   [FORWARD_STEP]":
(PID.TID 0000.0001)           User time:   1.0499999999999972
(PID.TID 0000.0001)         System time:   0.0000000000000000
(PID.TID 0000.0001)     Wall clock time:   1.0406992435455322
(PID.TID 0000.0001)          No. starts:          20
(PID.TID 0000.0001)           No. stops:          20
(PID.TID 0000.0001)   Seconds in section "TRC_CORRECTION_STEP [FORWARD_STEP]":
(PID.TID 0000.0001)           User time:   2.0799999999999983
(PID.TID 0000.0001)         System time:   0.0000000000000000
(PID.TID 0000.0001)     Wall clock time:   2.0916185379028320
(PID.TID 0000.0001)          No. starts:          20
(PID.TID 0000.0001)           No. stops:          20
(PID.TID 0000.0001)   Seconds in section "BLOCKING_EXCHANGES  [FORWARD_STEP]":
(PID.TID 0000.0001)           User time:  0.50999999999999091
(PID.TID 0000.0001)         System time:   0.0000000000000000
(PID.TID 0000.0001)     Wall clock time:  0.50890207290649414
(PID.TID 0000.0001)          No. starts:          20
(PID.TID 0000.0001)           No. stops:          20
(PID.TID 0000.0001)   Seconds in section "DO_STATEVARS_TAVE   [FORWARD_STEP]":
(PID.TID 0000.0001)           User time:   0.0000000000000000
(PID.TID 0000.0001)         System time:   0.0000000000000000
(PID.TID 0000.0001)     Wall clock time:  1.99317932128906250E-004
(PID.TID 0000.0001)          No. starts:          20
(PID.TID 0000.0001)           No. stops:          20
(PID.TID 0000.0001)   Seconds in section "MONITOR             [FORWARD_STEP]":
(PID.TID 0000.0001)           User time:   5.1600000000000037
(PID.TID 0000.0001)         System time:   0.0000000000000000
(PID.TID 0000.0001)     Wall clock time:   5.1714529991149902
(PID.TID 0000.0001)          No. starts:          20
(PID.TID 0000.0001)           No. stops:          20
(PID.TID 0000.0001)   Seconds in section "DO_THE_MODEL_IO     [FORWARD_STEP]":
(PID.TID 0000.0001)           User time:  0.12999999999999545
(PID.TID 0000.0001)         System time:  1.00000000000000089E-002
(PID.TID 0000.0001)     Wall clock time:  0.14298391342163086
(PID.TID 0000.0001)          No. starts:          20
(PID.TID 0000.0001)           No. stops:          20
(PID.TID 0000.0001)   Seconds in section "DO_WRITE_PICKUP     [FORWARD_STEP]":
(PID.TID 0000.0001)           User time:  0.12000000000000455
(PID.TID 0000.0001)         System time:  1.99999999999999900E-002
(PID.TID 0000.0001)     Wall clock time:  0.13956093788146973
(PID.TID 0000.0001)          No. starts:          20
(PID.TID 0000.0001)           No. stops:          20
(PID.TID 0000.0001) // ======================================================
(PID.TID 0000.0001) // Tile <-> Tile communication statistics
(PID.TID 0000.0001) // ======================================================
(PID.TID 0000.0001) // o Tile number: 000001
(PID.TID 0000.0001) //         No. X exchanges =              0
(PID.TID 0000.0001) //            Max. X spins =              0
(PID.TID 0000.0001) //            Min. X spins =     1000000000
(PID.TID 0000.0001) //          Total. X spins =              0
(PID.TID 0000.0001) //            Avg. X spins =       0.00E+00
(PID.TID 0000.0001) //         No. Y exchanges =              0
(PID.TID 0000.0001) //            Max. Y spins =              0
(PID.TID 0000.0001) //            Min. Y spins =     1000000000
(PID.TID 0000.0001) //          Total. Y spins =              0
(PID.TID 0000.0001) //            Avg. Y spins =       0.00E+00
(PID.TID 0000.0001) // o Tile number: 000002
(PID.TID 0000.0001) //         No. X exchanges =              0
(PID.TID 0000.0001) //            Max. X spins =              0
(PID.TID 0000.0001) //            Min. X spins =     1000000000
(PID.TID 0000.0001) //          Total. X spins =              0
(PID.TID 0000.0001) //            Avg. X spins =       0.00E+00
(PID.TID 0000.0001) //         No. Y exchanges =              0
(PID.TID 0000.0001) //            Max. Y spins =              0
(PID.TID 0000.0001) //            Min. Y spins =     1000000000
(PID.TID 0000.0001) //          Total. Y spins =              0
(PID.TID 0000.0001) //            Avg. Y spins =       0.00E+00
(PID.TID 0000.0001) // o Tile number: 000003
(PID.TID 0000.0001) //         No. X exchanges =              0
(PID.TID 0000.0001) //            Max. X spins =              0
(PID.TID 0000.0001) //            Min. X spins =     1000000000
(PID.TID 0000.0001) //          Total. X spins =              0
(PID.TID 0000.0001) //            Avg. X spins =       0.00E+00
(PID.TID 0000.0001) //         No. Y exchanges =              0
(PID.TID 0000.0001) //            Max. Y spins =              0
(PID.TID 0000.0001) //            Min. Y spins =     1000000000
(PID.TID 0000.0001) //          Total. Y spins =              0
(PID.TID 0000.0001) //            Avg. Y spins =       0.00E+00
(PID.TID 0000.0001) // o Tile number: 000004
(PID.TID 0000.0001) //         No. X exchanges =              0
(PID.TID 0000.0001) //            Max. X spins =              0
(PID.TID 0000.0001) //            Min. X spins =     1000000000
(PID.TID 0000.0001) //          Total. X spins =              0
(PID.TID 0000.0001) //            Avg. X spins =       0.00E+00
(PID.TID 0000.0001) //         No. Y exchanges =              0
(PID.TID 0000.0001) //            Max. Y spins =              0
(PID.TID 0000.0001) //            Min. Y spins =     1000000000
(PID.TID 0000.0001) //          Total. Y spins =              0
(PID.TID 0000.0001) //            Avg. Y spins =       0.00E+00
(PID.TID 0000.0001) // o Tile number: 000005
(PID.TID 0000.0001) //         No. X exchanges =              0
(PID.TID 0000.0001) //            Max. X spins =              0
(PID.TID 0000.0001) //            Min. X spins =     1000000000
(PID.TID 0000.0001) //          Total. X spins =              0
(PID.TID 0000.0001) //            Avg. X spins =       0.00E+00
(PID.TID 0000.0001) //         No. Y exchanges =              0
(PID.TID 0000.0001) //            Max. Y spins =              0
(PID.TID 0000.0001) //            Min. Y spins =     1000000000
(PID.TID 0000.0001) //          Total. Y spins =              0
(PID.TID 0000.0001) //            Avg. Y spins =       0.00E+00
(PID.TID 0000.0001) // o Tile number: 000006
(PID.TID 0000.0001) //         No. X exchanges =              0
(PID.TID 0000.0001) //            Max. X spins =              0
(PID.TID 0000.0001) //            Min. X spins =     1000000000
(PID.TID 0000.0001) //          Total. X spins =              0
(PID.TID 0000.0001) //            Avg. X spins =       0.00E+00
(PID.TID 0000.0001) //         No. Y exchanges =              0
(PID.TID 0000.0001) //            Max. Y spins =              0
(PID.TID 0000.0001) //            Min. Y spins =     1000000000
(PID.TID 0000.0001) //          Total. Y spins =              0
(PID.TID 0000.0001) //            Avg. Y spins =       0.00E+00
(PID.TID 0000.0001) // o Tile number: 000007
(PID.TID 0000.0001) //         No. X exchanges =              0
(PID.TID 0000.0001) //            Max. X spins =              0
(PID.TID 0000.0001) //            Min. X spins =     1000000000
(PID.TID 0000.0001) //          Total. X spins =              0
(PID.TID 0000.0001) //            Avg. X spins =       0.00E+00
(PID.TID 0000.0001) //         No. Y exchanges =              0
(PID.TID 0000.0001) //            Max. Y spins =              0
(PID.TID 0000.0001) //            Min. Y spins =     1000000000
(PID.TID 0000.0001) //          Total. Y spins =              0
(PID.TID 0000.0001) //            Avg. Y spins =       0.00E+00
(PID.TID 0000.0001) // o Tile number: 000008
(PID.TID 0000.0001) //         No. X exchanges =              0
(PID.TID 0000.0001) //            Max. X spins =              0
(PID.TID 0000.0001) //            Min. X spins =     1000000000
(PID.TID 0000.0001) //          Total. X spins =              0
(PID.TID 0000.0001) //            Avg. X spins =       0.00E+00
(PID.TID 0000.0001) //         No. Y exchanges =              0
(PID.TID 0000.0001) //            Max. Y spins =              0
(PID.TID 0000.0001) //            Min. Y spins =     1000000000
(PID.TID 0000.0001) //          Total. Y spins =              0
(PID.TID 0000.0001) //            Avg. Y spins =       0.00E+00
(PID.TID 0000.0001) // o Thread number: 000001
(PID.TID 0000.0001) //            No. barriers =          28138
(PID.TID 0000.0001) //      Max. barrier spins =              1
(PID.TID 0000.0001) //      Min. barrier spins =              1
(PID.TID 0000.0001) //     Total barrier spins =          28138
(PID.TID 0000.0001) //      Avg. barrier spins =       1.00E+00
PROGRAM MAIN: Execution ended Normally
