(PID.TID 0000.0001) 
(PID.TID 0000.0001) // ======================================================
(PID.TID 0000.0001) //                      MITgcm UV
(PID.TID 0000.0001) //                      =========
(PID.TID 0000.0001) // ======================================================
(PID.TID 0000.0001) // execution environment starting up...
(PID.TID 0000.0001) 
(PID.TID 0000.0001) // MITgcmUV version:  checkpoint68x
(PID.TID 0000.0001) // Build user:        jm_c
(PID.TID 0000.0001) // Build host:        villon
(PID.TID 0000.0001) // Build date:        Wed May 22 13:28:45 EDT 2024
(PID.TID 0000.0001) 
(PID.TID 0000.0001) // =======================================================
(PID.TID 0000.0001) // Execution Environment parameter file "eedata"
(PID.TID 0000.0001) // =======================================================
(PID.TID 0000.0001) ># Example "eedata" file
(PID.TID 0000.0001) ># Lines beginning "#" are comments
(PID.TID 0000.0001) ># nTx - No. threads per process in X
(PID.TID 0000.0001) ># nTy - No. threads per process in Y
(PID.TID 0000.0001) > &EEPARMS
(PID.TID 0000.0001) > /
(PID.TID 0000.0001) ># Note: Some systems use & as the
(PID.TID 0000.0001) ># namelist terminator. Other systems
(PID.TID 0000.0001) ># use a / character (as shown here).
(PID.TID 0000.0001) 
(PID.TID 0000.0001) // =======================================================
(PID.TID 0000.0001) // Computational Grid Specification ( see files "SIZE.h" )
(PID.TID 0000.0001) //                                  ( and "eedata"       )
(PID.TID 0000.0001) // =======================================================
(PID.TID 0000.0001)      nPx =    1 ; /* No. processes in X */
(PID.TID 0000.0001)      nPy =    1 ; /* No. processes in Y */
(PID.TID 0000.0001)      nSx =    2 ; /* No. tiles in X per process */
(PID.TID 0000.0001)      nSy =    4 ; /* No. tiles in Y per process */
(PID.TID 0000.0001)      sNx =   25 ; /* Tile size in X */
(PID.TID 0000.0001)      sNy =   25 ; /* Tile size in Y */
(PID.TID 0000.0001)      OLx =    3 ; /* Tile overlap distance in X */
(PID.TID 0000.0001)      OLy =    3 ; /* Tile overlap distance in Y */
(PID.TID 0000.0001)      nTx =    1 ; /* No. threads in X per process */
(PID.TID 0000.0001)      nTy =    1 ; /* No. threads in Y per process */
(PID.TID 0000.0001)       Nr =   30 ; /* No. levels in the vertical   */
(PID.TID 0000.0001)       Nx =   50 ; /* Total domain size in X ( = nPx*nSx*sNx ) */
(PID.TID 0000.0001)       Ny =  100 ; /* Total domain size in Y ( = nPy*nSy*sNy ) */
(PID.TID 0000.0001)   nTiles =    8 ; /* Total no. tiles per process ( = nSx*nSy ) */
(PID.TID 0000.0001)   nProcs =    1 ; /* Total no. processes ( = nPx*nPy ) */
(PID.TID 0000.0001) nThreads =    1 ; /* Total no. threads per process ( = nTx*nTy ) */
(PID.TID 0000.0001) usingMPI =    F ; /* Flag used to control whether MPI is in use */
(PID.TID 0000.0001)                   /*  note: To execute a program with MPI calls */
(PID.TID 0000.0001)                   /*  it must be launched appropriately e.g     */
(PID.TID 0000.0001)                   /*  "mpirun -np 64 ......"                    */
(PID.TID 0000.0001) useCoupler=   F ; /* Flag used to control communications with   */
(PID.TID 0000.0001)                   /*  other model components, through a coupler */
(PID.TID 0000.0001) useNest2W_parent =    F ;/* Control 2-W Nesting comm */
(PID.TID 0000.0001) useNest2W_child  =    F ;/* Control 2-W Nesting comm */
(PID.TID 0000.0001) debugMode =    F ; /* print debug msg. (sequence of S/R calls)  */
(PID.TID 0000.0001) printMapIncludesZeros=    F ; /* print zeros in Std.Output maps */
(PID.TID 0000.0001) maxLengthPrt1D=   65 /* maxLength of 1D array printed to StdOut */
(PID.TID 0000.0001) 
(PID.TID 0000.0001) // ======================================================
(PID.TID 0000.0001) // Mapping of tiles to threads
(PID.TID 0000.0001) // ======================================================
(PID.TID 0000.0001) // -o- Thread   1, tiles (   1:   2,   1:   4)
(PID.TID 0000.0001) 
(PID.TID 0000.0001) // ======================================================
(PID.TID 0000.0001) // Tile <-> Tile connectvity table
(PID.TID 0000.0001) // ======================================================
(PID.TID 0000.0001) // Tile number: 000001 (process no. = 000000)
(PID.TID 0000.0001) //        WEST: Tile = 000002, Process = 000000, Comm = put
(PID.TID 0000.0001) //                bi = 000002, bj = 000001
(PID.TID 0000.0001) //        EAST: Tile = 000002, Process = 000000, Comm = put
(PID.TID 0000.0001) //                bi = 000002, bj = 000001
(PID.TID 0000.0001) //       SOUTH: Tile = 000007, Process = 000000, Comm = put
(PID.TID 0000.0001) //                bi = 000001, bj = 000004
(PID.TID 0000.0001) //       NORTH: Tile = 000003, Process = 000000, Comm = put
(PID.TID 0000.0001) //                bi = 000001, bj = 000002
(PID.TID 0000.0001) // Tile number: 000002 (process no. = 000000)
(PID.TID 0000.0001) //        WEST: Tile = 000001, Process = 000000, Comm = put
(PID.TID 0000.0001) //                bi = 000001, bj = 000001
(PID.TID 0000.0001) //        EAST: Tile = 000001, Process = 000000, Comm = put
(PID.TID 0000.0001) //                bi = 000001, bj = 000001
(PID.TID 0000.0001) //       SOUTH: Tile = 000008, Process = 000000, Comm = put
(PID.TID 0000.0001) //                bi = 000002, bj = 000004
(PID.TID 0000.0001) //       NORTH: Tile = 000004, Process = 000000, Comm = put
(PID.TID 0000.0001) //                bi = 000002, bj = 000002
(PID.TID 0000.0001) // Tile number: 000003 (process no. = 000000)
(PID.TID 0000.0001) //        WEST: Tile = 000004, Process = 000000, Comm = put
(PID.TID 0000.0001) //                bi = 000002, bj = 000002
(PID.TID 0000.0001) //        EAST: Tile = 000004, Process = 000000, Comm = put
(PID.TID 0000.0001) //                bi = 000002, bj = 000002
(PID.TID 0000.0001) //       SOUTH: Tile = 000001, Process = 000000, Comm = put
(PID.TID 0000.0001) //                bi = 000001, bj = 000001
(PID.TID 0000.0001) //       NORTH: Tile = 000005, Process = 000000, Comm = put
(PID.TID 0000.0001) //                bi = 000001, bj = 000003
(PID.TID 0000.0001) // Tile number: 000004 (process no. = 000000)
(PID.TID 0000.0001) //        WEST: Tile = 000003, Process = 000000, Comm = put
(PID.TID 0000.0001) //                bi = 000001, bj = 000002
(PID.TID 0000.0001) //        EAST: Tile = 000003, Process = 000000, Comm = put
(PID.TID 0000.0001) //                bi = 000001, bj = 000002
(PID.TID 0000.0001) //       SOUTH: Tile = 000002, Process = 000000, Comm = put
(PID.TID 0000.0001) //                bi = 000002, bj = 000001
(PID.TID 0000.0001) //       NORTH: Tile = 000006, Process = 000000, Comm = put
(PID.TID 0000.0001) //                bi = 000002, bj = 000003
(PID.TID 0000.0001) // Tile number: 000005 (process no. = 000000)
(PID.TID 0000.0001) //        WEST: Tile = 000006, Process = 000000, Comm = put
(PID.TID 0000.0001) //                bi = 000002, bj = 000003
(PID.TID 0000.0001) //        EAST: Tile = 000006, Process = 000000, Comm = put
(PID.TID 0000.0001) //                bi = 000002, bj = 000003
(PID.TID 0000.0001) //       SOUTH: Tile = 000003, Process = 000000, Comm = put
(PID.TID 0000.0001) //                bi = 000001, bj = 000002
(PID.TID 0000.0001) //       NORTH: Tile = 000007, Process = 000000, Comm = put
(PID.TID 0000.0001) //                bi = 000001, bj = 000004
(PID.TID 0000.0001) // Tile number: 000006 (process no. = 000000)
(PID.TID 0000.0001) //        WEST: Tile = 000005, Process = 000000, Comm = put
(PID.TID 0000.0001) //                bi = 000001, bj = 000003
(PID.TID 0000.0001) //        EAST: Tile = 000005, Process = 000000, Comm = put
(PID.TID 0000.0001) //                bi = 000001, bj = 000003
(PID.TID 0000.0001) //       SOUTH: Tile = 000004, Process = 000000, Comm = put
(PID.TID 0000.0001) //                bi = 000002, bj = 000002
(PID.TID 0000.0001) //       NORTH: Tile = 000008, Process = 000000, Comm = put
(PID.TID 0000.0001) //                bi = 000002, bj = 000004
(PID.TID 0000.0001) // Tile number: 000007 (process no. = 000000)
(PID.TID 0000.0001) //        WEST: Tile = 000008, Process = 000000, Comm = put
(PID.TID 0000.0001) //                bi = 000002, bj = 000004
(PID.TID 0000.0001) //        EAST: Tile = 000008, Process = 000000, Comm = put
(PID.TID 0000.0001) //                bi = 000002, bj = 000004
(PID.TID 0000.0001) //       SOUTH: Tile = 000005, Process = 000000, Comm = put
(PID.TID 0000.0001) //                bi = 000001, bj = 000003
(PID.TID 0000.0001) //       NORTH: Tile = 000001, Process = 000000, Comm = put
(PID.TID 0000.0001) //                bi = 000001, bj = 000001
(PID.TID 0000.0001) // Tile number: 000008 (process no. = 000000)
(PID.TID 0000.0001) //        WEST: Tile = 000007, Process = 000000, Comm = put
(PID.TID 0000.0001) //                bi = 000001, bj = 000004
(PID.TID 0000.0001) //        EAST: Tile = 000007, Process = 000000, Comm = put
(PID.TID 0000.0001) //                bi = 000001, bj = 000004
(PID.TID 0000.0001) //       SOUTH: Tile = 000006, Process = 000000, Comm = put
(PID.TID 0000.0001) //                bi = 000002, bj = 000003
(PID.TID 0000.0001) //       NORTH: Tile = 000002, Process = 000000, Comm = put
(PID.TID 0000.0001) //                bi = 000002, bj = 000001
(PID.TID 0000.0001) 
(PID.TID 0000.0001)  INI_PARMS: opening model parameter file "data"
(PID.TID 0000.0001)  OPEN_COPY_DATA_FILE: opening file data
(PID.TID 0000.0001) // =======================================================
(PID.TID 0000.0001) // Parameter file "data"
(PID.TID 0000.0001) // =======================================================
(PID.TID 0000.0001) ># ====================
(PID.TID 0000.0001) ># | Model parameters |
(PID.TID 0000.0001) ># ====================
(PID.TID 0000.0001) >#
(PID.TID 0000.0001) ># Continuous equation parameters
(PID.TID 0000.0001) > &PARM01
(PID.TID 0000.0001) > Tref = 30*-1.9,
(PID.TID 0000.0001) > Sref = 30*34.4,
(PID.TID 0000.0001) > viscAz=1.E-3,
(PID.TID 0000.0001) > viscAh=600.0,
(PID.TID 0000.0001) > no_slip_sides=.FALSE.,
(PID.TID 0000.0001) > no_slip_bottom=.FALSE.,
(PID.TID 0000.0001) > diffKhT=100.0,
(PID.TID 0000.0001) > diffKzT=5.E-5,
(PID.TID 0000.0001) > diffKhS=100.0,
(PID.TID 0000.0001) > diffKzS=5.E-5,
(PID.TID 0000.0001) > bottomDragQuadratic=2.5E-3,
(PID.TID 0000.0001) > eosType='JMD95Z',
(PID.TID 0000.0001) > HeatCapacity_cp = 3974.0,
(PID.TID 0000.0001) > rhoConst=1030.,
(PID.TID 0000.0001) > rhoConst=1030.,
(PID.TID 0000.0001) > gravity=9.81,
(PID.TID 0000.0001) > convertFW2Salt = 33.4,
(PID.TID 0000.0001) > rigidLid=.FALSE.,
(PID.TID 0000.0001) > implicitFreeSurface=.TRUE.,
(PID.TID 0000.0001) > exactConserv=.TRUE.,
(PID.TID 0000.0001) > hFacMin=0.05,
(PID.TID 0000.0001) > nonHydrostatic=.FALSE.,
(PID.TID 0000.0001) > readBinaryPrec=64,
(PID.TID 0000.0001) > useCDScheme = .TRUE.,
(PID.TID 0000.0001) > /
(PID.TID 0000.0001) >
(PID.TID 0000.0001) ># Elliptic solver parameters
(PID.TID 0000.0001) > &PARM02
(PID.TID 0000.0001) > cg2dMaxIters=1000,
(PID.TID 0000.0001) > cg2dTargetResidual=1.E-13,
(PID.TID 0000.0001) > cg3dMaxIters=400,
(PID.TID 0000.0001) > cg3dTargetResidual=1.E-13,
(PID.TID 0000.0001) > /
(PID.TID 0000.0001) >
(PID.TID 0000.0001) ># Time stepping parameters
(PID.TID 0000.0001) > &PARM03
(PID.TID 0000.0001) > nIter0=0,
(PID.TID 0000.0001) > nTimeSteps=20,
(PID.TID 0000.0001) > deltaT=1800.0,
(PID.TID 0000.0001) > abEps=0.1,
(PID.TID 0000.0001) > cAdjFreq = -1.,
(PID.TID 0000.0001) > tauCD = 400000.,
(PID.TID 0000.0001) > pChkptFreq=0.0,
(PID.TID 0000.0001) > chkptFreq=0.0,
(PID.TID 0000.0001) > dumpFreq=0.0,
(PID.TID 0000.0001) > taveFreq=0.0,
(PID.TID 0000.0001) > monitorFreq=1.,
(PID.TID 0000.0001) > monitorSelect=2,
(PID.TID 0000.0001) > /
(PID.TID 0000.0001) >
(PID.TID 0000.0001) ># Gridding parameters
(PID.TID 0000.0001) > &PARM04
(PID.TID 0000.0001) > usingSphericalPolarGrid=.TRUE.,
(PID.TID 0000.0001) > ygOrigin = -80.0,
(PID.TID 0000.0001) > delX=50*0.3,
(PID.TID 0000.0001) > delY=100*0.1,
(PID.TID 0000.0001) > delZ=30*30.0,
(PID.TID 0000.0001) > /
(PID.TID 0000.0001) >
(PID.TID 0000.0001) ># Input datasets
(PID.TID 0000.0001) > &PARM05
(PID.TID 0000.0001) > bathyFile='bathy.box',
(PID.TID 0000.0001) > /
(PID.TID 0000.0001) 
(PID.TID 0000.0001)  INI_PARMS ; starts to read PARM01
(PID.TID 0000.0001)  INI_PARMS ; read PARM01 : OK
(PID.TID 0000.0001)  INI_PARMS ; starts to read PARM02
(PID.TID 0000.0001)  INI_PARMS ; read PARM02 : OK
(PID.TID 0000.0001)  INI_PARMS ; starts to read PARM03
(PID.TID 0000.0001)  INI_PARMS ; read PARM03 : OK
(PID.TID 0000.0001)  INI_PARMS ; starts to read PARM04
(PID.TID 0000.0001)  INI_PARMS ; read PARM04 : OK
(PID.TID 0000.0001)  INI_PARMS ; starts to read PARM05
(PID.TID 0000.0001)  INI_PARMS ; read PARM05 : OK
(PID.TID 0000.0001)  INI_PARMS: finished reading file "data"
(PID.TID 0000.0001)  PACKAGES_BOOT: opening data.pkg
(PID.TID 0000.0001)  OPEN_COPY_DATA_FILE: opening file data.pkg
(PID.TID 0000.0001) // =======================================================
(PID.TID 0000.0001) // Parameter file "data.pkg"
(PID.TID 0000.0001) // =======================================================
(PID.TID 0000.0001) ># Packages
(PID.TID 0000.0001) > &PACKAGES
(PID.TID 0000.0001) > useShelfIce=.TRUE.,
(PID.TID 0000.0001) > useSTIC=.TRUE.,
(PID.TID 0000.0001) > useDiagnostics = .TRUE.,
(PID.TID 0000.0001) > /
(PID.TID 0000.0001) 
(PID.TID 0000.0001)  PACKAGES_BOOT: finished reading data.pkg
(PID.TID 0000.0001)  PACKAGES_BOOT: On/Off package Summary
 --------  pkgs with a standard "usePKG" On/Off switch in "data.pkg":  --------
 pkg/obcs                 compiled but not used ( useOBCS                  = F )
 pkg/ggl90                compiled but not used ( useGGL90                 = F )
 pkg/shelfice             compiled   and   used ( useShelfIce              = T )
 pkg/steep_icecavity      compiled   and   used ( useSTEEP_ICECAVITY       = T )
 pkg/icefront             compiled but not used ( useICEFRONT              = F )
 pkg/diagnostics          compiled   and   used ( useDiagnostics           = T )
 pkg/mnc                  compiled but not used ( useMNC                   = F )
 -------- pkgs without standard "usePKG" On/Off switch in "data.pkg":  --------
 pkg/generic_advdiff      compiled   and   used ( useGAD                   = T )
 pkg/mom_common           compiled   and   used ( momStepping              = T )
 pkg/mom_vecinv           compiled but not used ( +vectorInvariantMomentum = F )
 pkg/mom_fluxform         compiled   and   used ( & not vectorInvariantMom = T )
 pkg/cd_code              compiled   and   used ( useCDscheme              = T )
 pkg/monitor              compiled   and   used ( monitorFreq > 0.         = T )
 pkg/debug                compiled but not used ( debugMode                = F )
 pkg/rw                   compiled   and   used
 pkg/mdsio                compiled   and   used
(PID.TID 0000.0001)  PACKAGES_BOOT: End of package Summary
(PID.TID 0000.0001) 
(PID.TID 0000.0001)  SHELFICE_READPARMS: opening data.shelfice
(PID.TID 0000.0001)  OPEN_COPY_DATA_FILE: opening file data.shelfice
(PID.TID 0000.0001) // =======================================================
(PID.TID 0000.0001) // Parameter file "data.shelfice"
(PID.TID 0000.0001) // =======================================================
(PID.TID 0000.0001) ># ===================================
(PID.TID 0000.0001) ># | Parameters for SHELFICE package |
(PID.TID 0000.0001) ># ===================================
(PID.TID 0000.0001) > &SHELFICE_PARM01
(PID.TID 0000.0001) > SHELFICEadvDiffHeatFlux = .TRUE.,
(PID.TID 0000.0001) > SHELFICEtopoFile='icetopo.exp1',
(PID.TID 0000.0001) > SHELFICEloadAnomalyFile = 'phi0surf.exp1.jmd95z',
(PID.TID 0000.0001) > SHELFICEconserve = .TRUE.,
(PID.TID 0000.0001) > SHELFICEkappa = 0.,
(PID.TID 0000.0001) ># defaults to no_slip_bottom (=F in input_ad/data)
(PID.TID 0000.0001) >#no_slip_shelfice = .FALSE.,
(PID.TID 0000.0001) > SHELFICEwriteState = .TRUE.,
(PID.TID 0000.0001) > /
(PID.TID 0000.0001) 
(PID.TID 0000.0001)  SHELFICE_READPARMS: finished reading data.shelfice
(PID.TID 0000.0001) STIC_READPARMS: opening data.stic
(PID.TID 0000.0001)  OPEN_COPY_DATA_FILE: opening file data.stic
(PID.TID 0000.0001) // =======================================================
(PID.TID 0000.0001) // Parameter file "data.stic"
(PID.TID 0000.0001) // =======================================================
(PID.TID 0000.0001) ># ==========================================
(PID.TID 0000.0001) ># | Parameters for STEEP_ICECAVITY package |
(PID.TID 0000.0001) ># ==========================================
(PID.TID 0000.0001) > &STIC_PARM01
(PID.TID 0000.0001) > STICdepthFile = 'icetopo.exp1',
(PID.TID 0000.0001) > /
(PID.TID 0000.0001) 
(PID.TID 0000.0001) STIC_READPARMS: finished reading data.stic
(PID.TID 0000.0001)  DIAGNOSTICS_READPARMS: opening data.diagnostics
(PID.TID 0000.0001)  OPEN_COPY_DATA_FILE: opening file data.diagnostics
(PID.TID 0000.0001) // =======================================================
(PID.TID 0000.0001) // Parameter file "data.diagnostics"
(PID.TID 0000.0001) // =======================================================
(PID.TID 0000.0001) ># Diagnostic Package Choices
(PID.TID 0000.0001) >#--------------------
(PID.TID 0000.0001) >#  dumpAtLast (logical): always write output at the end of simulation (default=F)
(PID.TID 0000.0001) >#  diag_mnc   (logical): write to NetCDF files (default=useMNC)
(PID.TID 0000.0001) >#--for each output-stream:
(PID.TID 0000.0001) >#  fileName(n) : prefix of the output file name (max 80c long) for outp.stream n
(PID.TID 0000.0001) >#  frequency(n):< 0 : write snap-shot output every |frequency| seconds
(PID.TID 0000.0001) >#               > 0 : write time-average output every frequency seconds
(PID.TID 0000.0001) >#  timePhase(n)     : write at time = timePhase + multiple of |frequency|
(PID.TID 0000.0001) >#    averagingFreq  : frequency (in s) for periodic averaging interval
(PID.TID 0000.0001) >#    averagingPhase : phase     (in s) for periodic averaging interval
(PID.TID 0000.0001) >#    repeatCycle    : number of averaging intervals in 1 cycle
(PID.TID 0000.0001) >#  levels(:,n) : list of levels to write to file (Notes: declared as REAL)
(PID.TID 0000.0001) >#                when this entry is missing, select all common levels of this list
(PID.TID 0000.0001) >#  fields(:,n) : list of selected diagnostics fields (8.c) in outp.stream n
(PID.TID 0000.0001) >#                (see "available_diagnostics.log" file for the full list of diags)
(PID.TID 0000.0001) >#  missing_value(n) : missing value for real-type fields in output file "n"
(PID.TID 0000.0001) >#  fileFlags(n)     : specific code (8c string) for output file "n"
(PID.TID 0000.0001) >#--------------------
(PID.TID 0000.0001) > &DIAGNOSTICS_LIST
(PID.TID 0000.0001) ># diag_mnc     = .FALSE.,
(PID.TID 0000.0001) >#--
(PID.TID 0000.0001) >  fields(1:14,1) = 'ETAN    ','ETANSQ  ','DETADT2 ',
(PID.TID 0000.0001) >                   'SHIuStar','SHIgammT','SHIgammS',
(PID.TID 0000.0001) >                   'SHIfwFlx','SHIhtFlx','SHIForcT','SHIForcS',
(PID.TID 0000.0001) >                   'TFLUX   ','SFLUX   ',
(PID.TID 0000.0001) >                   'SHI_TauX','SHI_TauY',
(PID.TID 0000.0001) >#  fileName(1) = 'surfDiag',
(PID.TID 0000.0001) >  frequency(1) =  86400.,
(PID.TID 0000.0001) >
(PID.TID 0000.0001) >  fields(1:9,2)  = 'UVEL    ','VVEL    ','WVEL    ','PHIHYD  ',
(PID.TID 0000.0001) >                   'VVELMASS','UVELMASS','WVELSQ  ',
(PID.TID 0000.0001) >                   'THETA   ','SALT    ',
(PID.TID 0000.0001) ># do not specify levels => all levels are selected
(PID.TID 0000.0001) >   fileName(2) = 'dynDiag',
(PID.TID 0000.0001) >  frequency(2) =  5184000.,
(PID.TID 0000.0001) >
(PID.TID 0000.0001) ># steep_icecavity-related diagnostics
(PID.TID 0000.0001) >  fields(1:6,3)  = 'SHIgam3T','SHIgam3S',
(PID.TID 0000.0001) >                   'STCfwFlx','STChtFlx','STCForcT','STCForcS',
(PID.TID 0000.0001) >   fileName(3) = 'sticDiag3D',
(PID.TID 0000.0001) >  frequency(3) = 1728000.,
(PID.TID 0000.0001) >
(PID.TID 0000.0001) >  fields(1:2,4)  = 'SHIICFfw','SHIICFht',
(PID.TID 0000.0001) >   fileName(4) = 'sticDiag2D',
(PID.TID 0000.0001) >  frequency(4) = 1728000.,
(PID.TID 0000.0001) > /
(PID.TID 0000.0001) >
(PID.TID 0000.0001) >#--------------------
(PID.TID 0000.0001) ># Parameter for Diagnostics of per level statistics:
(PID.TID 0000.0001) >#--------------------
(PID.TID 0000.0001) >#  diagSt_mnc (logical): write stat-diags to NetCDF files (default=diag_mnc)
(PID.TID 0000.0001) >#  diagSt_regMaskFile : file containing the region-mask to read-in
(PID.TID 0000.0001) >#  nSetRegMskFile   : number of region-mask sets within the region-mask file
(PID.TID 0000.0001) >#  set_regMask(i)   : region-mask set-index that identifies the region "i"
(PID.TID 0000.0001) >#  val_regMask(i)   : region "i" identifier value in the region mask
(PID.TID 0000.0001) >#--for each output-stream:
(PID.TID 0000.0001) >#  stat_fName(n) : prefix of the output file name (max 80c long) for outp.stream n
(PID.TID 0000.0001) >#  stat_freq(n):< 0 : write snap-shot output every |stat_freq| seconds
(PID.TID 0000.0001) >#               > 0 : write time-average output every stat_freq seconds
(PID.TID 0000.0001) >#  stat_phase(n)    : write at time = stat_phase + multiple of |stat_freq|
(PID.TID 0000.0001) >#  stat_region(:,n) : list of "regions" (default: 1 region only=global)
(PID.TID 0000.0001) >#  stat_fields(:,n) : list of selected diagnostics fields (8.c) in outp.stream n
(PID.TID 0000.0001) >#                (see "available_diagnostics.log" file for the full list of diags)
(PID.TID 0000.0001) >#--------------------
(PID.TID 0000.0001) > &DIAG_STATIS_PARMS
(PID.TID 0000.0001) ># diagSt_mnc = .TRUE.,
(PID.TID 0000.0001) ># an example just to check the agreement with MONITOR output:
(PID.TID 0000.0001) > stat_fields(1:6,1)  = 'ETAN    ','UVEL    ','VVEL    ','WVEL    ',
(PID.TID 0000.0001) >                       'THETA   ','SALT    ',
(PID.TID 0000.0001) >  stat_fName(1) = 'dynStDiag',
(PID.TID 0000.0001) >   stat_freq(1) = 86400.,
(PID.TID 0000.0001) ># stat_phase(1) = 0.,
(PID.TID 0000.0001) > /
(PID.TID 0000.0001) 
(PID.TID 0000.0001) S/R DIAGNOSTICS_READPARMS, read namelist "diagnostics_list": start
(PID.TID 0000.0001) S/R DIAGNOSTICS_READPARMS, read namelist "diagnostics_list": OK
(PID.TID 0000.0001) S/R DIAGNOSTICS_READPARMS, read namelist "DIAG_STATIS_PARMS": start
(PID.TID 0000.0001) S/R DIAGNOSTICS_READPARMS, read namelist "DIAG_STATIS_PARMS": OK
(PID.TID 0000.0001) -----------------------------------------------------
(PID.TID 0000.0001)  DIAGNOSTICS_READPARMS: global parameter summary:
(PID.TID 0000.0001)  diag_dBugLevel = /* level of printed debug messages */
(PID.TID 0000.0001)                       2
(PID.TID 0000.0001)     ;
(PID.TID 0000.0001)  dumpAtLast = /* always write time-ave diags at the end */
(PID.TID 0000.0001)                   F
(PID.TID 0000.0001)     ;
(PID.TID 0000.0001)  diag_mnc =   /* write NetCDF output files */
(PID.TID 0000.0001)                   F
(PID.TID 0000.0001)     ;
(PID.TID 0000.0001)  useMissingValue = /* put MissingValue where mask = 0 */
(PID.TID 0000.0001)                   F
(PID.TID 0000.0001)     ;
(PID.TID 0000.0001)  diagCG_maxIters = /* max number of iters in diag_cg2d */
(PID.TID 0000.0001)                    1000
(PID.TID 0000.0001)     ;
(PID.TID 0000.0001)  diagCG_resTarget = /* residual target for diag_cg2d */
(PID.TID 0000.0001)                 1.000000000000000E-13
(PID.TID 0000.0001)     ;
(PID.TID 0000.0001)  diagCG_pcOffDFac = /* preconditioner off-diagonal factor */
(PID.TID 0000.0001)                 9.611687812379854E-01
(PID.TID 0000.0001)     ;
(PID.TID 0000.0001) -----------------------------------------------------
(PID.TID 0000.0001)  DIAGNOSTICS_READPARMS: active diagnostics summary:
(PID.TID 0000.0001) -----------------------------------------------------
(PID.TID 0000.0001) Creating Output Stream: dynDiag
(PID.TID 0000.0001) Output Frequency:    5184000.000000 ; Phase:           0.000000
(PID.TID 0000.0001)  Averaging Freq.:    5184000.000000 , Phase:           0.000000 , Cycle:   1
(PID.TID 0000.0001)  missing value: -9.990000000000E+02
(PID.TID 0000.0001)  Levels:    will be set later
(PID.TID 0000.0001)  Fields:    UVEL     VVEL     WVEL     PHIHYD   VVELMASS UVELMASS WVELSQ   THETA    SALT
(PID.TID 0000.0001) Creating Output Stream: sticDiag3D
(PID.TID 0000.0001) Output Frequency:    1728000.000000 ; Phase:           0.000000
(PID.TID 0000.0001)  Averaging Freq.:    1728000.000000 , Phase:           0.000000 , Cycle:   1
(PID.TID 0000.0001)  missing value: -9.990000000000E+02
(PID.TID 0000.0001)  Levels:    will be set later
(PID.TID 0000.0001)  Fields:    SHIgam3T SHIgam3S STCfwFlx STChtFlx STCForcT STCForcS
(PID.TID 0000.0001) Creating Output Stream: sticDiag2D
(PID.TID 0000.0001) Output Frequency:    1728000.000000 ; Phase:           0.000000
(PID.TID 0000.0001)  Averaging Freq.:    1728000.000000 , Phase:           0.000000 , Cycle:   1
(PID.TID 0000.0001)  missing value: -9.990000000000E+02
(PID.TID 0000.0001)  Levels:    will be set later
(PID.TID 0000.0001)  Fields:    SHIICFfw SHIICFht
(PID.TID 0000.0001) -----------------------------------------------------
(PID.TID 0000.0001)  DIAGNOSTICS_READPARMS: statistics diags. summary:
(PID.TID 0000.0001) Creating Stats. Output Stream: dynStDiag
(PID.TID 0000.0001) Output Frequency:      86400.000000 ; Phase:           0.000000
(PID.TID 0000.0001)  Regions:   0
(PID.TID 0000.0001)  Fields:    ETAN     UVEL     VVEL     WVEL     THETA    SALT
(PID.TID 0000.0001) -----------------------------------------------------
(PID.TID 0000.0001) 
(PID.TID 0000.0001) SET_PARMS: done
(PID.TID 0000.0001) Enter INI_VERTICAL_GRID: setInterFDr=    T ; setCenterDr=    F
(PID.TID 0000.0001) %MON XC_max                       =   1.4850000000000E+01
(PID.TID 0000.0001) %MON XC_min                       =   1.5000000000000E-01
(PID.TID 0000.0001) %MON XC_mean                      =   7.5000000000000E+00
(PID.TID 0000.0001) %MON XC_sd                        =   4.3292609068985E+00
(PID.TID 0000.0001) %MON XG_max                       =   1.4700000000000E+01
(PID.TID 0000.0001) %MON XG_min                       =   1.1102230246252E-16
(PID.TID 0000.0001) %MON XG_mean                      =   7.3500000000000E+00
(PID.TID 0000.0001) %MON XG_sd                        =   4.3292609068985E+00
(PID.TID 0000.0001) %MON DXC_max                      =   1.1380125394806E+04
(PID.TID 0000.0001) %MON DXC_min                      =   5.8203914905589E+03
(PID.TID 0000.0001) %MON DXC_mean                     =   8.6215028627207E+03
(PID.TID 0000.0001) %MON DXC_sd                       =   1.6219001271572E+03
(PID.TID 0000.0001) %MON DXF_max                      =   1.1380125394806E+04
(PID.TID 0000.0001) %MON DXF_min                      =   5.8203914905589E+03
(PID.TID 0000.0001) %MON DXF_mean                     =   8.6215028627207E+03
(PID.TID 0000.0001) %MON DXF_sd                       =   1.6219001271572E+03
(PID.TID 0000.0001) %MON DXG_max                      =   1.1352761512017E+04
(PID.TID 0000.0001) %MON DXG_min                      =   5.7917296935586E+03
(PID.TID 0000.0001) %MON DXG_mean                     =   8.5934208253080E+03
(PID.TID 0000.0001) %MON DXG_sd                       =   1.6222785520817E+03
(PID.TID 0000.0001) %MON DXV_max                      =   1.1352761512017E+04
(PID.TID 0000.0001) %MON DXV_min                      =   5.7917296935586E+03
(PID.TID 0000.0001) %MON DXV_mean                     =   8.5934208253080E+03
(PID.TID 0000.0001) %MON DXV_sd                       =   1.6222785520817E+03
(PID.TID 0000.0001) %MON YC_max                       =  -7.0050000000001E+01
(PID.TID 0000.0001) %MON YC_min                       =  -7.9950000000000E+01
(PID.TID 0000.0001) %MON YC_mean                      =  -7.5000000000000E+01
(PID.TID 0000.0001) %MON YC_sd                        =   2.8866070047720E+00
(PID.TID 0000.0001) %MON YG_max                       =  -7.0100000000001E+01
(PID.TID 0000.0001) %MON YG_min                       =  -8.0000000000000E+01
(PID.TID 0000.0001) %MON YG_mean                      =  -7.5050000000000E+01
(PID.TID 0000.0001) %MON YG_sd                        =   2.8866070047721E+00
(PID.TID 0000.0001) %MON DYC_max                      =   1.1117747335204E+04
(PID.TID 0000.0001) %MON DYC_min                      =   1.1117747335204E+04
(PID.TID 0000.0001) %MON DYC_mean                     =   1.1117747335204E+04
(PID.TID 0000.0001) %MON DYC_sd                       =   4.1836756281555E-11
(PID.TID 0000.0001) %MON DYF_max                      =   1.1117747335204E+04
(PID.TID 0000.0001) %MON DYF_min                      =   1.1117747335204E+04
(PID.TID 0000.0001) %MON DYF_mean                     =   1.1117747335204E+04
(PID.TID 0000.0001) %MON DYF_sd                       =   4.1836756281555E-11
(PID.TID 0000.0001) %MON DYG_max                      =   1.1117747335204E+04
(PID.TID 0000.0001) %MON DYG_min                      =   1.1117747335204E+04
(PID.TID 0000.0001) %MON DYG_mean                     =   1.1117747335204E+04
(PID.TID 0000.0001) %MON DYG_sd                       =   4.1836756281555E-11
(PID.TID 0000.0001) %MON DYU_max                      =   1.1117747335204E+04
(PID.TID 0000.0001) %MON DYU_min                      =   1.1117747335204E+04
(PID.TID 0000.0001) %MON DYU_mean                     =   1.1117747335204E+04
(PID.TID 0000.0001) %MON DYU_sd                       =   4.1836756281555E-11
(PID.TID 0000.0001) %MON RA_max                       =   1.2652134272379E+08
(PID.TID 0000.0001) %MON RA_min                       =   6.4709633770803E+07
(PID.TID 0000.0001) %MON RA_mean                      =   9.5851678311587E+07
(PID.TID 0000.0001) %MON RA_sd                        =   1.8031873527992E+07
(PID.TID 0000.0001) %MON RAW_max                      =   1.2652134272379E+08
(PID.TID 0000.0001) %MON RAW_min                      =   6.4709633770803E+07
(PID.TID 0000.0001) %MON RAW_mean                     =   9.5851678311587E+07
(PID.TID 0000.0001) %MON RAW_sd                       =   1.8031873527992E+07
(PID.TID 0000.0001) %MON RAS_max                      =   1.2621711802744E+08
(PID.TID 0000.0001) %MON RAS_min                      =   6.4390979194019E+07
(PID.TID 0000.0001) %MON RAS_mean                     =   9.5539469354603E+07
(PID.TID 0000.0001) %MON RAS_sd                       =   1.8036080760153E+07
(PID.TID 0000.0001) %MON RAZ_max                      =   1.2621711802744E+08
(PID.TID 0000.0001) %MON RAZ_min                      =   6.4390979194019E+07
(PID.TID 0000.0001) %MON RAZ_mean                     =   9.5539469354603E+07
(PID.TID 0000.0001) %MON RAZ_sd                       =   1.8036080760153E+07
(PID.TID 0000.0001) %MON AngleCS_max                  =   1.0000000000000E+00
(PID.TID 0000.0001) %MON AngleCS_min                  =   1.0000000000000E+00
(PID.TID 0000.0001) %MON AngleCS_mean                 =   1.0000000000000E+00
(PID.TID 0000.0001) %MON AngleCS_sd                   =   0.0000000000000E+00
(PID.TID 0000.0001) %MON AngleSN_max                  =   0.0000000000000E+00
(PID.TID 0000.0001) %MON AngleSN_min                  =   0.0000000000000E+00
(PID.TID 0000.0001) %MON AngleSN_mean                 =   0.0000000000000E+00
(PID.TID 0000.0001) %MON AngleSN_sd                   =   0.0000000000000E+00
(PID.TID 0000.0001)  MDS_READ_FIELD: opening global file: bathy.box
(PID.TID 0000.0001)  MDS_READ_FIELD: opening global file: icetopo.exp1
(PID.TID 0000.0001)  MDS_READ_FIELD: opening global file: icetopo.exp1
(PID.TID 0000.0001) // =======================================================
(PID.TID 0000.0001) // Field Model R_low (ini_masks_etc)
(PID.TID 0000.0001) // CMIN =         -9.000000000000000E+02
(PID.TID 0000.0001) // CMAX =         -9.000000000000000E+02
(PID.TID 0000.0001) // CINT =          0.000000000000000E+00
(PID.TID 0000.0001) // SYMBOLS (CMIN->CMAX): -abcdefghijklmnopqrstuvwxyz+
(PID.TID 0000.0001) //                  0.0: .
(PID.TID 0000.0001) // RANGE I (Lo:Hi:Step):(    -2:    53:     1)
(PID.TID 0000.0001) // RANGE J (Lo:Hi:Step):(   103:    -2:    -1)
(PID.TID 0000.0001) // RANGE K (Lo:Hi:Step):(   1:   1:   1)
(PID.TID 0000.0001) // =======================================================
(PID.TID 0000.0001) // =======================================================
(PID.TID 0000.0001) // END OF FIELD                                          =
(PID.TID 0000.0001) // =======================================================
(PID.TID 0000.0001) 
(PID.TID 0000.0001) // =======================================================
(PID.TID 0000.0001) // Field Model Ro_surf (ini_masks_etc)
(PID.TID 0000.0001) // CMIN =         -6.812500000000010E+02
(PID.TID 0000.0001) // CMAX =         -2.000000000000000E+02
(PID.TID 0000.0001) // CINT =          1.782407407407411E+01
(PID.TID 0000.0001) // SYMBOLS (CMIN->CMAX): -abcdefghijklmnopqrstuvwxyz+
(PID.TID 0000.0001) //                  0.0: .
(PID.TID 0000.0001) // RANGE I (Lo:Hi:Step):(    -2:    53:     1)
(PID.TID 0000.0001) // RANGE J (Lo:Hi:Step):(   103:    -2:    -1)
(PID.TID 0000.0001) // RANGE K (Lo:Hi:Step):(   1:   1:   1)
(PID.TID 0000.0001) // =======================================================
(PID.TID 0000.0001) K =   1
(PID.TID 0000.0001) //                I=7       I=17      I=27      I=31      I=41      I=51
(PID.TID 0000.0001) // |--J--|210123456|890123456|890123456|834567890|234567890|234567890|23
(PID.TID 0000.0001) //    103 aaa.aaaaaaaaaaaaaaaaaaaaaaaaaaaaaaaaaaaaaaaaaaaaaaaaaaaaaaa.aa
(PID.TID 0000.0001) //    102 ---.-------------------------------------------------------.--
(PID.TID 0000.0001) //    101 ..............................................................
(PID.TID 0000.0001) //    100 +++.+++++++++++++++++++++++++++++++++++++++++++++++++++++++.++
(PID.TID 0000.0001) //     99 +++.+++++++++++++++++++++++++++++++++++++++++++++++++++++++.++
(PID.TID 0000.0001) //     98 +++.+++++++++++++++++++++++++++++++++++++++++++++++++++++++.++
(PID.TID 0000.0001) //     97 +++.+++++++++++++++++++++++++++++++++++++++++++++++++++++++.++
(PID.TID 0000.0001) //     96 +++.+++++++++++++++++++++++++++++++++++++++++++++++++++++++.++
(PID.TID 0000.0001) //     95 +++.+++++++++++++++++++++++++++++++++++++++++++++++++++++++.++
(PID.TID 0000.0001) //     94 +++.+++++++++++++++++++++++++++++++++++++++++++++++++++++++.++
(PID.TID 0000.0001) //     93 +++.+++++++++++++++++++++++++++++++++++++++++++++++++++++++.++
(PID.TID 0000.0001) //     92 +++.+++++++++++++++++++++++++++++++++++++++++++++++++++++++.++
(PID.TID 0000.0001) //     91 +++.+++++++++++++++++++++++++++++++++++++++++++++++++++++++.++
(PID.TID 0000.0001) //     90 +++.+++++++++++++++++++++++++++++++++++++++++++++++++++++++.++
(PID.TID 0000.0001) //     89 +++.+++++++++++++++++++++++++++++++++++++++++++++++++++++++.++
(PID.TID 0000.0001) //     88 +++.+++++++++++++++++++++++++++++++++++++++++++++++++++++++.++
(PID.TID 0000.0001) //     87 +++.+++++++++++++++++++++++++++++++++++++++++++++++++++++++.++
(PID.TID 0000.0001) //     86 +++.+++++++++++++++++++++++++++++++++++++++++++++++++++++++.++
(PID.TID 0000.0001) //     85 +++.+++++++++++++++++++++++++++++++++++++++++++++++++++++++.++
(PID.TID 0000.0001) //     84 +++.+++++++++++++++++++++++++++++++++++++++++++++++++++++++.++
(PID.TID 0000.0001) //     83 +++.+++++++++++++++++++++++++++++++++++++++++++++++++++++++.++
(PID.TID 0000.0001) //     82 +++.+++++++++++++++++++++++++++++++++++++++++++++++++++++++.++
(PID.TID 0000.0001) //     81 +++.+++++++++++++++++++++++++++++++++++++++++++++++++++++++.++
(PID.TID 0000.0001) //     80 +++.+++++++++++++++++++++++++++++++++++++++++++++++++++++++.++
(PID.TID 0000.0001) //     79 +++.+++++++++++++++++++++++++++++++++++++++++++++++++++++++.++
(PID.TID 0000.0001) //     78 +++.+++++++++++++++++++++++++++++++++++++++++++++++++++++++.++
(PID.TID 0000.0001) //     77 +++.+++++++++++++++++++++++++++++++++++++++++++++++++++++++.++
(PID.TID 0000.0001) //     76 +++.+++++++++++++++++++++++++++++++++++++++++++++++++++++++.++
(PID.TID 0000.0001) //     75 +++.+++++++++++++++++++++++++++++++++++++++++++++++++++++++.++
(PID.TID 0000.0001) //     74 +++.+++++++++++++++++++++++++++++++++++++++++++++++++++++++.++
(PID.TID 0000.0001) //     73 +++.+++++++++++++++++++++++++++++++++++++++++++++++++++++++.++
(PID.TID 0000.0001) //     78 +++.+++++++++++++++++++++++++++++++++++++++++++++++++++++++.++
(PID.TID 0000.0001) //     77 +++.+++++++++++++++++++++++++++++++++++++++++++++++++++++++.++
(PID.TID 0000.0001) //     76 +++.+++++++++++++++++++++++++++++++++++++++++++++++++++++++.++
(PID.TID 0000.0001) //     75 +++.+++++++++++++++++++++++++++++++++++++++++++++++++++++++.++
(PID.TID 0000.0001) //     74 +++.+++++++++++++++++++++++++++++++++++++++++++++++++++++++.++
(PID.TID 0000.0001) //     73 +++.+++++++++++++++++++++++++++++++++++++++++++++++++++++++.++
(PID.TID 0000.0001) //     72 +++.+++++++++++++++++++++++++++++++++++++++++++++++++++++++.++
(PID.TID 0000.0001) //     71 +++.+++++++++++++++++++++++++++++++++++++++++++++++++++++++.++
(PID.TID 0000.0001) //     70 +++.+++++++++++++++++++++++++++++++++++++++++++++++++++++++.++
(PID.TID 0000.0001) //     69 +++.+++++++++++++++++++++++++++++++++++++++++++++++++++++++.++
(PID.TID 0000.0001) //     68 +++.+++++++++++++++++++++++++++++++++++++++++++++++++++++++.++
(PID.TID 0000.0001) //     67 +++.+++++++++++++++++++++++++++++++++++++++++++++++++++++++.++
(PID.TID 0000.0001) //     66 +++.+++++++++++++++++++++++++++++++++++++++++++++++++++++++.++
(PID.TID 0000.0001) //     65 +++.+++++++++++++++++++++++++++++++++++++++++++++++++++++++.++
(PID.TID 0000.0001) //     64 +++.+++++++++++++++++++++++++++++++++++++++++++++++++++++++.++
(PID.TID 0000.0001) //     63 +++.+++++++++++++++++++++++++++++++++++++++++++++++++++++++.++
(PID.TID 0000.0001) //     62 +++.+++++++++++++++++++++++++++++++++++++++++++++++++++++++.++
(PID.TID 0000.0001) //     61 +++.+++++++++++++++++++++++++++++++++++++++++++++++++++++++.++
(PID.TID 0000.0001) //     60 +++.+++++++++++++++++++++++++++++++++++++++++++++++++++++++.++
(PID.TID 0000.0001) //     59 +++.+++++++++++++++++++++++++++++++++++++++++++++++++++++++.++
(PID.TID 0000.0001) //     58 +++.+++++++++++++++++++++++++++++++++++++++++++++++++++++++.++
(PID.TID 0000.0001) //     57 +++.+++++++++++++++++++++++++++++++++++++++++++++++++++++++.++
(PID.TID 0000.0001) //     56 +++.+++++++++++++++++++++++++++++++++++++++++++++++++++++++.++
(PID.TID 0000.0001) //     55 +++.+++++++++++++++++++++++++++++++++++++++++++++++++++++++.++
(PID.TID 0000.0001) //     54 +++.+++++++++++++++++++++++++++++++++++++++++++++++++++++++.++
(PID.TID 0000.0001) //     53 +++.+++++++++++++++++++++++++++++++++++++++++++++++++++++++.++
(PID.TID 0000.0001) //     52 +++.+++++++++++++++++++++++++++++++++++++++++++++++++++++++.++
(PID.TID 0000.0001) //     51 +++.+++++++++++++++++++++++++++++++++++++++++++++++++++++++.++
(PID.TID 0000.0001) //     50 +++.+++++++++++++++++++++++++++++++++++++++++++++++++++++++.++
(PID.TID 0000.0001) //     49 +++.+++++++++++++++++++++++++++++++++++++++++++++++++++++++.++
(PID.TID 0000.0001) //     48 +++.+++++++++++++++++++++++++++++++++++++++++++++++++++++++.++
(PID.TID 0000.0001) //     53 +++.+++++++++++++++++++++++++++++++++++++++++++++++++++++++.++
(PID.TID 0000.0001) //     52 +++.+++++++++++++++++++++++++++++++++++++++++++++++++++++++.++
(PID.TID 0000.0001) //     51 +++.+++++++++++++++++++++++++++++++++++++++++++++++++++++++.++
(PID.TID 0000.0001) //     50 +++.+++++++++++++++++++++++++++++++++++++++++++++++++++++++.++
(PID.TID 0000.0001) //     49 +++.+++++++++++++++++++++++++++++++++++++++++++++++++++++++.++
(PID.TID 0000.0001) //     48 +++.+++++++++++++++++++++++++++++++++++++++++++++++++++++++.++
(PID.TID 0000.0001) //     47 +++.+++++++++++++++++++++++++++++++++++++++++++++++++++++++.++
(PID.TID 0000.0001) //     46 +++.+++++++++++++++++++++++++++++++++++++++++++++++++++++++.++
(PID.TID 0000.0001) //     45 +++.+++++++++++++++++++++++++++++++++++++++++++++++++++++++.++
(PID.TID 0000.0001) //     44 +++.+++++++++++++++++++++++++++++++++++++++++++++++++++++++.++
(PID.TID 0000.0001) //     43 +++.+++++++++++++++++++++++++++++++++++++++++++++++++++++++.++
(PID.TID 0000.0001) //     42 +++.+++++++++++++++++++++++++++++++++++++++++++++++++++++++.++
(PID.TID 0000.0001) //     41 +++.+++++++++++++++++++++++++++++++++++++++++++++++++++++++.++
(PID.TID 0000.0001) //     40 +++.+++++++++++++++++++++++++++++++++++++++++++++++++++++++.++
(PID.TID 0000.0001) //     39 zzz.zzzzzzzzzzzzzzzzzzzzzzzzzzzzzzzzzzzzzzzzzzzzzzzzzzzzzzz.zz
(PID.TID 0000.0001) //     38 yyy.yyyyyyyyyyyyyyyyyyyyyyyyyyyyyyyyyyyyyyyyyyyyyyyyyyyyyyy.yy
(PID.TID 0000.0001) //     37 yyy.yyyyyyyyyyyyyyyyyyyyyyyyyyyyyyyyyyyyyyyyyyyyyyyyyyyyyyy.yy
(PID.TID 0000.0001) //     36 xxx.xxxxxxxxxxxxxxxxxxxxxxxxxxxxxxxxxxxxxxxxxxxxxxxxxxxxxxx.xx
(PID.TID 0000.0001) //     35 www.wwwwwwwwwwwwwwwwwwwwwwwwwwwwwwwwwwwwwwwwwwwwwwwwwwwwwww.ww
(PID.TID 0000.0001) //     34 vvv.vvvvvvvvvvvvvvvvvvvvvvvvvvvvvvvvvvvvvvvvvvvvvvvvvvvvvvv.vv
(PID.TID 0000.0001) //     33 vvv.vvvvvvvvvvvvvvvvvvvvvvvvvvvvvvvvvvvvvvvvvvvvvvvvvvvvvvv.vv
(PID.TID 0000.0001) //     32 uuu.uuuuuuuuuuuuuuuuuuuuuuuuuuuuuuuuuuuuuuuuuuuuuuuuuuuuuuu.uu
(PID.TID 0000.0001) //     31 ttt.ttttttttttttttttttttttttttttttttttttttttttttttttttttttt.tt
(PID.TID 0000.0001) //     30 ttt.ttttttttttttttttttttttttttttttttttttttttttttttttttttttt.tt
(PID.TID 0000.0001) //     29 sss.sssssssssssssssssssssssssssssssssssssssssssssssssssssss.ss
(PID.TID 0000.0001) //     28 rrr.rrrrrrrrrrrrrrrrrrrrrrrrrrrrrrrrrrrrrrrrrrrrrrrrrrrrrrr.rr
(PID.TID 0000.0001) //     27 rrr.rrrrrrrrrrrrrrrrrrrrrrrrrrrrrrrrrrrrrrrrrrrrrrrrrrrrrrr.rr
(PID.TID 0000.0001) //     26 qqq.qqqqqqqqqqqqqqqqqqqqqqqqqqqqqqqqqqqqqqqqqqqqqqqqqqqqqqq.qq
(PID.TID 0000.0001) //     25 ppp.ppppppppppppppppppppppppppppppppppppppppppppppppppppppp.pp
(PID.TID 0000.0001) //     24 ooo.ooooooooooooooooooooooooooooooooooooooooooooooooooooooo.oo
(PID.TID 0000.0001) //     23 ooo.ooooooooooooooooooooooooooooooooooooooooooooooooooooooo.oo
(PID.TID 0000.0001) //     28 rrr.rrrrrrrrrrrrrrrrrrrrrrrrrrrrrrrrrrrrrrrrrrrrrrrrrrrrrrr.rr
(PID.TID 0000.0001) //     27 rrr.rrrrrrrrrrrrrrrrrrrrrrrrrrrrrrrrrrrrrrrrrrrrrrrrrrrrrrr.rr
(PID.TID 0000.0001) //     26 qqq.qqqqqqqqqqqqqqqqqqqqqqqqqqqqqqqqqqqqqqqqqqqqqqqqqqqqqqq.qq
(PID.TID 0000.0001) //     25 ppp.ppppppppppppppppppppppppppppppppppppppppppppppppppppppp.pp
(PID.TID 0000.0001) //     24 ooo.ooooooooooooooooooooooooooooooooooooooooooooooooooooooo.oo
(PID.TID 0000.0001) //     23 ooo.ooooooooooooooooooooooooooooooooooooooooooooooooooooooo.oo
(PID.TID 0000.0001) //     22 nnn.nnnnnnnnnnnnnnnnnnnnnnnnnnnnnnnnnnnnnnnnnnnnnnnnnnnnnnn.nn
(PID.TID 0000.0001) //     21 mmm.mmmmmmmmmmmmmmmmmmmmmmmmmmmmmmmmmmmmmmmmmmmmmmmmmmmmmmm.mm
(PID.TID 0000.0001) //     20 mmm.mmmmmmmmmmmmmmmmmmmmmmmmmmmmmmmmmmmmmmmmmmmmmmmmmmmmmmm.mm
(PID.TID 0000.0001) //     19 lll.lllllllllllllllllllllllllllllllllllllllllllllllllllllll.ll
(PID.TID 0000.0001) //     18 kkk.kkkkkkkkkkkkkkkkkkkkkkkkkkkkkkkkkkkkkkkkkkkkkkkkkkkkkkk.kk
(PID.TID 0000.0001) //     17 kkk.kkkkkkkkkkkkkkkkkkkkkkkkkkkkkkkkkkkkkkkkkkkkkkkkkkkkkkk.kk
(PID.TID 0000.0001) //     16 jjj.jjjjjjjjjjjjjjjjjjjjjjjjjjjjjjjjjjjjjjjjjjjjjjjjjjjjjjj.jj
(PID.TID 0000.0001) //     15 iii.iiiiiiiiiiiiiiiiiiiiiiiiiiiiiiiiiiiiiiiiiiiiiiiiiiiiiii.ii
(PID.TID 0000.0001) //     14 hhh.hhhhhhhhhhhhhhhhhhhhhhhhhhhhhhhhhhhhhhhhhhhhhhhhhhhhhhh.hh
(PID.TID 0000.0001) //     13 hhh.hhhhhhhhhhhhhhhhhhhhhhhhhhhhhhhhhhhhhhhhhhhhhhhhhhhhhhh.hh
(PID.TID 0000.0001) //     12 ggg.ggggggggggggggggggggggggggggggggggggggggggggggggggggggg.gg
(PID.TID 0000.0001) //     11 fff.fffffffffffffffffffffffffffffffffffffffffffffffffffffff.ff
(PID.TID 0000.0001) //     10 fff.fffffffffffffffffffffffffffffffffffffffffffffffffffffff.ff
(PID.TID 0000.0001) //      9 eee.eeeeeeeeeeeeeeeeeeeeeeeeeeeeeeeeeeeeeeeeeeeeeeeeeeeeeee.ee
(PID.TID 0000.0001) //      8 ddd.ddddddddddddddddddddddddddddddddddddddddddddddddddddddd.dd
(PID.TID 0000.0001) //      7 ddd.ddddddddddddddddddddddddddddddddddddddddddddddddddddddd.dd
(PID.TID 0000.0001) //      6 ccc.ccccccccccccccccccccccccccccccccccccccccccccccccccccccc.cc
(PID.TID 0000.0001) //      5 bbb.bbbbbbbbbbbbbbbbbbbbbbbbbbbbbbbbbbbbbbbbbbbbbbbbbbbbbbb.bb
(PID.TID 0000.0001) //      4 aaa.aaaaaaaaaaaaaaaaaaaaaaaaaaaaaaaaaaaaaaaaaaaaaaaaaaaaaaa.aa
(PID.TID 0000.0001) //      3 aaa.aaaaaaaaaaaaaaaaaaaaaaaaaaaaaaaaaaaaaaaaaaaaaaaaaaaaaaa.aa
(PID.TID 0000.0001) //      2 ---.-------------------------------------------------------.--
(PID.TID 0000.0001) //      1 ..............................................................
(PID.TID 0000.0001) //      0 +++.+++++++++++++++++++++++++++++++++++++++++++++++++++++++.++
(PID.TID 0000.0001) //     -1 +++.+++++++++++++++++++++++++++++++++++++++++++++++++++++++.++
(PID.TID 0000.0001) //     -2 +++.+++++++++++++++++++++++++++++++++++++++++++++++++++++++.++
(PID.TID 0000.0001) // =======================================================
(PID.TID 0000.0001) // END OF FIELD                                          =
(PID.TID 0000.0001) // =======================================================
(PID.TID 0000.0001) 
(PID.TID 0000.0001) // =======================================================
(PID.TID 0000.0001) // Field hFacC at iteration          0
(PID.TID 0000.0001) // CMIN =          1.000000000000000E+32
(PID.TID 0000.0001) // CMAX =         -1.000000000000000E+32
(PID.TID 0000.0001) // CINT =          0.000000000000000E+00
(PID.TID 0000.0001) // SYMBOLS (CMIN->CMAX): -abcdefghijklmnopqrstuvwxyz+
(PID.TID 0000.0001) //                  0.0: .
(PID.TID 0000.0001) // RANGE I (Lo:Hi:Step):(    -2:    53:     1)
(PID.TID 0000.0001) // RANGE J (Lo:Hi:Step):(   103:    -2:    -1)
(PID.TID 0000.0001) // RANGE K (Lo:Hi:Step):(   1:   1:   1)
(PID.TID 0000.0001) // =======================================================
(PID.TID 0000.0001) // =======================================================
(PID.TID 0000.0001) // END OF FIELD                                          =
(PID.TID 0000.0001) // =======================================================
(PID.TID 0000.0001) 
(PID.TID 0000.0001) // =======================================================
(PID.TID 0000.0001) // Field hFacW at iteration          0
(PID.TID 0000.0001) // CMIN =          1.000000000000000E+32
(PID.TID 0000.0001) // CMAX =         -1.000000000000000E+32
(PID.TID 0000.0001) // CINT =          0.000000000000000E+00
(PID.TID 0000.0001) // SYMBOLS (CMIN->CMAX): -abcdefghijklmnopqrstuvwxyz+
(PID.TID 0000.0001) //                  0.0: .
(PID.TID 0000.0001) // RANGE I (Lo:Hi:Step):(    -2:    53:     1)
(PID.TID 0000.0001) // RANGE J (Lo:Hi:Step):(   103:    -2:    -1)
(PID.TID 0000.0001) // RANGE K (Lo:Hi:Step):(   1:   1:   1)
(PID.TID 0000.0001) // =======================================================
(PID.TID 0000.0001) // =======================================================
(PID.TID 0000.0001) // END OF FIELD                                          =
(PID.TID 0000.0001) // =======================================================
(PID.TID 0000.0001) 
(PID.TID 0000.0001) // =======================================================
(PID.TID 0000.0001) // Field hFacS at iteration          0
(PID.TID 0000.0001) // CMIN =          1.000000000000000E+32
(PID.TID 0000.0001) // CMAX =         -1.000000000000000E+32
(PID.TID 0000.0001) // CINT =          0.000000000000000E+00
(PID.TID 0000.0001) // SYMBOLS (CMIN->CMAX): -abcdefghijklmnopqrstuvwxyz+
(PID.TID 0000.0001) //                  0.0: .
(PID.TID 0000.0001) // RANGE I (Lo:Hi:Step):(    -2:    53:     1)
(PID.TID 0000.0001) // RANGE J (Lo:Hi:Step):(   103:    -2:    -1)
(PID.TID 0000.0001) // RANGE K (Lo:Hi:Step):(   1:   1:   1)
(PID.TID 0000.0001) // =======================================================
(PID.TID 0000.0001) // =======================================================
(PID.TID 0000.0001) // END OF FIELD                                          =
(PID.TID 0000.0001) // =======================================================
(PID.TID 0000.0001) 
(PID.TID 0000.0001) GAD_INIT_FIXED: GAD_OlMinSize=  1  0  1
(PID.TID 0000.0001) 
(PID.TID 0000.0001) // ===================================
(PID.TID 0000.0001) // GAD parameters :
(PID.TID 0000.0001) // ===================================
(PID.TID 0000.0001) tempAdvScheme =   /* Temp. Horiz.Advection scheme selector */
(PID.TID 0000.0001)                       2
(PID.TID 0000.0001)     ;
(PID.TID 0000.0001) tempVertAdvScheme =   /* Temp. Vert. Advection scheme selector */
(PID.TID 0000.0001)                       2
(PID.TID 0000.0001)     ;
(PID.TID 0000.0001) tempMultiDimAdvec =   /* use Muti-Dim Advec method for Temp */
(PID.TID 0000.0001)                   F
(PID.TID 0000.0001)     ;
(PID.TID 0000.0001) tempSOM_Advection = /* use 2nd Order Moment Advection for Temp */
(PID.TID 0000.0001)                   F
(PID.TID 0000.0001)     ;
(PID.TID 0000.0001) AdamsBashforthGt = /* apply Adams-Bashforth extrapolation on Gt */
(PID.TID 0000.0001)                   T
(PID.TID 0000.0001)     ;
(PID.TID 0000.0001) AdamsBashforth_T = /* apply Adams-Bashforth extrapolation on Temp */
(PID.TID 0000.0001)                   F
(PID.TID 0000.0001)     ;
(PID.TID 0000.0001) saltAdvScheme =   /* Salt. Horiz.advection scheme selector */
(PID.TID 0000.0001)                       2
(PID.TID 0000.0001)     ;
(PID.TID 0000.0001) saltVertAdvScheme =   /* Salt. Vert. Advection scheme selector */
(PID.TID 0000.0001)                       2
(PID.TID 0000.0001)     ;
(PID.TID 0000.0001) saltMultiDimAdvec =   /* use Muti-Dim Advec method for Salt */
(PID.TID 0000.0001)                   F
(PID.TID 0000.0001)     ;
(PID.TID 0000.0001) saltSOM_Advection = /* use 2nd Order Moment Advection for Salt */
(PID.TID 0000.0001)                   F
(PID.TID 0000.0001)     ;
(PID.TID 0000.0001) AdamsBashforthGs = /* apply Adams-Bashforth extrapolation on Gs */
(PID.TID 0000.0001)                   T
(PID.TID 0000.0001)     ;
(PID.TID 0000.0001) AdamsBashforth_S = /* apply Adams-Bashforth extrapolation on Salt */
(PID.TID 0000.0001)                   F
(PID.TID 0000.0001)     ;
(PID.TID 0000.0001) // ===================================
(PID.TID 0000.0001)  MDS_READ_FIELD: opening global file: phi0surf.exp1.jmd95z
(PID.TID 0000.0001) ------------------------------------------------------------
(PID.TID 0000.0001) DIAGNOSTICS_SET_LEVELS: done
(PID.TID 0000.0001)  Total Nb of available Diagnostics: ndiagt=   214
(PID.TID 0000.0001)  write list of available Diagnostics to file: available_diagnostics.log
(PID.TID 0000.0001) SETDIAG: Allocate 30 x  1 Levels for Diagnostic #    30 UVEL
(PID.TID 0000.0001) SETDIAG: Allocate 30 x  1 Levels for Diagnostic #    31 VVEL
(PID.TID 0000.0001) SETDIAG: Allocate 30 x  1 Levels for Diagnostic #    32 WVEL
(PID.TID 0000.0001) SETDIAG: Allocate 30 x  1 Levels for Diagnostic #    71 PHIHYD
(PID.TID 0000.0001) SETDIAG: Allocate 30 x  1 Levels for Diagnostic #    46 VVELMASS
(PID.TID 0000.0001) SETDIAG: Allocate 30 x  1 Levels for Diagnostic #    45 UVELMASS
(PID.TID 0000.0001) SETDIAG: Allocate 30 x  1 Levels for Diagnostic #    38 WVELSQ
(PID.TID 0000.0001) SETDIAG: Allocate 30 x  1 Levels for Diagnostic #    26 THETA
(PID.TID 0000.0001) SETDIAG: Allocate 30 x  1 Levels for Diagnostic #    27 SALT
(PID.TID 0000.0001) SETDIAG: Allocate 30 x  1 Levels for Diagnostic #   207 SHIgam3T
(PID.TID 0000.0001) SETDIAG: Allocate 30 x  1 Levels for Diagnostic #   208 SHIgam3S
(PID.TID 0000.0001) SETDIAG: Allocate 30 x  1 Levels for Diagnostic #   211 STCfwFlx
(PID.TID 0000.0001) SETDIAG: Allocate 30 x  1 Levels for Diagnostic #   212 STChtFlx
(PID.TID 0000.0001) SETDIAG: Allocate 30 x  1 Levels for Diagnostic #   213 STCForcT
(PID.TID 0000.0001) SETDIAG: Allocate 30 x  1 Levels for Diagnostic #   214 STCForcS
(PID.TID 0000.0001) SETDIAG: Allocate  1 x  1 Levels for Diagnostic #   209 SHIICFfw
(PID.TID 0000.0001) SETDIAG: Allocate  1 x  1 Levels for Diagnostic #   210 SHIICFht
(PID.TID 0000.0001)   space allocated for all diagnostics:     452 levels
(PID.TID 0000.0001)   set mate pointer for diag #    30  UVEL     , Parms: UUR     MR , mate:    31
(PID.TID 0000.0001)   set mate pointer for diag #    31  VVEL     , Parms: VVR     MR , mate:    30
(PID.TID 0000.0001)   set mate pointer for diag #    46  VVELMASS , Parms: VVr     MR , mate:    45
(PID.TID 0000.0001)   set mate pointer for diag #    45  UVELMASS , Parms: UUr     MR , mate:    46
(PID.TID 0000.0001) DIAGNOSTICS_SET_POINTERS: Set levels for Outp.Stream: dynDiag
(PID.TID 0000.0001)  Levels:       1.   2.   3.   4.   5.   6.   7.   8.   9.  10.  11.  12.  13.  14.  15.  16.  17.  18.  19.  20.
(PID.TID 0000.0001)  Levels:      21.  22.  23.  24.  25.  26.  27.  28.  29.  30.
(PID.TID 0000.0001) DIAGNOSTICS_SET_POINTERS: Set levels for Outp.Stream: sticDiag3D
(PID.TID 0000.0001)  Levels:       1.   2.   3.   4.   5.   6.   7.   8.   9.  10.  11.  12.  13.  14.  15.  16.  17.  18.  19.  20.
(PID.TID 0000.0001)  Levels:      21.  22.  23.  24.  25.  26.  27.  28.  29.  30.
(PID.TID 0000.0001) DIAGNOSTICS_SET_POINTERS: Set levels for Outp.Stream: sticDiag2D
(PID.TID 0000.0001)  Levels:       1.
(PID.TID 0000.0001) DIAGNOSTICS_SET_POINTERS: done
(PID.TID 0000.0001) ------------------------------------------------------------
(PID.TID 0000.0001) DIAGSTATS_SET_REGIONS: define   0 regions:
(PID.TID 0000.0001) ------------------------------------------------------------
(PID.TID 0000.0001) SETDIAG: Allocate  1 Levels for Stats-Diag #    23 ETAN
(PID.TID 0000.0001) SETDIAG: Allocate 30 Levels for Stats-Diag #    30 UVEL
(PID.TID 0000.0001) SETDIAG: Allocate 30 Levels for Stats-Diag #    31 VVEL
(PID.TID 0000.0001) SETDIAG: Allocate 30 Levels for Stats-Diag #    32 WVEL
(PID.TID 0000.0001) SETDIAG: Allocate 30 Levels for Stats-Diag #    26 THETA
(PID.TID 0000.0001) SETDIAG: Allocate 30 Levels for Stats-Diag #    27 SALT
(PID.TID 0000.0001)   space allocated for all stats-diags:     151 levels
(PID.TID 0000.0001) DIAGSTATS_SET_POINTERS: done
(PID.TID 0000.0001) ------------------------------------------------------------
(PID.TID 0000.0001) DIAGSTATS_INI_IO: open file: dynStDiag.0000000000.txt , unit=     9
(PID.TID 0000.0001) %MON fCori_max                    =  -1.3709057042516E-04
(PID.TID 0000.0001) %MON fCori_min                    =  -1.4360464034757E-04
(PID.TID 0000.0001) %MON fCori_mean                   =  -1.4069429304698E-04
(PID.TID 0000.0001) %MON fCori_sd                     =   1.9069739624987E-06
(PID.TID 0000.0001) %MON fCoriG_max                   =  -1.3713394327439E-04
(PID.TID 0000.0001) %MON fCoriG_min                   =  -1.4362679550910E-04
(PID.TID 0000.0001) %MON fCoriG_mean                  =  -1.4072713798624E-04
(PID.TID 0000.0001) %MON fCoriG_sd                    =   1.9008093726821E-06
(PID.TID 0000.0001) %MON fCoriCos_max                 =   4.9761447480159E-05
(PID.TID 0000.0001) %MON fCoriCos_min                 =   2.5450607565678E-05
(PID.TID 0000.0001) %MON fCoriCos_mean                =   3.7698922201606E-05
(PID.TID 0000.0001) %MON fCoriCos_sd                  =   7.0920218535055E-06
(PID.TID 0000.0001) INI_CG2D: CG2D normalisation factor =  1.0404366262810520E-03
(PID.TID 0000.0001) 
(PID.TID 0000.0001) // =======================================================
(PID.TID 0000.0001) // Model configuration
(PID.TID 0000.0001) // =======================================================
(PID.TID 0000.0001) //
(PID.TID 0000.0001) // "Physical" paramters ( PARM01 in namelist )
(PID.TID 0000.0001) //
(PID.TID 0000.0001) buoyancyRelation = /* Type of relation to get Buoyancy */
(PID.TID 0000.0001)               'OCEANIC'
(PID.TID 0000.0001)     ;
(PID.TID 0000.0001) fluidIsAir   =  /* fluid major constituent is Air */
(PID.TID 0000.0001)                   F
(PID.TID 0000.0001)     ;
(PID.TID 0000.0001) fluidIsWater =  /* fluid major constituent is Water */
(PID.TID 0000.0001)                   T
(PID.TID 0000.0001)     ;
(PID.TID 0000.0001) usingPCoords =  /* use p (or p*) vertical coordinate */
(PID.TID 0000.0001)                   F
(PID.TID 0000.0001)     ;
(PID.TID 0000.0001) usingZCoords =  /* use z (or z*) vertical coordinate */
(PID.TID 0000.0001)                   T
(PID.TID 0000.0001)     ;
(PID.TID 0000.0001) tRef =   /* Reference temperature profile ( oC or K ) */
(PID.TID 0000.0001)    30 @ -1.900000000000000E+00              /* K =  1: 30 */
(PID.TID 0000.0001)     ;
(PID.TID 0000.0001) sRef =   /* Reference salinity profile ( g/kg ) */
(PID.TID 0000.0001)    30 @  3.440000000000000E+01              /* K =  1: 30 */
(PID.TID 0000.0001)     ;
(PID.TID 0000.0001) rhoRef =   /* Density vertical profile from (Ref,sRef)( kg/m^3 ) */
(PID.TID 0000.0001)                 1.027768983359415E+03,      /* K =  1 */
(PID.TID 0000.0001)                 1.027915190977028E+03,      /* K =  2 */
(PID.TID 0000.0001)                 1.028061298013372E+03,      /* K =  3 */
(PID.TID 0000.0001)                 1.028207304511914E+03,      /* K =  4 */
(PID.TID 0000.0001)                 1.028353210516147E+03,      /* K =  5 */
(PID.TID 0000.0001)                 1.028499016069585E+03,      /* K =  6 */
(PID.TID 0000.0001)                 1.028644721215765E+03,      /* K =  7 */
(PID.TID 0000.0001)                 1.028790325998246E+03,      /* K =  8 */
(PID.TID 0000.0001)                 1.028935830460613E+03,      /* K =  9 */
(PID.TID 0000.0001)                 1.029081234646470E+03,      /* K = 10 */
(PID.TID 0000.0001)                 1.029226538599445E+03,      /* K = 11 */
(PID.TID 0000.0001)                 1.029371742363190E+03,      /* K = 12 */
(PID.TID 0000.0001)                 1.029516845981377E+03,      /* K = 13 */
(PID.TID 0000.0001)                 1.029661849497701E+03,      /* K = 14 */
(PID.TID 0000.0001)                 1.029806752955880E+03,      /* K = 15 */
(PID.TID 0000.0001)                 1.029951556399652E+03,      /* K = 16 */
(PID.TID 0000.0001)                 1.030096259872781E+03,      /* K = 17 */
(PID.TID 0000.0001)                 1.030240863419048E+03,      /* K = 18 */
(PID.TID 0000.0001)                 1.030385367082259E+03,      /* K = 19 */
(PID.TID 0000.0001)                 1.030529770906240E+03,      /* K = 20 */
(PID.TID 0000.0001)                 1.030674074934840E+03,      /* K = 21 */
(PID.TID 0000.0001)                 1.030818279211929E+03,      /* K = 22 */
(PID.TID 0000.0001)                 1.030962383781397E+03,      /* K = 23 */
(PID.TID 0000.0001)                 1.031106388687158E+03,      /* K = 24 */
(PID.TID 0000.0001)                 1.031250293973144E+03,      /* K = 25 */
(PID.TID 0000.0001)                 1.031394099683310E+03,      /* K = 26 */
(PID.TID 0000.0001)                 1.031537805861633E+03,      /* K = 27 */
(PID.TID 0000.0001)                 1.031681412552109E+03,      /* K = 28 */
(PID.TID 0000.0001)                 1.031824919798755E+03,      /* K = 29 */
(PID.TID 0000.0001)                 1.031968327645610E+03       /* K = 30 */
(PID.TID 0000.0001)     ;
(PID.TID 0000.0001) dBdrRef = /* Vertical grad. of reference buoyancy [(m/s/r)^2] */
(PID.TID 0000.0001)    30 @  0.000000000000000E+00              /* K =  1: 30 */
(PID.TID 0000.0001)     ;
(PID.TID 0000.0001) useStrainTensionVisc= /* Use StrainTension Form of Viscous Operator */
(PID.TID 0000.0001)                   F
(PID.TID 0000.0001)     ;
(PID.TID 0000.0001) useVariableVisc = /* Use variable horizontal viscosity */
(PID.TID 0000.0001)                   F
(PID.TID 0000.0001)     ;
(PID.TID 0000.0001) useHarmonicVisc = /* Use harmonic horizontal viscosity */
(PID.TID 0000.0001)                   T
(PID.TID 0000.0001)     ;
(PID.TID 0000.0001) useBiharmonicVisc= /* Use biharmonic horiz.  viscosity */
(PID.TID 0000.0001)                   F
(PID.TID 0000.0001)     ;
(PID.TID 0000.0001) useSmag3D = /* Use isotropic 3-D Smagorinsky viscosity */
(PID.TID 0000.0001)                   F
(PID.TID 0000.0001)     ;
(PID.TID 0000.0001) viscAh  =   /* Lateral harmonic viscosity ( m^2/s ) */
(PID.TID 0000.0001)                 6.000000000000000E+02
(PID.TID 0000.0001)     ;
(PID.TID 0000.0001) viscA4  =   /* Lateral biharmonic viscosity ( m^4/s ) */
(PID.TID 0000.0001)                 0.000000000000000E+00
(PID.TID 0000.0001)     ;
(PID.TID 0000.0001) no_slip_sides =  /* Viscous BCs: No-slip sides */
(PID.TID 0000.0001)                   F
(PID.TID 0000.0001)     ;
(PID.TID 0000.0001) sideDragFactor = /* side-drag scaling factor (non-dim) */
(PID.TID 0000.0001)                 2.000000000000000E+00
(PID.TID 0000.0001)     ;
(PID.TID 0000.0001) viscArNr = /* vertical profile of vertical viscosity ( m^2/s )*/
(PID.TID 0000.0001)    30 @  1.000000000000000E-03              /* K =  1: 30 */
(PID.TID 0000.0001)     ;
(PID.TID 0000.0001) no_slip_bottom =  /* Viscous BCs: No-slip bottom */
(PID.TID 0000.0001)                   F
(PID.TID 0000.0001)     ;
(PID.TID 0000.0001) bottomVisc_pCell = /* Partial-cell in bottom Visc. BC */
(PID.TID 0000.0001)                   F
(PID.TID 0000.0001)     ;
(PID.TID 0000.0001) bottomDragLinear = /* linear bottom-drag coefficient ( m/s ) */
(PID.TID 0000.0001)                 0.000000000000000E+00
(PID.TID 0000.0001)     ;
(PID.TID 0000.0001) bottomDragQuadratic = /* quadratic bottom-drag coefficient (-) */
(PID.TID 0000.0001)                 2.500000000000000E-03
(PID.TID 0000.0001)     ;
(PID.TID 0000.0001) selectBotDragQuadr = /* select quadratic bottom drag options */
(PID.TID 0000.0001)                       0
(PID.TID 0000.0001)     ;
(PID.TID 0000.0001) diffKhT =   /* Laplacian diffusion of heat laterally ( m^2/s ) */
(PID.TID 0000.0001)                 1.000000000000000E+02
(PID.TID 0000.0001)     ;
(PID.TID 0000.0001) diffK4T =   /* Biharmonic diffusion of heat laterally ( m^4/s ) */
(PID.TID 0000.0001)                 0.000000000000000E+00
(PID.TID 0000.0001)     ;
(PID.TID 0000.0001) diffKhS =   /* Laplacian diffusion of salt laterally ( m^2/s ) */
(PID.TID 0000.0001)                 1.000000000000000E+02
(PID.TID 0000.0001)     ;
(PID.TID 0000.0001) diffK4S =   /* Biharmonic diffusion of salt laterally ( m^4/s ) */
(PID.TID 0000.0001)                 0.000000000000000E+00
(PID.TID 0000.0001)     ;
(PID.TID 0000.0001) diffKrNrT = /* vertical profile of vertical diffusion of Temp ( m^2/s )*/
(PID.TID 0000.0001)    30 @  5.000000000000000E-05              /* K =  1: 30 */
(PID.TID 0000.0001)     ;
(PID.TID 0000.0001) diffKrNrS = /* vertical profile of vertical diffusion of Salt ( m^2/s )*/
(PID.TID 0000.0001)    30 @  5.000000000000000E-05              /* K =  1: 30 */
(PID.TID 0000.0001)     ;
(PID.TID 0000.0001) diffKrBL79surf = /* Surface diffusion for Bryan and Lewis 79 ( m^2/s ) */
(PID.TID 0000.0001)                 0.000000000000000E+00
(PID.TID 0000.0001)     ;
(PID.TID 0000.0001) diffKrBL79deep = /* Deep diffusion for Bryan and Lewis 1979 ( m^2/s ) */
(PID.TID 0000.0001)                 0.000000000000000E+00
(PID.TID 0000.0001)     ;
(PID.TID 0000.0001) diffKrBL79scl = /* Depth scale for Bryan and Lewis 1979 ( m ) */
(PID.TID 0000.0001)                 2.000000000000000E+02
(PID.TID 0000.0001)     ;
(PID.TID 0000.0001) diffKrBL79Ho = /* Turning depth for Bryan and Lewis 1979 ( m ) */
(PID.TID 0000.0001)                -2.000000000000000E+03
(PID.TID 0000.0001)     ;
(PID.TID 0000.0001) ivdc_kappa = /* Implicit Vertical Diffusivity for Convection ( m^2/s) */
(PID.TID 0000.0001)                 0.000000000000000E+00
(PID.TID 0000.0001)     ;
(PID.TID 0000.0001) hMixCriteria=  /* Criteria for mixed-layer diagnostic */
(PID.TID 0000.0001)                -8.000000000000000E-01
(PID.TID 0000.0001)     ;
(PID.TID 0000.0001) dRhoSmall =  /* Parameter for mixed-layer diagnostic */
(PID.TID 0000.0001)                 1.000000000000000E-06
(PID.TID 0000.0001)     ;
(PID.TID 0000.0001) hMixSmooth=  /* Smoothing parameter for mixed-layer diagnostic */
(PID.TID 0000.0001)                 0.000000000000000E+00
(PID.TID 0000.0001)     ;
(PID.TID 0000.0001) eosType =  /* Type of Equation of State */
(PID.TID 0000.0001)               'JMD95Z'
(PID.TID 0000.0001)     ;
(PID.TID 0000.0001) eosRefP0 = /* Reference atmospheric pressure for EOS ( Pa ) */
(PID.TID 0000.0001)                 1.013250000000000E+05
(PID.TID 0000.0001)     ;
(PID.TID 0000.0001) selectP_inEOS_Zc = /* select pressure to use in EOS (0,1,2,3) */
(PID.TID 0000.0001)                       0
(PID.TID 0000.0001)     0= -g*rhoConst*z ; 1= pRef (from tRef,sRef); 2= Hyd P ; 3= Hyd+NH P
(PID.TID 0000.0001)     ;
(PID.TID 0000.0001) surf_pRef = /* Surface reference pressure ( Pa ) */
(PID.TID 0000.0001)                 1.013250000000000E+05
(PID.TID 0000.0001)     ;
(PID.TID 0000.0001) HeatCapacity_Cp =  /* Specific heat capacity ( J/kg/K ) */
(PID.TID 0000.0001)                 3.974000000000000E+03
(PID.TID 0000.0001)     ;
(PID.TID 0000.0001) celsius2K = /* 0 degree Celsius converted to Kelvin ( K ) */
(PID.TID 0000.0001)                 2.731500000000000E+02
(PID.TID 0000.0001)     ;
(PID.TID 0000.0001) rhoConst  = /* Reference density (Boussinesq)  ( kg/m^3 ) */
(PID.TID 0000.0001)                 1.030000000000000E+03
(PID.TID 0000.0001)     ;
(PID.TID 0000.0001) rhoFacC = /* normalized Reference density @ cell-Center (-) */
(PID.TID 0000.0001)    30 @  1.000000000000000E+00              /* K =  1: 30 */
(PID.TID 0000.0001)     ;
(PID.TID 0000.0001) rhoFacF = /* normalized Reference density @ W-Interface (-) */
(PID.TID 0000.0001)    31 @  1.000000000000000E+00              /* K =  1: 31 */
(PID.TID 0000.0001)     ;
(PID.TID 0000.0001) rhoConstFresh = /* Fresh-water reference density ( kg/m^3 ) */
(PID.TID 0000.0001)                 1.030000000000000E+03
(PID.TID 0000.0001)     ;
(PID.TID 0000.0001) gravity =   /* Gravitational acceleration ( m/s^2 ) */
(PID.TID 0000.0001)                 9.810000000000000E+00
(PID.TID 0000.0001)     ;
(PID.TID 0000.0001) gBaro =   /* Barotropic gravity ( m/s^2 ) */
(PID.TID 0000.0001)                 9.810000000000000E+00
(PID.TID 0000.0001)     ;
(PID.TID 0000.0001) gravFacC = /* gravity factor (vs surf.) @ cell-Center (-) */
(PID.TID 0000.0001)    30 @  1.000000000000000E+00              /* K =  1: 30 */
(PID.TID 0000.0001)     ;
(PID.TID 0000.0001) gravFacF = /* gravity factor (vs surf.) @ W-Interface (-) */
(PID.TID 0000.0001)    31 @  1.000000000000000E+00              /* K =  1: 31 */
(PID.TID 0000.0001)     ;
(PID.TID 0000.0001) rotationPeriod =   /* Rotation Period ( s ) */
(PID.TID 0000.0001)                 8.616400000000000E+04
(PID.TID 0000.0001)     ;
(PID.TID 0000.0001) omega =   /* Angular velocity ( rad/s ) */
(PID.TID 0000.0001)                 7.292123516990375E-05
(PID.TID 0000.0001)     ;
(PID.TID 0000.0001) f0 =   /* Reference coriolis parameter ( 1/s ) */
(PID.TID 0000.0001)                 1.000000000000000E-04
(PID.TID 0000.0001)     ;
(PID.TID 0000.0001) beta =   /* Beta ( 1/(m.s) ) */
(PID.TID 0000.0001)                 9.999999999999999E-12
(PID.TID 0000.0001)     ;
(PID.TID 0000.0001) fPrime =   /* Second coriolis parameter ( 1/s ) */
(PID.TID 0000.0001)                 0.000000000000000E+00
(PID.TID 0000.0001)     ;
(PID.TID 0000.0001) rigidLid =   /* Rigid lid on/off flag */
(PID.TID 0000.0001)                   F
(PID.TID 0000.0001)     ;
(PID.TID 0000.0001) implicitFreeSurface =   /* Implicit free surface on/off flag */
(PID.TID 0000.0001)                   T
(PID.TID 0000.0001)     ;
(PID.TID 0000.0001) freeSurfFac =   /* Implicit free surface factor */
(PID.TID 0000.0001)                 1.000000000000000E+00
(PID.TID 0000.0001)     ;
(PID.TID 0000.0001) implicSurfPress =  /* Surface Pressure implicit factor (0-1) */
(PID.TID 0000.0001)                 1.000000000000000E+00
(PID.TID 0000.0001)     ;
(PID.TID 0000.0001) implicDiv2DFlow =  /* Barot. Flow Div. implicit factor (0-1) */
(PID.TID 0000.0001)                 1.000000000000000E+00
(PID.TID 0000.0001)     ;
(PID.TID 0000.0001) uniformLin_PhiSurf = /* use uniform Bo_surf on/off flag */
(PID.TID 0000.0001)                   T
(PID.TID 0000.0001)     ;
(PID.TID 0000.0001) uniformFreeSurfLev = /* free-surface level-index is uniform */
(PID.TID 0000.0001)                   F
(PID.TID 0000.0001)     ;
(PID.TID 0000.0001) sIceLoadFac =  /* scale factor for sIceLoad (0-1) */
(PID.TID 0000.0001)                 1.000000000000000E+00
(PID.TID 0000.0001)     ;
(PID.TID 0000.0001) hFacMin =   /* minimum partial cell factor (hFac) */
(PID.TID 0000.0001)                 5.000000000000000E-02
(PID.TID 0000.0001)     ;
(PID.TID 0000.0001) hFacMinDr = /* minimum partial cell thickness ( m) */
(PID.TID 0000.0001)                 0.000000000000000E+00
(PID.TID 0000.0001)     ;
(PID.TID 0000.0001) exactConserv =  /* Exact Volume Conservation on/off flag */
(PID.TID 0000.0001)                   T
(PID.TID 0000.0001)     ;
(PID.TID 0000.0001) linFSConserveTr = /* Tracer correction for Lin Free Surface on/off flag */
(PID.TID 0000.0001)                   F
(PID.TID 0000.0001)     ;
(PID.TID 0000.0001) nonlinFreeSurf = /* Non-linear Free Surf. options (-1,0,1,2,3)*/
(PID.TID 0000.0001)                       0
(PID.TID 0000.0001)      -1,0= Off ; 1,2,3= On, 2=+rescale gU,gV, 3=+update cg2d solv.
(PID.TID 0000.0001)     ;
(PID.TID 0000.0001) hFacInf =   /* lower threshold for hFac (nonlinFreeSurf only)*/
(PID.TID 0000.0001)                 2.000000000000000E-01
(PID.TID 0000.0001)     ;
(PID.TID 0000.0001) hFacSup =   /* upper threshold for hFac (nonlinFreeSurf only)*/
(PID.TID 0000.0001)                 2.000000000000000E+00
(PID.TID 0000.0001)     ;
(PID.TID 0000.0001) select_rStar = /* r* Vertical coord. options (=0 r coord.; >0 uses r*)*/
(PID.TID 0000.0001)                       0
(PID.TID 0000.0001)     ;
(PID.TID 0000.0001) useRealFreshWaterFlux = /* Real Fresh Water Flux on/off flag*/
(PID.TID 0000.0001)                   F
(PID.TID 0000.0001)     ;
(PID.TID 0000.0001) temp_EvPrRn = /* Temp. of Evap/Prec/R (UNSET=use local T)(oC)*/
(PID.TID 0000.0001)                 1.234567000000000E+05
(PID.TID 0000.0001)     ;
(PID.TID 0000.0001) salt_EvPrRn = /* Salin. of Evap/Prec/R (UNSET=use local S)(g/kg)*/
(PID.TID 0000.0001)                 0.000000000000000E+00
(PID.TID 0000.0001)     ;
(PID.TID 0000.0001) selectAddFluid = /* option for mass source/sink of fluid (=0: off) */
(PID.TID 0000.0001)                       0
(PID.TID 0000.0001)     ;
(PID.TID 0000.0001) temp_addMass = /* Temp. of addMass array (UNSET=use local T)(oC)*/
(PID.TID 0000.0001)                 1.234567000000000E+05
(PID.TID 0000.0001)     ;
(PID.TID 0000.0001) salt_addMass = /* Salin. of addMass array (UNSET=use local S)(g/kg)*/
(PID.TID 0000.0001)                 0.000000000000000E+00
(PID.TID 0000.0001)     ;
(PID.TID 0000.0001) convertFW2Salt = /* convert F.W. Flux to Salt Flux (-1=use local S)(g/kg)*/
(PID.TID 0000.0001)                 3.340000000000000E+01
(PID.TID 0000.0001)     ;
(PID.TID 0000.0001) use3Dsolver = /* use 3-D pressure solver on/off flag */
(PID.TID 0000.0001)                   F
(PID.TID 0000.0001)     ;
(PID.TID 0000.0001) nonHydrostatic =  /* Non-Hydrostatic on/off flag */
(PID.TID 0000.0001)                   F
(PID.TID 0000.0001)     ;
(PID.TID 0000.0001) nh_Am2 = /* Non-Hydrostatic terms scaling factor */
(PID.TID 0000.0001)                 1.000000000000000E+00
(PID.TID 0000.0001)     ;
(PID.TID 0000.0001) implicitNHPress = /* Non-Hyd Pressure implicit factor (0-1)*/
(PID.TID 0000.0001)                 1.000000000000000E+00
(PID.TID 0000.0001)     ;
(PID.TID 0000.0001) selectNHfreeSurf = /* Non-Hyd (free-)Surface option */
(PID.TID 0000.0001)                       0
(PID.TID 0000.0001)     ;
(PID.TID 0000.0001) quasiHydrostatic = /* Quasi-Hydrostatic on/off flag */
(PID.TID 0000.0001)                   F
(PID.TID 0000.0001)     ;
(PID.TID 0000.0001) calc_wVelocity = /* vertical velocity calculation on/off flag */
(PID.TID 0000.0001)                   T
(PID.TID 0000.0001)     ;
(PID.TID 0000.0001) momStepping =  /* Momentum equation on/off flag */
(PID.TID 0000.0001)                   T
(PID.TID 0000.0001)     ;
(PID.TID 0000.0001) vectorInvariantMomentum= /* Vector-Invariant Momentum on/off */
(PID.TID 0000.0001)                   F
(PID.TID 0000.0001)     ;
(PID.TID 0000.0001) momAdvection =  /* Momentum advection on/off flag */
(PID.TID 0000.0001)                   T
(PID.TID 0000.0001)     ;
(PID.TID 0000.0001) momViscosity =  /* Momentum viscosity on/off flag */
(PID.TID 0000.0001)                   T
(PID.TID 0000.0001)     ;
(PID.TID 0000.0001) momImplVertAdv= /* Momentum implicit vert. advection on/off*/
(PID.TID 0000.0001)                   F
(PID.TID 0000.0001)     ;
(PID.TID 0000.0001) implicitViscosity = /* Implicit viscosity on/off flag */
(PID.TID 0000.0001)                   F
(PID.TID 0000.0001)     ;
(PID.TID 0000.0001) selectImplicitDrag= /* Implicit bot Drag options (0,1,2)*/
(PID.TID 0000.0001)                       0
(PID.TID 0000.0001)     0= Expl. ; 1= Impl. on provis. Vel ; 2= Fully Impl (with surf.P)
(PID.TID 0000.0001)     ;
(PID.TID 0000.0001) selectMetricTerms= /* Metric-Terms on/off flag (=0/1) */
(PID.TID 0000.0001)                       1
(PID.TID 0000.0001)     ;
(PID.TID 0000.0001) useNHMTerms = /* Non-Hydrostatic Metric-Terms on/off */
(PID.TID 0000.0001)                   F
(PID.TID 0000.0001)     ;
(PID.TID 0000.0001) selectCoriMap = /* Coriolis Map options (0,1,2,3)*/
(PID.TID 0000.0001)                       2
(PID.TID 0000.0001)     0= f-Plane ; 1= Beta-Plane ; 2= Spherical ; 3= read from file
(PID.TID 0000.0001)     ;
(PID.TID 0000.0001) select3dCoriScheme= /* 3-D Coriolis on/off flag (=0/1) */
(PID.TID 0000.0001)                       0
(PID.TID 0000.0001)     ;
(PID.TID 0000.0001) useCoriolis =  /* Coriolis on/off flag */
(PID.TID 0000.0001)                   T
(PID.TID 0000.0001)     ;
(PID.TID 0000.0001) useCDscheme =  /* CD scheme on/off flag */
(PID.TID 0000.0001)                   T
(PID.TID 0000.0001)     ;
(PID.TID 0000.0001) selectCoriScheme= /* Scheme selector for Coriolis-Term */
(PID.TID 0000.0001)                       0
(PID.TID 0000.0001)    = 0 : original discretization (simple averaging, no hFac)
(PID.TID 0000.0001)    = 1 : Wet-point averaging (Jamar & Ozer 1986)
(PID.TID 0000.0001)    = 2 : energy conserving scheme (no hFac weight)
(PID.TID 0000.0001)    = 3 : energy conserving scheme using Wet-point averaging
(PID.TID 0000.0001)     ;
(PID.TID 0000.0001) momForcing =  /* Momentum forcing on/off flag */
(PID.TID 0000.0001)                   T
(PID.TID 0000.0001)     ;
(PID.TID 0000.0001) momTidalForcing = /* Momentum Tidal forcing on/off flag */
(PID.TID 0000.0001)                   T
(PID.TID 0000.0001)     ;
(PID.TID 0000.0001) momPressureForcing =  /* Momentum pressure term on/off flag */
(PID.TID 0000.0001)                   T
(PID.TID 0000.0001)     ;
(PID.TID 0000.0001) implicitIntGravWave= /* Implicit Internal Gravity Wave flag */
(PID.TID 0000.0001)                   F
(PID.TID 0000.0001)     ;
(PID.TID 0000.0001) staggerTimeStep =    /* Stagger time stepping on/off flag */
(PID.TID 0000.0001)                   F
(PID.TID 0000.0001)     ;
(PID.TID 0000.0001) doResetHFactors = /* reset thickness factors @ each time-step */
(PID.TID 0000.0001)                   F
(PID.TID 0000.0001)     ;
(PID.TID 0000.0001) multiDimAdvection =  /* enable/disable Multi-Dim Advection */
(PID.TID 0000.0001)                   T
(PID.TID 0000.0001)     ;
(PID.TID 0000.0001) useMultiDimAdvec =   /* Multi-Dim Advection is/is-not used */
(PID.TID 0000.0001)                   F
(PID.TID 0000.0001)     ;
(PID.TID 0000.0001) implicitDiffusion = /* Implicit Diffusion on/off flag */
(PID.TID 0000.0001)                   F
(PID.TID 0000.0001)     ;
(PID.TID 0000.0001) tempStepping =  /* Temperature equation on/off flag */
(PID.TID 0000.0001)                   T
(PID.TID 0000.0001)     ;
(PID.TID 0000.0001) tempAdvection = /* Temperature advection on/off flag */
(PID.TID 0000.0001)                   T
(PID.TID 0000.0001)     ;
(PID.TID 0000.0001) tempImplVertAdv = /* Temp. implicit vert. advection on/off */
(PID.TID 0000.0001)                   F
(PID.TID 0000.0001)     ;
(PID.TID 0000.0001) tempForcing  =  /* Temperature forcing on/off flag */
(PID.TID 0000.0001)                   T
(PID.TID 0000.0001)     ;
(PID.TID 0000.0001) doThetaClimRelax = /* apply SST relaxation on/off flag */
(PID.TID 0000.0001)                   F
(PID.TID 0000.0001)     ;
(PID.TID 0000.0001) tempIsActiveTr = /* Temp. is a dynamically Active Tracer */
(PID.TID 0000.0001)                   T
(PID.TID 0000.0001)     ;
(PID.TID 0000.0001) saltStepping =  /* Salinity equation on/off flag */
(PID.TID 0000.0001)                   T
(PID.TID 0000.0001)     ;
(PID.TID 0000.0001) saltAdvection = /* Salinity advection on/off flag */
(PID.TID 0000.0001)                   T
(PID.TID 0000.0001)     ;
(PID.TID 0000.0001) saltImplVertAdv = /* Sali. implicit vert. advection on/off */
(PID.TID 0000.0001)                   F
(PID.TID 0000.0001)     ;
(PID.TID 0000.0001) saltForcing  =  /* Salinity forcing on/off flag */
(PID.TID 0000.0001)                   T
(PID.TID 0000.0001)     ;
(PID.TID 0000.0001) doSaltClimRelax = /* apply SSS relaxation on/off flag */
(PID.TID 0000.0001)                   F
(PID.TID 0000.0001)     ;
(PID.TID 0000.0001) saltIsActiveTr = /* Salt  is a dynamically Active Tracer */
(PID.TID 0000.0001)                   T
(PID.TID 0000.0001)     ;
(PID.TID 0000.0001)  readBinaryPrec = /* Precision used for reading binary files */
(PID.TID 0000.0001)                      64
(PID.TID 0000.0001)     ;
(PID.TID 0000.0001) writeBinaryPrec = /* Precision used for writing binary files */
(PID.TID 0000.0001)                      32
(PID.TID 0000.0001)     ;
(PID.TID 0000.0001)  rwSuffixType =   /* select format of mds file suffix */
(PID.TID 0000.0001)                       0
(PID.TID 0000.0001)    = 0 : myIter (I10.10) ;   = 1 : 100*myTime (100th sec) ;
(PID.TID 0000.0001)    = 2 : myTime (seconds);   = 3 : myTime/360 (10th of hr);
(PID.TID 0000.0001)    = 4 : myTime/3600 (hours)
(PID.TID 0000.0001)     ;
(PID.TID 0000.0001)  globalFiles = /* write "global" (=not per tile) files */
(PID.TID 0000.0001)                   F
(PID.TID 0000.0001)     ;
(PID.TID 0000.0001)  useSingleCpuIO = /* only master MPI process does I/O */
(PID.TID 0000.0001)                   F
(PID.TID 0000.0001)     ;
(PID.TID 0000.0001)  useSingleCpuInput = /* only master process reads input */
(PID.TID 0000.0001)                   F
(PID.TID 0000.0001)     ;
(PID.TID 0000.0001) /* debLev[*]  : level of debug & auxiliary message printing */
(PID.TID 0000.0001) debLevZero =  0 ; /* level of disabled aux. msg printing */
(PID.TID 0000.0001)    debLevA =  1 ; /* level of minimum  aux. msg printing */
(PID.TID 0000.0001)    debLevB =  2 ; /* level of low aux. print (report read-file opening)*/
(PID.TID 0000.0001)    debLevC =  3 ; /* level of moderate debug prt (most pkgs debug msg) */
(PID.TID 0000.0001)    debLevD =  4 ; /* level of enhanced debug prt (add DEBUG_STATS prt) */
(PID.TID 0000.0001)    debLevE =  5 ; /* level of extensive debug printing */
(PID.TID 0000.0001) debugLevel =  /* select debug printing level */
(PID.TID 0000.0001)                       2
(PID.TID 0000.0001)     ;
(PID.TID 0000.0001)  plotLevel =  /* select PLOT_FIELD printing level */
(PID.TID 0000.0001)                       2
(PID.TID 0000.0001)     ;
(PID.TID 0000.0001) //
(PID.TID 0000.0001) // Elliptic solver(s) paramters ( PARM02 in namelist )
(PID.TID 0000.0001) //
(PID.TID 0000.0001) cg2dMaxIters =   /* Upper limit on 2d con. grad iterations  */
(PID.TID 0000.0001)                    1000
(PID.TID 0000.0001)     ;
(PID.TID 0000.0001) cg2dMinItersNSA =   /* Minimum number of iterations of 2d con. grad solver  */
(PID.TID 0000.0001)                       0
(PID.TID 0000.0001)     ;
(PID.TID 0000.0001) cg2dUseMinResSol= /* use cg2d last-iter(=0) / min-resid.(=1) solution */
(PID.TID 0000.0001)                       0
(PID.TID 0000.0001)     ;
(PID.TID 0000.0001) cg2dTargetResidual =   /* 2d con. grad target residual  */
(PID.TID 0000.0001)                 1.000000000000000E-13
(PID.TID 0000.0001)     ;
(PID.TID 0000.0001) cg2dTargetResWunit =   /* CG2d target residual [W units] */
(PID.TID 0000.0001)                -1.000000000000000E+00
(PID.TID 0000.0001)     ;
(PID.TID 0000.0001) cg2dPreCondFreq =   /* Freq. for updating cg2d preconditioner */
(PID.TID 0000.0001)                       1
(PID.TID 0000.0001)     ;
(PID.TID 0000.0001) useSRCGSolver =  /* use single reduction CG solver(s) */
(PID.TID 0000.0001)                   F
(PID.TID 0000.0001)     ;
(PID.TID 0000.0001) useNSACGSolver =  /* use not-self-adjoint CG solver */
(PID.TID 0000.0001)                   F
(PID.TID 0000.0001)     ;
(PID.TID 0000.0001) printResidualFreq = /* Freq. for printing CG residual */
(PID.TID 0000.0001)                       0
(PID.TID 0000.0001)     ;
(PID.TID 0000.0001) //
(PID.TID 0000.0001) // Time stepping paramters ( PARM03 in namelist )
(PID.TID 0000.0001) //
(PID.TID 0000.0001) deltaTMom =   /* Momentum equation timestep ( s ) */
(PID.TID 0000.0001)                 1.800000000000000E+03
(PID.TID 0000.0001)     ;
(PID.TID 0000.0001) deltaTFreeSurf = /* FreeSurface equation timestep ( s ) */
(PID.TID 0000.0001)                 1.800000000000000E+03
(PID.TID 0000.0001)     ;
(PID.TID 0000.0001) dTtracerLev =  /* Tracer equation timestep ( s ) */
(PID.TID 0000.0001)    30 @  1.800000000000000E+03              /* K =  1: 30 */
(PID.TID 0000.0001)     ;
(PID.TID 0000.0001) deltaTClock  =   /* Model clock timestep ( s ) */
(PID.TID 0000.0001)                 1.800000000000000E+03
(PID.TID 0000.0001)     ;
(PID.TID 0000.0001) cAdjFreq =   /* Convective adjustment interval ( s ) */
(PID.TID 0000.0001)                 1.800000000000000E+03
(PID.TID 0000.0001)     ;
(PID.TID 0000.0001) momForcingOutAB = /* =1: take Momentum Forcing out of Adams-Bash. stepping */
(PID.TID 0000.0001)                       0
(PID.TID 0000.0001)     ;
(PID.TID 0000.0001) tracForcingOutAB = /* =1: take T,S,pTr Forcing out of Adams-Bash. stepping */
(PID.TID 0000.0001)                       0
(PID.TID 0000.0001)     ;
(PID.TID 0000.0001) momDissip_In_AB = /* put Dissipation Tendency in Adams-Bash. stepping */
(PID.TID 0000.0001)                   T
(PID.TID 0000.0001)     ;
(PID.TID 0000.0001) doAB_onGtGs = /* apply AB on Tendencies (rather than on T,S)*/
(PID.TID 0000.0001)                   T
(PID.TID 0000.0001)     ;
(PID.TID 0000.0001) abEps =   /* Adams-Bashforth-2 stabilizing weight */
(PID.TID 0000.0001)                 1.000000000000000E-01
(PID.TID 0000.0001)     ;
(PID.TID 0000.0001) applyExchUV_early = /* Apply EXCH to U,V earlier in time-step */
(PID.TID 0000.0001)                   F
(PID.TID 0000.0001)     ;
(PID.TID 0000.0001) tauCD =   /* CD coupling time-scale ( s ) */
(PID.TID 0000.0001)                 4.000000000000000E+05
(PID.TID 0000.0001)     ;
(PID.TID 0000.0001) rCD =   /* Normalised CD coupling parameter */
(PID.TID 0000.0001)                 9.955000000000001E-01
(PID.TID 0000.0001)     ;
(PID.TID 0000.0001) epsAB_CD = /* AB-2 stabilizing weight for CD-scheme*/
(PID.TID 0000.0001)                 1.000000000000000E-01
(PID.TID 0000.0001)     ;
(PID.TID 0000.0001) pickupStrictlyMatch= /* stop if pickup do not strictly match */
(PID.TID 0000.0001)                   T
(PID.TID 0000.0001)     ;
(PID.TID 0000.0001) nIter0   =   /* Run starting timestep number */
(PID.TID 0000.0001)                       0
(PID.TID 0000.0001)     ;
(PID.TID 0000.0001) nTimeSteps = /* Number of timesteps */
(PID.TID 0000.0001)                      20
(PID.TID 0000.0001)     ;
(PID.TID 0000.0001) nEndIter =   /* Run ending timestep number */
(PID.TID 0000.0001)                      20
(PID.TID 0000.0001)     ;
(PID.TID 0000.0001) baseTime =   /* Model base time ( s ) */
(PID.TID 0000.0001)                 0.000000000000000E+00
(PID.TID 0000.0001)     ;
(PID.TID 0000.0001) startTime =  /* Run start time ( s ) */
(PID.TID 0000.0001)                 0.000000000000000E+00
(PID.TID 0000.0001)     ;
(PID.TID 0000.0001) endTime  =   /* Integration ending time ( s ) */
(PID.TID 0000.0001)                 3.600000000000000E+04
(PID.TID 0000.0001)     ;
(PID.TID 0000.0001) pChkPtFreq = /* Permanent restart/pickup file interval ( s ) */
(PID.TID 0000.0001)                 0.000000000000000E+00
(PID.TID 0000.0001)     ;
(PID.TID 0000.0001) chkPtFreq  = /* Rolling restart/pickup file interval ( s ) */
(PID.TID 0000.0001)                 0.000000000000000E+00
(PID.TID 0000.0001)     ;
(PID.TID 0000.0001) pickup_write_mdsio =   /* Model IO flag. */
(PID.TID 0000.0001)                   T
(PID.TID 0000.0001)     ;
(PID.TID 0000.0001) pickup_read_mdsio =   /* Model IO flag. */
(PID.TID 0000.0001)                   T
(PID.TID 0000.0001)     ;
(PID.TID 0000.0001) pickup_write_mnc =   /* Model IO flag. */
(PID.TID 0000.0001)                   F
(PID.TID 0000.0001)     ;
(PID.TID 0000.0001) pickup_read_mnc =   /* Model IO flag. */
(PID.TID 0000.0001)                   F
(PID.TID 0000.0001)     ;
(PID.TID 0000.0001) writePickupAtEnd =   /* Model IO flag. */
(PID.TID 0000.0001)                   T
(PID.TID 0000.0001)     ;
(PID.TID 0000.0001) dumpFreq =   /* Model state write out interval ( s ). */
(PID.TID 0000.0001)                 0.000000000000000E+00
(PID.TID 0000.0001)     ;
(PID.TID 0000.0001) dumpInitAndLast= /* write out Initial & Last iter. model state */
(PID.TID 0000.0001)                   T
(PID.TID 0000.0001)     ;
(PID.TID 0000.0001) snapshot_mdsio =   /* Model IO flag. */
(PID.TID 0000.0001)                   T
(PID.TID 0000.0001)     ;
(PID.TID 0000.0001) snapshot_mnc =   /* Model IO flag. */
(PID.TID 0000.0001)                   F
(PID.TID 0000.0001)     ;
(PID.TID 0000.0001) monitorFreq =   /* Monitor output interval ( s ). */
(PID.TID 0000.0001)                 1.000000000000000E+00
(PID.TID 0000.0001)     ;
(PID.TID 0000.0001) monitorSelect = /* select group of variables to monitor */
(PID.TID 0000.0001)                       2
(PID.TID 0000.0001)     ;
(PID.TID 0000.0001) monitor_stdio =   /* Model IO flag. */
(PID.TID 0000.0001)                   T
(PID.TID 0000.0001)     ;
(PID.TID 0000.0001) monitor_mnc =   /* Model IO flag. */
(PID.TID 0000.0001)                   F
(PID.TID 0000.0001)     ;
(PID.TID 0000.0001) externForcingPeriod =   /* forcing period (s) */
(PID.TID 0000.0001)                 0.000000000000000E+00
(PID.TID 0000.0001)     ;
(PID.TID 0000.0001) externForcingCycle =   /* period of the cyle (s). */
(PID.TID 0000.0001)                 0.000000000000000E+00
(PID.TID 0000.0001)     ;
(PID.TID 0000.0001) tauThetaClimRelax =   /* relaxation time scale (s) */
(PID.TID 0000.0001)                 0.000000000000000E+00
(PID.TID 0000.0001)     ;
(PID.TID 0000.0001) tauSaltClimRelax =   /* relaxation time scale (s) */
(PID.TID 0000.0001)                 0.000000000000000E+00
(PID.TID 0000.0001)     ;
(PID.TID 0000.0001) latBandClimRelax =   /* max. Lat. where relaxation */
(PID.TID 0000.0001)                 1.800000000000000E+02
(PID.TID 0000.0001)     ;
(PID.TID 0000.0001) //
(PID.TID 0000.0001) // Gridding paramters ( PARM04 in namelist )
(PID.TID 0000.0001) //
(PID.TID 0000.0001) usingCartesianGrid = /* Cartesian coordinates flag ( True/False ) */
(PID.TID 0000.0001)                   F
(PID.TID 0000.0001)     ;
(PID.TID 0000.0001) usingCylindricalGrid = /* Cylindrical coordinates flag ( True/False ) */
(PID.TID 0000.0001)                   F
(PID.TID 0000.0001)     ;
(PID.TID 0000.0001) usingSphericalPolarGrid = /* Spherical coordinates flag ( True/False ) */
(PID.TID 0000.0001)                   T
(PID.TID 0000.0001)     ;
(PID.TID 0000.0001) usingCurvilinearGrid = /* Curvilinear coordinates flag ( True/False ) */
(PID.TID 0000.0001)                   F
(PID.TID 0000.0001)     ;
(PID.TID 0000.0001) useMin4hFacEdges = /* set hFacW,S as minimum of adjacent hFacC factor */
(PID.TID 0000.0001)                   F
(PID.TID 0000.0001)     ;
(PID.TID 0000.0001) interViscAr_pCell = /* account for partial-cell in interior vert. viscosity */
(PID.TID 0000.0001)                   F
(PID.TID 0000.0001)     ;
(PID.TID 0000.0001) interDiffKr_pCell = /* account for partial-cell in interior vert. diffusion */
(PID.TID 0000.0001)                   F
(PID.TID 0000.0001)     ;
(PID.TID 0000.0001) pCellMix_select = /* option to enhance mixing near surface & bottom */
(PID.TID 0000.0001)                       0
(PID.TID 0000.0001)     ;
(PID.TID 0000.0001) selectSigmaCoord = /* Hybrid-Sigma Vert. Coordinate option */
(PID.TID 0000.0001)                       0
(PID.TID 0000.0001)     ;
(PID.TID 0000.0001) rSigmaBnd = /* r/sigma transition ( units of r ==  m ) */
(PID.TID 0000.0001)                 1.234567000000000E+05
(PID.TID 0000.0001)     ;
(PID.TID 0000.0001) rkSign =   /* index orientation relative to vertical coordinate */
(PID.TID 0000.0001)                -1.000000000000000E+00
(PID.TID 0000.0001)     ;
(PID.TID 0000.0001) gravitySign = /* gravity orientation relative to vertical coordinate */
(PID.TID 0000.0001)                -1.000000000000000E+00
(PID.TID 0000.0001)     ;
(PID.TID 0000.0001) seaLev_Z =  /* reference height of sea-level [m] */
(PID.TID 0000.0001)                 0.000000000000000E+00
(PID.TID 0000.0001)     ;
(PID.TID 0000.0001) top_Pres =  /* reference pressure at the top [Pa] */
(PID.TID 0000.0001)                 0.000000000000000E+00
(PID.TID 0000.0001)     ;
(PID.TID 0000.0001) mass2rUnit = /* convert mass per unit area [kg/m2] to r-units [m] */
(PID.TID 0000.0001)                 9.708737864077669E-04
(PID.TID 0000.0001)     ;
(PID.TID 0000.0001) rUnit2mass = /* convert r-units [m] to mass per unit area [kg/m2] */
(PID.TID 0000.0001)                 1.030000000000000E+03
(PID.TID 0000.0001)     ;
(PID.TID 0000.0001) drC =   /* C spacing ( units of r ) */
(PID.TID 0000.0001)                 1.500000000000000E+01,      /* K =  1 */
(PID.TID 0000.0001)    29 @  3.000000000000000E+01,             /* K =  2: 30 */
(PID.TID 0000.0001)                 1.500000000000000E+01       /* K = 31 */
(PID.TID 0000.0001)     ;
(PID.TID 0000.0001) drF =   /* W spacing ( units of r ) */
(PID.TID 0000.0001)    30 @  3.000000000000000E+01              /* K =  1: 30 */
(PID.TID 0000.0001)     ;
(PID.TID 0000.0001) delX = /* U spacing ( m - cartesian, degrees - spherical ) */
(PID.TID 0000.0001)    50 @  3.000000000000000E-01              /* I =  1: 50 */
(PID.TID 0000.0001)     ;
(PID.TID 0000.0001) delY = /* V spacing ( m - cartesian, degrees - spherical ) */
(PID.TID 0000.0001)   100 @  1.000000000000000E-01              /* J =  1:100 */
(PID.TID 0000.0001)     ;
(PID.TID 0000.0001) xgOrigin = /* X-axis origin of West  edge (cartesian: m, lat-lon: deg) */
(PID.TID 0000.0001)                 0.000000000000000E+00
(PID.TID 0000.0001)     ;
(PID.TID 0000.0001) ygOrigin = /* Y-axis origin of South edge (cartesian: m, lat-lon: deg) */
(PID.TID 0000.0001)                -8.000000000000000E+01
(PID.TID 0000.0001)     ;
(PID.TID 0000.0001) rSphere =  /* Radius ( ignored - cartesian, m - spherical ) */
(PID.TID 0000.0001)                 6.370000000000000E+06
(PID.TID 0000.0001)     ;
(PID.TID 0000.0001) deepAtmosphere = /* Deep/Shallow Atmosphere flag (True/False) */
(PID.TID 0000.0001)                   F
(PID.TID 0000.0001)     ;
(PID.TID 0000.0001) xC =  /* xC(:,1,:,1) : P-point X coord ( deg. or m if cartesian) */
(PID.TID 0000.0001)                 1.500000000000001E-01,      /* I =  1 */
(PID.TID 0000.0001)                 4.500000000000001E-01,      /* I =  2 */
(PID.TID 0000.0001)                 7.500000000000002E-01,      /* I =  3 */
(PID.TID 0000.0001)                 1.050000000000000E+00,      /* I =  4 */
(PID.TID 0000.0001)                 1.350000000000000E+00,      /* I =  5 */
(PID.TID 0000.0001)                 1.650000000000000E+00,      /* I =  6 */
(PID.TID 0000.0001)                 1.950000000000000E+00,      /* I =  7 */
(PID.TID 0000.0001)                 2.250000000000000E+00,      /* I =  8 */
(PID.TID 0000.0001)                 2.550000000000000E+00,      /* I =  9 */
(PID.TID 0000.0001)                 2.850000000000000E+00,      /* I = 10 */
(PID.TID 0000.0001)                 3.149999999999999E+00,      /* I = 11 */
(PID.TID 0000.0001)                 3.449999999999999E+00,      /* I = 12 */
(PID.TID 0000.0001)                 3.749999999999999E+00,      /* I = 13 */
(PID.TID 0000.0001)                 4.049999999999999E+00,      /* I = 14 */
(PID.TID 0000.0001)                 4.350000000000000E+00,      /* I = 15 */
(PID.TID 0000.0001)                 4.649999999999999E+00,      /* I = 16 */
(PID.TID 0000.0001)                 4.949999999999999E+00,      /* I = 17 */
(PID.TID 0000.0001)                 5.249999999999998E+00,      /* I = 18 */
(PID.TID 0000.0001)                 5.549999999999999E+00,      /* I = 19 */
(PID.TID 0000.0001)                 5.849999999999998E+00,      /* I = 20 */
(PID.TID 0000.0001)                 6.149999999999999E+00,      /* I = 21 */
(PID.TID 0000.0001)                 6.449999999999998E+00,      /* I = 22 */
(PID.TID 0000.0001)                 6.749999999999998E+00,      /* I = 23 */
(PID.TID 0000.0001)                 7.049999999999997E+00,      /* I = 24 */
(PID.TID 0000.0001)                 7.349999999999997E+00,      /* I = 25 */
(PID.TID 0000.0001)                 7.649999999999997E+00,      /* I = 26 */
(PID.TID 0000.0001)                 7.949999999999998E+00,      /* I = 27 */
(PID.TID 0000.0001)                 8.249999999999998E+00,      /* I = 28 */
(PID.TID 0000.0001)                 8.549999999999999E+00,      /* I = 29 */
(PID.TID 0000.0001)                 8.850000000000000E+00,      /* I = 30 */
(PID.TID 0000.0001)                 9.150000000000000E+00,      /* I = 31 */
(PID.TID 0000.0001)                 9.450000000000001E+00,      /* I = 32 */
(PID.TID 0000.0001)                 9.750000000000002E+00,      /* I = 33 */
(PID.TID 0000.0001)                 1.005000000000000E+01,      /* I = 34 */
(PID.TID 0000.0001)                 1.035000000000000E+01,      /* I = 35 */
(PID.TID 0000.0001)                 1.065000000000000E+01,      /* I = 36 */
(PID.TID 0000.0001)                 1.095000000000001E+01,      /* I = 37 */
(PID.TID 0000.0001)                 1.125000000000001E+01,      /* I = 38 */
(PID.TID 0000.0001)                 1.155000000000000E+01,      /* I = 39 */
(PID.TID 0000.0001)                 1.185000000000001E+01,      /* I = 40 */
(PID.TID 0000.0001)                 1.215000000000001E+01,      /* I = 41 */
(PID.TID 0000.0001)                 1.245000000000001E+01,      /* I = 42 */
(PID.TID 0000.0001)                 1.275000000000001E+01,      /* I = 43 */
(PID.TID 0000.0001)                 1.305000000000001E+01,      /* I = 44 */
(PID.TID 0000.0001)                 1.335000000000001E+01,      /* I = 45 */
(PID.TID 0000.0001)                 1.365000000000001E+01,      /* I = 46 */
(PID.TID 0000.0001)                 1.395000000000001E+01,      /* I = 47 */
(PID.TID 0000.0001)                 1.425000000000001E+01,      /* I = 48 */
(PID.TID 0000.0001)                 1.455000000000001E+01,      /* I = 49 */
(PID.TID 0000.0001)                 1.485000000000001E+01       /* I = 50 */
(PID.TID 0000.0001)     ;
(PID.TID 0000.0001) yC =  /* yC(1,:,1,:) : P-point Y coord ( deg. or m if cartesian) */
(PID.TID 0000.0001)                -7.995000000000000E+01,      /* J =  1 */
(PID.TID 0000.0001)                -7.985000000000001E+01,      /* J =  2 */
(PID.TID 0000.0001)                -7.975000000000001E+01,      /* J =  3 */
(PID.TID 0000.0001)      . . .
(PID.TID 0000.0001)                -7.775000000000013E+01,      /* J = 23 */
(PID.TID 0000.0001)                -7.765000000000013E+01,      /* J = 24 */
(PID.TID 0000.0001)                -7.755000000000014E+01,      /* J = 25 */
(PID.TID 0000.0001)                -7.745000000000014E+01,      /* J = 26 */
(PID.TID 0000.0001)                -7.735000000000015E+01,      /* J = 27 */
(PID.TID 0000.0001)                -7.725000000000016E+01,      /* J = 28 */
(PID.TID 0000.0001)      . . .
(PID.TID 0000.0001)                -7.525000000000027E+01,      /* J = 48 */
(PID.TID 0000.0001)                -7.515000000000028E+01,      /* J = 49 */
(PID.TID 0000.0001)                -7.505000000000028E+01,      /* J = 50 */
(PID.TID 0000.0001)                -7.495000000000029E+01,      /* J = 51 */
(PID.TID 0000.0001)                -7.485000000000029E+01,      /* J = 52 */
(PID.TID 0000.0001)                -7.475000000000030E+01,      /* J = 53 */
(PID.TID 0000.0001)      . . .
(PID.TID 0000.0001)                -7.275000000000041E+01,      /* J = 73 */
(PID.TID 0000.0001)                -7.265000000000042E+01,      /* J = 74 */
(PID.TID 0000.0001)                -7.255000000000042E+01,      /* J = 75 */
(PID.TID 0000.0001)                -7.245000000000043E+01,      /* J = 76 */
(PID.TID 0000.0001)                -7.235000000000043E+01,      /* J = 77 */
(PID.TID 0000.0001)                -7.225000000000044E+01,      /* J = 78 */
(PID.TID 0000.0001)      . . .
(PID.TID 0000.0001)                -7.025000000000055E+01,      /* J = 98 */
(PID.TID 0000.0001)                -7.015000000000056E+01,      /* J = 99 */
(PID.TID 0000.0001)                -7.005000000000057E+01       /* J =100 */
(PID.TID 0000.0001)     ;
(PID.TID 0000.0001) rcoord = /* P-point R coordinate (  units of r ) */
(PID.TID 0000.0001)                -1.500000000000000E+01,      /* K =  1 */
(PID.TID 0000.0001)                -4.500000000000000E+01,      /* K =  2 */
(PID.TID 0000.0001)                -7.500000000000000E+01,      /* K =  3 */
(PID.TID 0000.0001)                -1.050000000000000E+02,      /* K =  4 */
(PID.TID 0000.0001)                -1.350000000000000E+02,      /* K =  5 */
(PID.TID 0000.0001)                -1.650000000000000E+02,      /* K =  6 */
(PID.TID 0000.0001)                -1.950000000000000E+02,      /* K =  7 */
(PID.TID 0000.0001)                -2.250000000000000E+02,      /* K =  8 */
(PID.TID 0000.0001)                -2.550000000000000E+02,      /* K =  9 */
(PID.TID 0000.0001)                -2.850000000000000E+02,      /* K = 10 */
(PID.TID 0000.0001)                -3.150000000000000E+02,      /* K = 11 */
(PID.TID 0000.0001)                -3.450000000000000E+02,      /* K = 12 */
(PID.TID 0000.0001)                -3.750000000000000E+02,      /* K = 13 */
(PID.TID 0000.0001)                -4.050000000000000E+02,      /* K = 14 */
(PID.TID 0000.0001)                -4.350000000000000E+02,      /* K = 15 */
(PID.TID 0000.0001)                -4.650000000000000E+02,      /* K = 16 */
(PID.TID 0000.0001)                -4.950000000000000E+02,      /* K = 17 */
(PID.TID 0000.0001)                -5.250000000000000E+02,      /* K = 18 */
(PID.TID 0000.0001)                -5.550000000000000E+02,      /* K = 19 */
(PID.TID 0000.0001)                -5.850000000000000E+02,      /* K = 20 */
(PID.TID 0000.0001)                -6.150000000000000E+02,      /* K = 21 */
(PID.TID 0000.0001)                -6.450000000000000E+02,      /* K = 22 */
(PID.TID 0000.0001)                -6.750000000000000E+02,      /* K = 23 */
(PID.TID 0000.0001)                -7.050000000000000E+02,      /* K = 24 */
(PID.TID 0000.0001)                -7.350000000000000E+02,      /* K = 25 */
(PID.TID 0000.0001)                -7.650000000000000E+02,      /* K = 26 */
(PID.TID 0000.0001)                -7.950000000000000E+02,      /* K = 27 */
(PID.TID 0000.0001)                -8.250000000000000E+02,      /* K = 28 */
(PID.TID 0000.0001)                -8.550000000000000E+02,      /* K = 29 */
(PID.TID 0000.0001)                -8.850000000000000E+02       /* K = 30 */
(PID.TID 0000.0001)     ;
(PID.TID 0000.0001) rF =   /* W-Interf. R coordinate (  units of r ) */
(PID.TID 0000.0001)                 0.000000000000000E+00,      /* K =  1 */
(PID.TID 0000.0001)                -3.000000000000000E+01,      /* K =  2 */
(PID.TID 0000.0001)                -6.000000000000000E+01,      /* K =  3 */
(PID.TID 0000.0001)                -9.000000000000000E+01,      /* K =  4 */
(PID.TID 0000.0001)                -1.200000000000000E+02,      /* K =  5 */
(PID.TID 0000.0001)                -1.500000000000000E+02,      /* K =  6 */
(PID.TID 0000.0001)                -1.800000000000000E+02,      /* K =  7 */
(PID.TID 0000.0001)                -2.100000000000000E+02,      /* K =  8 */
(PID.TID 0000.0001)                -2.400000000000000E+02,      /* K =  9 */
(PID.TID 0000.0001)                -2.700000000000000E+02,      /* K = 10 */
(PID.TID 0000.0001)                -3.000000000000000E+02,      /* K = 11 */
(PID.TID 0000.0001)                -3.300000000000000E+02,      /* K = 12 */
(PID.TID 0000.0001)                -3.600000000000000E+02,      /* K = 13 */
(PID.TID 0000.0001)                -3.900000000000000E+02,      /* K = 14 */
(PID.TID 0000.0001)                -4.200000000000000E+02,      /* K = 15 */
(PID.TID 0000.0001)                -4.500000000000000E+02,      /* K = 16 */
(PID.TID 0000.0001)                -4.800000000000000E+02,      /* K = 17 */
(PID.TID 0000.0001)                -5.100000000000000E+02,      /* K = 18 */
(PID.TID 0000.0001)                -5.400000000000000E+02,      /* K = 19 */
(PID.TID 0000.0001)                -5.700000000000000E+02,      /* K = 20 */
(PID.TID 0000.0001)                -6.000000000000000E+02,      /* K = 21 */
(PID.TID 0000.0001)                -6.300000000000000E+02,      /* K = 22 */
(PID.TID 0000.0001)                -6.600000000000000E+02,      /* K = 23 */
(PID.TID 0000.0001)                -6.900000000000000E+02,      /* K = 24 */
(PID.TID 0000.0001)                -7.200000000000000E+02,      /* K = 25 */
(PID.TID 0000.0001)                -7.500000000000000E+02,      /* K = 26 */
(PID.TID 0000.0001)                -7.800000000000000E+02,      /* K = 27 */
(PID.TID 0000.0001)                -8.100000000000000E+02,      /* K = 28 */
(PID.TID 0000.0001)                -8.400000000000000E+02,      /* K = 29 */
(PID.TID 0000.0001)                -8.700000000000000E+02,      /* K = 30 */
(PID.TID 0000.0001)                -9.000000000000000E+02       /* K = 31 */
(PID.TID 0000.0001)     ;
(PID.TID 0000.0001) deepFacC = /* deep-model grid factor @ cell-Center (-) */
(PID.TID 0000.0001)    30 @  1.000000000000000E+00              /* K =  1: 30 */
(PID.TID 0000.0001)     ;
(PID.TID 0000.0001) deepFacF = /* deep-model grid factor @ W-Interface (-) */
(PID.TID 0000.0001)    31 @  1.000000000000000E+00              /* K =  1: 31 */
(PID.TID 0000.0001)     ;
(PID.TID 0000.0001) rotateGrid = /* use rotated grid ( True/False ) */
(PID.TID 0000.0001)                   F
(PID.TID 0000.0001)     ;
(PID.TID 0000.0001) phiEuler = /* Euler angle, rotation about original z-coordinate [rad] */
(PID.TID 0000.0001)                 0.000000000000000E+00
(PID.TID 0000.0001)     ;
(PID.TID 0000.0001) thetaEuler = /* Euler angle, rotation about new x-coordinate [rad] */
(PID.TID 0000.0001)                 0.000000000000000E+00
(PID.TID 0000.0001)     ;
(PID.TID 0000.0001) psiEuler = /* Euler angle, rotation about new z-coordinate [rad] */
(PID.TID 0000.0001)                 0.000000000000000E+00
(PID.TID 0000.0001)     ;
(PID.TID 0000.0001) dxF =  /* dxF(:,1,:,1) ( units: m ) */
(PID.TID 0000.0001)    50 @  5.820391490558872E+03              /* I =  1: 50 */
(PID.TID 0000.0001)     ;
(PID.TID 0000.0001) dxF =  /* dxF(1,:,1,:) ( units: m ) */
(PID.TID 0000.0001)                 5.820391490558872E+03,      /* J =  1 */
(PID.TID 0000.0001)                 5.877701765291692E+03,      /* J =  2 */
(PID.TID 0000.0001)                 5.934994135525598E+03,      /* J =  3 */
(PID.TID 0000.0001)      . . .
(PID.TID 0000.0001)                 7.076813247621209E+03,      /* J = 23 */
(PID.TID 0000.0001)                 7.133689397375063E+03,      /* J = 24 */
(PID.TID 0000.0001)                 7.190543816673855E+03,      /* J = 25 */
(PID.TID 0000.0001)                 7.247376332329164E+03,      /* J = 26 */
(PID.TID 0000.0001)                 7.304186771219292E+03,      /* J = 27 */
(PID.TID 0000.0001)                 7.360974960289787E+03,      /* J = 28 */
(PID.TID 0000.0001)      . . .
(PID.TID 0000.0001)                 8.491800393599013E+03,      /* J = 48 */
(PID.TID 0000.0001)                 8.548081485571185E+03,      /* J = 49 */
(PID.TID 0000.0001)                 8.604336538604706E+03,      /* J = 50 */
(PID.TID 0000.0001)                 8.660565381336924E+03,      /* J = 51 */
(PID.TID 0000.0001)                 8.716767842485036E+03,      /* J = 52 */
(PID.TID 0000.0001)                 8.772943750846600E+03,      /* J = 53 */
(PID.TID 0000.0001)      . . .
(PID.TID 0000.0001)                 9.890622914885218E+03,      /* J = 73 */
(PID.TID 0000.0001)                 9.946201814818334E+03,      /* J = 74 */
(PID.TID 0000.0001)                 1.000175041689580E+04,      /* J = 75 */
(PID.TID 0000.0001)                 1.005726855190695E+04,      /* J = 76 */
(PID.TID 0000.0001)                 1.011275605073392E+04,      /* J = 77 */
(PID.TID 0000.0001)                 1.016821274435215E+04,      /* J = 78 */
(PID.TID 0000.0001)      . . .
(PID.TID 0000.0001)                 1.127061807330668E+04,      /* J = 98 */
(PID.TID 0000.0001)                 1.132538898360582E+04,      /* J = 99 */
(PID.TID 0000.0001)                 1.138012539480601E+04       /* J =100 */
(PID.TID 0000.0001)     ;
(PID.TID 0000.0001) dyF =  /* dyF(:,1,:,1) ( units: m ) */
(PID.TID 0000.0001)    50 @  1.111774733520388E+04              /* I =  1: 50 */
(PID.TID 0000.0001)     ;
(PID.TID 0000.0001) dyF =  /* dyF(1,:,1,:) ( units: m ) */
(PID.TID 0000.0001)   100 @  1.111774733520388E+04              /* J =  1:100 */
(PID.TID 0000.0001)     ;
(PID.TID 0000.0001) dxG =  /* dxG(:,1,:,1) ( units: m ) */
(PID.TID 0000.0001)    50 @  5.791729693558576E+03              /* I =  1: 50 */
(PID.TID 0000.0001)     ;
(PID.TID 0000.0001) dxG =  /* dxG(1,:,1,:) ( units: m ) */
(PID.TID 0000.0001)                 5.791729693558576E+03,      /* J =  1 */
(PID.TID 0000.0001)                 5.849048855077854E+03,      /* J =  2 */
(PID.TID 0000.0001)                 5.906350199379949E+03,      /* J =  3 */
(PID.TID 0000.0001)      . . .
(PID.TID 0000.0001)                 7.048367077963129E+03,      /* J = 23 */
(PID.TID 0000.0001)                 7.105254027978149E+03,      /* J = 24 */
(PID.TID 0000.0001)                 7.162119334157175E+03,      /* J = 25 */
(PID.TID 0000.0001)                 7.218962823278620E+03,      /* J = 26 */
(PID.TID 0000.0001)                 7.275784322187360E+03,      /* J = 27 */
(PID.TID 0000.0001)                 7.332583657795253E+03,      /* J = 28 */
(PID.TID 0000.0001)      . . .
(PID.TID 0000.0001)                 8.463650136583461E+03,      /* J = 48 */
(PID.TID 0000.0001)                 8.519944183739159E+03,      /* J = 49 */
(PID.TID 0000.0001)                 8.576212277667308E+03,      /* J = 50 */
(PID.TID 0000.0001)                 8.632454246965530E+03,      /* J = 51 */
(PID.TID 0000.0001)                 8.688669920311038E+03,      /* J = 52 */
(PID.TID 0000.0001)                 8.744859126461139E+03,      /* J = 53 */
(PID.TID 0000.0001)      . . .
(PID.TID 0000.0001)                 9.862822156126382E+03,      /* J = 73 */
(PID.TID 0000.0001)                 9.918416141504455E+03,      /* J = 74 */
(PID.TID 0000.0001)                 9.973979913666863E+03,      /* J = 75 */
(PID.TID 0000.0001)                 1.002951330335672E+04,      /* J = 76 */
(PID.TID 0000.0001)                 1.008501614140969E+04,      /* J = 77 */
(PID.TID 0000.0001)                 1.014048825875450E+04,      /* J = 78 */
(PID.TID 0000.0001)      . . .
(PID.TID 0000.0001)                 1.124321973312895E+04,      /* J = 98 */
(PID.TID 0000.0001)                 1.129800783041847E+04,      /* J = 99 */
(PID.TID 0000.0001)                 1.135276151201679E+04       /* J =100 */
(PID.TID 0000.0001)     ;
(PID.TID 0000.0001) dyG =  /* dyG(:,1,:,1) ( units: m ) */
(PID.TID 0000.0001)    50 @  1.111774733520388E+04              /* I =  1: 50 */
(PID.TID 0000.0001)     ;
(PID.TID 0000.0001) dyG =  /* dyG(1,:,1,:) ( units: m ) */
(PID.TID 0000.0001)   100 @  1.111774733520388E+04              /* J =  1:100 */
(PID.TID 0000.0001)     ;
(PID.TID 0000.0001) dxC =  /* dxC(:,1,:,1) ( units: m ) */
(PID.TID 0000.0001)    50 @  5.820391490558872E+03              /* I =  1: 50 */
(PID.TID 0000.0001)     ;
(PID.TID 0000.0001) dxC =  /* dxC(1,:,1,:) ( units: m ) */
(PID.TID 0000.0001)                 5.820391490558872E+03,      /* J =  1 */
(PID.TID 0000.0001)                 5.877701765291692E+03,      /* J =  2 */
(PID.TID 0000.0001)                 5.934994135525598E+03,      /* J =  3 */
(PID.TID 0000.0001)      . . .
(PID.TID 0000.0001)                 7.076813247621209E+03,      /* J = 23 */
(PID.TID 0000.0001)                 7.133689397375063E+03,      /* J = 24 */
(PID.TID 0000.0001)                 7.190543816673855E+03,      /* J = 25 */
(PID.TID 0000.0001)                 7.247376332329164E+03,      /* J = 26 */
(PID.TID 0000.0001)                 7.304186771219292E+03,      /* J = 27 */
(PID.TID 0000.0001)                 7.360974960289787E+03,      /* J = 28 */
(PID.TID 0000.0001)      . . .
(PID.TID 0000.0001)                 8.491800393599013E+03,      /* J = 48 */
(PID.TID 0000.0001)                 8.548081485571185E+03,      /* J = 49 */
(PID.TID 0000.0001)                 8.604336538604706E+03,      /* J = 50 */
(PID.TID 0000.0001)                 8.660565381336924E+03,      /* J = 51 */
(PID.TID 0000.0001)                 8.716767842485036E+03,      /* J = 52 */
(PID.TID 0000.0001)                 8.772943750846600E+03,      /* J = 53 */
(PID.TID 0000.0001)      . . .
(PID.TID 0000.0001)                 9.890622914885218E+03,      /* J = 73 */
(PID.TID 0000.0001)                 9.946201814818334E+03,      /* J = 74 */
(PID.TID 0000.0001)                 1.000175041689580E+04,      /* J = 75 */
(PID.TID 0000.0001)                 1.005726855190695E+04,      /* J = 76 */
(PID.TID 0000.0001)                 1.011275605073392E+04,      /* J = 77 */
(PID.TID 0000.0001)                 1.016821274435215E+04,      /* J = 78 */
(PID.TID 0000.0001)      . . .
(PID.TID 0000.0001)                 1.127061807330668E+04,      /* J = 98 */
(PID.TID 0000.0001)                 1.132538898360582E+04,      /* J = 99 */
(PID.TID 0000.0001)                 1.138012539480601E+04       /* J =100 */
(PID.TID 0000.0001)     ;
(PID.TID 0000.0001) dyC =  /* dyC(:,1,:,1) ( units: m ) */
(PID.TID 0000.0001)    50 @  1.111774733520388E+04              /* I =  1: 50 */
(PID.TID 0000.0001)     ;
(PID.TID 0000.0001) dyC =  /* dyC(1,:,1,:) ( units: m ) */
(PID.TID 0000.0001)   100 @  1.111774733520388E+04              /* J =  1:100 */
(PID.TID 0000.0001)     ;
(PID.TID 0000.0001) dxV =  /* dxV(:,1,:,1) ( units: m ) */
(PID.TID 0000.0001)    50 @  5.791729693558576E+03              /* I =  1: 50 */
(PID.TID 0000.0001)     ;
(PID.TID 0000.0001) dxV =  /* dxV(1,:,1,:) ( units: m ) */
(PID.TID 0000.0001)                 5.791729693558576E+03,      /* J =  1 */
(PID.TID 0000.0001)                 5.849048855077854E+03,      /* J =  2 */
(PID.TID 0000.0001)                 5.906350199379949E+03,      /* J =  3 */
(PID.TID 0000.0001)      . . .
(PID.TID 0000.0001)                 7.048367077963129E+03,      /* J = 23 */
(PID.TID 0000.0001)                 7.105254027978149E+03,      /* J = 24 */
(PID.TID 0000.0001)                 7.162119334157175E+03,      /* J = 25 */
(PID.TID 0000.0001)                 7.218962823278620E+03,      /* J = 26 */
(PID.TID 0000.0001)                 7.275784322187360E+03,      /* J = 27 */
(PID.TID 0000.0001)                 7.332583657795253E+03,      /* J = 28 */
(PID.TID 0000.0001)      . . .
(PID.TID 0000.0001)                 8.463650136583461E+03,      /* J = 48 */
(PID.TID 0000.0001)                 8.519944183739159E+03,      /* J = 49 */
(PID.TID 0000.0001)                 8.576212277667308E+03,      /* J = 50 */
(PID.TID 0000.0001)                 8.632454246965530E+03,      /* J = 51 */
(PID.TID 0000.0001)                 8.688669920311038E+03,      /* J = 52 */
(PID.TID 0000.0001)                 8.744859126461139E+03,      /* J = 53 */
(PID.TID 0000.0001)      . . .
(PID.TID 0000.0001)                 9.862822156126382E+03,      /* J = 73 */
(PID.TID 0000.0001)                 9.918416141504455E+03,      /* J = 74 */
(PID.TID 0000.0001)                 9.973979913666863E+03,      /* J = 75 */
(PID.TID 0000.0001)                 1.002951330335672E+04,      /* J = 76 */
(PID.TID 0000.0001)                 1.008501614140969E+04,      /* J = 77 */
(PID.TID 0000.0001)                 1.014048825875450E+04,      /* J = 78 */
(PID.TID 0000.0001)      . . .
(PID.TID 0000.0001)                 1.124321973312895E+04,      /* J = 98 */
(PID.TID 0000.0001)                 1.129800783041847E+04,      /* J = 99 */
(PID.TID 0000.0001)                 1.135276151201679E+04       /* J =100 */
(PID.TID 0000.0001)     ;
(PID.TID 0000.0001) dyU =  /* dyU(:,1,:,1) ( units: m ) */
(PID.TID 0000.0001)    50 @  1.111774733520388E+04              /* I =  1: 50 */
(PID.TID 0000.0001)     ;
(PID.TID 0000.0001) dyU =  /* dyU(1,:,1,:) ( units: m ) */
(PID.TID 0000.0001)   100 @  1.111774733520388E+04              /* J =  1:100 */
(PID.TID 0000.0001)     ;
(PID.TID 0000.0001) rA  =  /* rA (:,1,:,1) ( units: m^2 ) */
(PID.TID 0000.0001)    50 @  6.470963377080289E+07              /* I =  1: 50 */
(PID.TID 0000.0001)     ;
(PID.TID 0000.0001) rA  =  /* rA (1,:,1,:) ( units: m^2 ) */
(PID.TID 0000.0001)                 6.470963377080289E+07,      /* J =  1 */
(PID.TID 0000.0001)                 6.534679484410104E+07,      /* J =  2 */
(PID.TID 0000.0001)                 6.598375685977945E+07,      /* J =  3 */
(PID.TID 0000.0001)      . . .
(PID.TID 0000.0001)                 7.867821163932665E+07,      /* J = 23 */
(PID.TID 0000.0001)                 7.931054622142966E+07,      /* J = 24 */
(PID.TID 0000.0001)                 7.994263920984067E+07,      /* J = 25 */
(PID.TID 0000.0001)                 8.057448867913349E+07,      /* J = 26 */
(PID.TID 0000.0001)                 8.120609270456599E+07,      /* J = 27 */
(PID.TID 0000.0001)                 8.183744936212724E+07,      /* J = 28 */
(PID.TID 0000.0001)      . . .
(PID.TID 0000.0001)                 9.440967921416211E+07,      /* J = 48 */
(PID.TID 0000.0001)                 9.503539809503193E+07,      /* J = 49 */
(PID.TID 0000.0001)                 9.566082748163140E+07,      /* J = 50 */
(PID.TID 0000.0001)                 9.628596546870193E+07,      /* J = 51 */
(PID.TID 0000.0001)                 9.691081015209354E+07,      /* J = 52 */
(PID.TID 0000.0001)                 9.753535962826957E+07,      /* J = 53 */
(PID.TID 0000.0001)      . . .
(PID.TID 0000.0001)                 1.099614325987181E+08,      /* J = 73 */
(PID.TID 0000.0001)                 1.105793446869293E+08,      /* J = 74 */
(PID.TID 0000.0001)                 1.111969199312560E+08,      /* J = 75 */
(PID.TID 0000.0001)                 1.118141564504991E+08,      /* J = 76 */
(PID.TID 0000.0001)                 1.124310523644033E+08,      /* J = 77 */
(PID.TID 0000.0001)                 1.130476057938687E+08,      /* J = 78 */
(PID.TID 0000.0001)      . . .
(PID.TID 0000.0001)                 1.253038681465364E+08,      /* J = 98 */
(PID.TID 0000.0001)                 1.259127972112936E+08,      /* J = 99 */
(PID.TID 0000.0001)                 1.265213427237870E+08       /* J =100 */
(PID.TID 0000.0001)     ;
(PID.TID 0000.0001) rAw =  /* rAw(:,1,:,1) ( units: m^2 ) */
(PID.TID 0000.0001)    50 @  6.470963377080289E+07              /* I =  1: 50 */
(PID.TID 0000.0001)     ;
(PID.TID 0000.0001) rAw =  /* rAw(1,:,1,:) ( units: m^2 ) */
(PID.TID 0000.0001)                 6.470963377080289E+07,      /* J =  1 */
(PID.TID 0000.0001)                 6.534679484410104E+07,      /* J =  2 */
(PID.TID 0000.0001)                 6.598375685977945E+07,      /* J =  3 */
(PID.TID 0000.0001)      . . .
(PID.TID 0000.0001)                 7.867821163932665E+07,      /* J = 23 */
(PID.TID 0000.0001)                 7.931054622142966E+07,      /* J = 24 */
(PID.TID 0000.0001)                 7.994263920984067E+07,      /* J = 25 */
(PID.TID 0000.0001)                 8.057448867913349E+07,      /* J = 26 */
(PID.TID 0000.0001)                 8.120609270456599E+07,      /* J = 27 */
(PID.TID 0000.0001)                 8.183744936212724E+07,      /* J = 28 */
(PID.TID 0000.0001)      . . .
(PID.TID 0000.0001)                 9.440967921416211E+07,      /* J = 48 */
(PID.TID 0000.0001)                 9.503539809503193E+07,      /* J = 49 */
(PID.TID 0000.0001)                 9.566082748163140E+07,      /* J = 50 */
(PID.TID 0000.0001)                 9.628596546870193E+07,      /* J = 51 */
(PID.TID 0000.0001)                 9.691081015209354E+07,      /* J = 52 */
(PID.TID 0000.0001)                 9.753535962826957E+07,      /* J = 53 */
(PID.TID 0000.0001)      . . .
(PID.TID 0000.0001)                 1.099614325987181E+08,      /* J = 73 */
(PID.TID 0000.0001)                 1.105793446869293E+08,      /* J = 74 */
(PID.TID 0000.0001)                 1.111969199312560E+08,      /* J = 75 */
(PID.TID 0000.0001)                 1.118141564504991E+08,      /* J = 76 */
(PID.TID 0000.0001)                 1.124310523644033E+08,      /* J = 77 */
(PID.TID 0000.0001)                 1.130476057938687E+08,      /* J = 78 */
(PID.TID 0000.0001)      . . .
(PID.TID 0000.0001)                 1.253038681465364E+08,      /* J = 98 */
(PID.TID 0000.0001)                 1.259127972112936E+08,      /* J = 99 */
(PID.TID 0000.0001)                 1.265213427237870E+08       /* J =100 */
(PID.TID 0000.0001)     ;
(PID.TID 0000.0001) rAs =  /* rAs(:,1,:,1) ( units: m^2 ) */
(PID.TID 0000.0001)    50 @  6.439097919401864E+07              /* I =  1: 50 */
(PID.TID 0000.0001)     ;
(PID.TID 0000.0001) rAs =  /* rAs(1,:,1,:) ( units: m^2 ) */
(PID.TID 0000.0001)                 6.439097919401864E+07,      /* J =  1 */
(PID.TID 0000.0001)                 6.502823906837179E+07,      /* J =  2 */
(PID.TID 0000.0001)                 6.566530085543716E+07,      /* J =  3 */
(PID.TID 0000.0001)      . . .
(PID.TID 0000.0001)                 7.836195435256335E+07,      /* J = 23 */
(PID.TID 0000.0001)                 7.899440900921808E+07,      /* J = 24 */
(PID.TID 0000.0001)                 7.962662303520055E+07,      /* J = 25 */
(PID.TID 0000.0001)                 8.025859450470714E+07,      /* J = 26 */
(PID.TID 0000.0001)                 8.089032149259475E+07,      /* J = 27 */
(PID.TID 0000.0001)                 8.152180207452223E+07,      /* J = 28 */
(PID.TID 0000.0001)      . . .
(PID.TID 0000.0001)                 9.409671180895932E+07,      /* J = 48 */
(PID.TID 0000.0001)                 9.472257472228888E+07,      /* J = 49 */
(PID.TID 0000.0001)                 9.534814909420149E+07,      /* J = 50 */
(PID.TID 0000.0001)                 9.597343301913190E+07,      /* J = 51 */
(PID.TID 0000.0001)                 9.659842459236403E+07,      /* J = 52 */
(PID.TID 0000.0001)                 9.722312190998378E+07,      /* J = 53 */
(PID.TID 0000.0001)      . . .
(PID.TID 0000.0001)                 1.096523508263446E+08,      /* J = 73 */
(PID.TID 0000.0001)                 1.102704306306916E+08,      /* J = 74 */
(PID.TID 0000.0001)                 1.108881745321664E+08,      /* J = 75 */
(PID.TID 0000.0001)                 1.115055806490511E+08,      /* J = 76 */
(PID.TID 0000.0001)                 1.121226471005947E+08,      /* J = 77 */
(PID.TID 0000.0001)                 1.127393720071080E+08,      /* J = 78 */
(PID.TID 0000.0001)      . . .
(PID.TID 0000.0001)                 1.249992603617116E+08,      /* J = 98 */
(PID.TID 0000.0001)                 1.256083805070198E+08,      /* J = 99 */
(PID.TID 0000.0001)                 1.262171180274426E+08       /* J =100 */
(PID.TID 0000.0001)     ;
(PID.TID 0000.0001) globalArea = /* Integrated horizontal Area (m^2) */
(PID.TID 0000.0001)                 4.665024516720074E+11
(PID.TID 0000.0001)     ;
(PID.TID 0000.0001) // =======================================================
(PID.TID 0000.0001) // End of Model config. summary
(PID.TID 0000.0001) // =======================================================
(PID.TID 0000.0001) 
(PID.TID 0000.0001) == Packages configuration : Check & print summary ==
(PID.TID 0000.0001) 
(PID.TID 0000.0001) SHELFICE_CHECK: #define ALLOW_SHELFICE
(PID.TID 0000.0001) 
(PID.TID 0000.0001) SHELFICE_CHECK: start of SHELFICE config. summary
(PID.TID 0000.0001) SHELFICEisOn = /* package is turned on */
(PID.TID 0000.0001)                   T
(PID.TID 0000.0001)     ;
(PID.TID 0000.0001) useISOMIPTD = /* use simple isomip thermodynamics */
(PID.TID 0000.0001)                   F
(PID.TID 0000.0001)     ;
(PID.TID 0000.0001) SHELFICEconserve = /* use a conservative form of boundary conditions */
(PID.TID 0000.0001)                   T
(PID.TID 0000.0001)     ;
(PID.TID 0000.0001) SHELFICEboundaryLayer = /* use simple boundary layer scheme to suppress noise */
(PID.TID 0000.0001)                   F
(PID.TID 0000.0001)     ;
(PID.TID 0000.0001) SHELFICEadvDiffHeatFlux = /* use adv.-diff. instead of just diff. heat flux into the ice shelf */
(PID.TID 0000.0001)                   T
(PID.TID 0000.0001)     ;
(PID.TID 0000.0001) SHELFICEMassStepping = /* step forward ice shelf mass/thickness */
(PID.TID 0000.0001)                   F
(PID.TID 0000.0001)     ;
(PID.TID 0000.0001) SHI_update_kTopC = /* update "kTopC" as ice shelf expand or retreat */
(PID.TID 0000.0001)                   F
(PID.TID 0000.0001)     ;
(PID.TID 0000.0001) no_slip_shelfice = /* use no slip boundary conditions */
(PID.TID 0000.0001)                   F
(PID.TID 0000.0001)     ;
(PID.TID 0000.0001) SHELFICEdragLinear    = /* linear drag coefficient */
(PID.TID 0000.0001)                 0.000000000000000E+00
(PID.TID 0000.0001)     ;
(PID.TID 0000.0001) SHELFICEdragQuadratic = /* quadratic drag coefficient */
(PID.TID 0000.0001)                 2.500000000000000E-03
(PID.TID 0000.0001)     ;
(PID.TID 0000.0001) SHELFICEselectDragQuadr = /* select quadratic drag option */
(PID.TID 0000.0001)                       0
(PID.TID 0000.0001)     ;
(PID.TID 0000.0001) SHELFICElatentHeat      = /* latent heat of ice */
(PID.TID 0000.0001)                 3.340000000000000E+05
(PID.TID 0000.0001)     ;
(PID.TID 0000.0001) SHELFICEheatCapacity_Cp = /* heat capacity of ice shelf */
(PID.TID 0000.0001)                 2.000000000000000E+03
(PID.TID 0000.0001)     ;
(PID.TID 0000.0001) rhoShelfice   = /* density of ice shelf */
(PID.TID 0000.0001)                 9.170000000000000E+02
(PID.TID 0000.0001)     ;
(PID.TID 0000.0001) SHELFICEkappa = /* thermal conductivity of ice shelf */
(PID.TID 0000.0001)                 0.000000000000000E+00
(PID.TID 0000.0001)     ;
(PID.TID 0000.0001) SHELFICEthetaSurface = /* surface temperature above i.s. */
(PID.TID 0000.0001)                -2.000000000000000E+01
(PID.TID 0000.0001)     ;
(PID.TID 0000.0001) SHELFICEheatTransCoeff = /* heat transfer coefficient */
(PID.TID 0000.0001)                 1.000000000000000E-04
(PID.TID 0000.0001)     ;
(PID.TID 0000.0001) SHELFICEsaltTransCoeff = /* salt transfer coefficient */
(PID.TID 0000.0001)                 5.050000000000000E-07
(PID.TID 0000.0001)     ;
(PID.TID 0000.0001) SHELFICEuseGammaFrict = /* use velocity dependent exchange coefficients */
(PID.TID 0000.0001)                   F
(PID.TID 0000.0001)     ;
(PID.TID 0000.0001) SHELFICEremeshFrequency = /* Frequency (in s) of Remeshing */
(PID.TID 0000.0001)                 0.000000000000000E+00
(PID.TID 0000.0001)     ;
(PID.TID 0000.0001) SHELFICEloadAnomalyFile = /* file name of loaded loadAnomaly field */
(PID.TID 0000.0001)               'phi0surf.exp1.jmd95z'
(PID.TID 0000.0001)     ;
(PID.TID 0000.0001) SHELFICEmassFile = /* file name of loaded mass field */
(PID.TID 0000.0001)               ''
(PID.TID 0000.0001)     ;
(PID.TID 0000.0001) SHELFICEtopoFile = /* file name of loaded under-ice topography */
(PID.TID 0000.0001)               'icetopo.exp1'
(PID.TID 0000.0001)     ;
(PID.TID 0000.0001) SHELFICEMassDynTendFile = /* file name of loaded dynamic mass tendency field */
(PID.TID 0000.0001)               ''
(PID.TID 0000.0001)     ;
(PID.TID 0000.0001) SHELFICEwriteState  = /* do simple standard output */
(PID.TID 0000.0001)                   T
(PID.TID 0000.0001)     ;
(PID.TID 0000.0001) SHELFICE_dump_mdsio = /* use mdsio for snapshots */
(PID.TID 0000.0001)                   T
(PID.TID 0000.0001)     ;
(PID.TID 0000.0001) SHELFICE_tave_mdsio = /* use mdsio for time averages */
(PID.TID 0000.0001)                   T
(PID.TID 0000.0001)     ;
(PID.TID 0000.0001) SHELFICE_dump_mnc   = /* use netcdf for snapshots */
(PID.TID 0000.0001)                   F
(PID.TID 0000.0001)     ;
(PID.TID 0000.0001) SHELFICE_tave_mnc   = /* use netcdf for time averages */
(PID.TID 0000.0001)                   F
(PID.TID 0000.0001)     ;
(PID.TID 0000.0001) SHELFICE_dumpFreq = /* analoguous to dumpFreq */
(PID.TID 0000.0001)                 0.000000000000000E+00
(PID.TID 0000.0001)     ;
(PID.TID 0000.0001) SHELFICE_taveFreq = /* analoguous to taveFreq */
(PID.TID 0000.0001)                 0.000000000000000E+00
(PID.TID 0000.0001)     ;
(PID.TID 0000.0001) SHELFICE_CHECK: end of SHELFICE config. summary
(PID.TID 0000.0001) STIC_CHECK: #define STEEP_ICECAVITY
(PID.TID 0000.0001) STIClengthFile = /* file name of ice front lengths */
(PID.TID 0000.0001)               ''
(PID.TID 0000.0001)     ;
(PID.TID 0000.0001) STICdepthFile = /* file name of ice front depths */
(PID.TID 0000.0001)               'icetopo.exp1'
(PID.TID 0000.0001)     ;
(PID.TID 0000.0001) GAD_CHECK: #define ALLOW_GENERIC_ADVDIFF
(PID.TID 0000.0001) // =======================================================
(PID.TID 0000.0001) // Check Model config. (CONFIG_CHECK):
(PID.TID 0000.0001) // CONFIG_CHECK : Normal End
(PID.TID 0000.0001) // =======================================================
(PID.TID 0000.0001) 
(PID.TID 0000.0001) Start initial hydrostatic pressure computation
(PID.TID 0000.0001) Pressure is predetermined for buoyancyRelation OCEANIC
(PID.TID 0000.0001) 
(PID.TID 0000.0001)  write diagnostics summary to file ioUnit:      6
Iter.Nb:         0 ; Time(s):  0.0000000000000E+00
------------------------------------------------------------------------
2D/3D diagnostics: Number of lists:     3
------------------------------------------------------------------------
listId=    1 ; file name: dynDiag
 nFlds, nActive,       freq     &     phase        , nLev               
    9  |    9  |   5184000.000000         0.000000 |  30
 levels:   1   2   3   4   5   6   7   8   9  10  11  12  13  14  15  16  17  18  19  20  21  22  23  24  25
 levels:  26  27  28  29  30
 diag# | name   |   ipt  |  iMate | kLev|   count |   mate.C|           
    30 |UVEL    |      1 |     31 |  30 |       0 |       0 |
    31 |VVEL    |     31 |      1 |  30 |       0 |       0 |
    32 |WVEL    |     61 |      0 |  30 |       0 |
    71 |PHIHYD  |     91 |      0 |  30 |       0 |
    46 |VVELMASS|    121 |    151 |  30 |       0 |       0 |
    45 |UVELMASS|    151 |    121 |  30 |       0 |       0 |
    38 |WVELSQ  |    181 |      0 |  30 |       0 |
    26 |THETA   |    211 |      0 |  30 |       0 |
    27 |SALT    |    241 |      0 |  30 |       0 |
------------------------------------------------------------------------
listId=    2 ; file name: sticDiag3D
 nFlds, nActive,       freq     &     phase        , nLev               
    6  |    6  |   1728000.000000         0.000000 |  30
 levels:   1   2   3   4   5   6   7   8   9  10  11  12  13  14  15  16  17  18  19  20  21  22  23  24  25
 levels:  26  27  28  29  30
 diag# | name   |   ipt  |  iMate | kLev|   count |   mate.C|           
   207 |SHIgam3T|    271 |      0 |  30 |       0 |
   208 |SHIgam3S|    301 |      0 |  30 |       0 |
   211 |STCfwFlx|    331 |      0 |  30 |       0 |
   212 |STChtFlx|    361 |      0 |  30 |       0 |
   213 |STCForcT|    391 |      0 |  30 |       0 |
   214 |STCForcS|    421 |      0 |  30 |       0 |
------------------------------------------------------------------------
listId=    3 ; file name: sticDiag2D
 nFlds, nActive,       freq     &     phase        , nLev               
    2  |    2  |   1728000.000000         0.000000 |   1
 levels:   1
 diag# | name   |   ipt  |  iMate | kLev|   count |   mate.C|           
   209 |SHIICFfw|    451 |      0 |   1 |       0 |
   210 |SHIICFht|    452 |      0 |   1 |       0 |
------------------------------------------------------------------------
Global & Regional Statistics diagnostics: Number of lists:     1
------------------------------------------------------------------------
listId=   1 ; file name: dynStDiag
 nFlds, nActive,       freq     &     phase        |                    
    6  |    6  |     86400.000000         0.000000 |
 Regions:   0
 diag# | name   |   ipt  |  iMate |    Volume   |   mate-Vol. |         
    23 |ETAN    |      1 |      0 | 0.00000E+00 |
    30 |UVEL    |      2 |      0 | 0.00000E+00 |
    31 |VVEL    |     32 |      0 | 0.00000E+00 |
    32 |WVEL    |     62 |      0 | 0.00000E+00 |
    26 |THETA   |     92 |      0 | 0.00000E+00 |
    27 |SALT    |    122 |      0 | 0.00000E+00 |
------------------------------------------------------------------------
(PID.TID 0000.0001) // =======================================================
(PID.TID 0000.0001) // Model current state
(PID.TID 0000.0001) // =======================================================
(PID.TID 0000.0001) 
(PID.TID 0000.0001) // =======================================================
(PID.TID 0000.0001) // Begin MONITOR dynamic field statistics
(PID.TID 0000.0001) // =======================================================
(PID.TID 0000.0001) %MON time_tsnumber                =                     0
(PID.TID 0000.0001) %MON time_secondsf                =   0.0000000000000E+00
(PID.TID 0000.0001) %MON dynstat_eta_max              =   0.0000000000000E+00
(PID.TID 0000.0001) %MON dynstat_eta_min              =   0.0000000000000E+00
(PID.TID 0000.0001) %MON dynstat_eta_mean             =   0.0000000000000E+00
(PID.TID 0000.0001) %MON dynstat_eta_sd               =   0.0000000000000E+00
(PID.TID 0000.0001) %MON dynstat_eta_del2             =   0.0000000000000E+00
(PID.TID 0000.0001) %MON dynstat_uvel_max             =   0.0000000000000E+00
(PID.TID 0000.0001) %MON dynstat_uvel_min             =   0.0000000000000E+00
(PID.TID 0000.0001) %MON dynstat_uvel_mean            =   0.0000000000000E+00
(PID.TID 0000.0001) %MON dynstat_uvel_sd              =   0.0000000000000E+00
(PID.TID 0000.0001) %MON dynstat_uvel_del2            =   0.0000000000000E+00
(PID.TID 0000.0001) %MON dynstat_vvel_max             =   0.0000000000000E+00
(PID.TID 0000.0001) %MON dynstat_vvel_min             =   0.0000000000000E+00
(PID.TID 0000.0001) %MON dynstat_vvel_mean            =   0.0000000000000E+00
(PID.TID 0000.0001) %MON dynstat_vvel_sd              =   0.0000000000000E+00
(PID.TID 0000.0001) %MON dynstat_vvel_del2            =   0.0000000000000E+00
(PID.TID 0000.0001) %MON dynstat_wvel_max             =  -0.0000000000000E+00
(PID.TID 0000.0001) %MON dynstat_wvel_min             =  -0.0000000000000E+00
(PID.TID 0000.0001) %MON dynstat_wvel_mean            =   0.0000000000000E+00
(PID.TID 0000.0001) %MON dynstat_wvel_sd              =   0.0000000000000E+00
(PID.TID 0000.0001) %MON dynstat_wvel_del2            =   0.0000000000000E+00
(PID.TID 0000.0001) %MON dynstat_theta_max            =  -1.9000000000000E+00
(PID.TID 0000.0001) %MON dynstat_theta_min            =  -1.9000000000000E+00
(PID.TID 0000.0001) %MON dynstat_theta_mean           =  -1.9000000000001E+00
(PID.TID 0000.0001) %MON dynstat_theta_sd             =   8.1268325402562E-14
(PID.TID 0000.0001) %MON dynstat_theta_del2           =   0.0000000000000E+00
(PID.TID 0000.0001) %MON dynstat_salt_max             =   3.4400000000000E+01
(PID.TID 0000.0001) %MON dynstat_salt_min             =   3.4400000000000E+01
(PID.TID 0000.0001) %MON dynstat_salt_mean            =   3.4400000000001E+01
(PID.TID 0000.0001) %MON dynstat_salt_sd              =   7.3185901783291E-13
(PID.TID 0000.0001) %MON dynstat_salt_del2            =   0.0000000000000E+00
(PID.TID 0000.0001) %MON trAdv_CFL_u_max              =   0.0000000000000E+00
(PID.TID 0000.0001) %MON trAdv_CFL_v_max              =   0.0000000000000E+00
(PID.TID 0000.0001) %MON trAdv_CFL_w_max              =   0.0000000000000E+00
(PID.TID 0000.0001) %MON advcfl_uvel_max              =   0.0000000000000E+00
(PID.TID 0000.0001) %MON advcfl_vvel_max              =   0.0000000000000E+00
(PID.TID 0000.0001) %MON advcfl_wvel_max              =   0.0000000000000E+00
(PID.TID 0000.0001) %MON advcfl_W_hf_max              =   0.0000000000000E+00
(PID.TID 0000.0001) %MON pe_b_mean                    =   0.0000000000000E+00
(PID.TID 0000.0001) %MON ke_max                       =   0.0000000000000E+00
(PID.TID 0000.0001) %MON ke_mean                      =   0.0000000000000E+00
(PID.TID 0000.0001) %MON ke_vol                       =   2.9241705273105E+14
(PID.TID 0000.0001) %MON vort_r_min                   =   0.0000000000000E+00
(PID.TID 0000.0001) %MON vort_r_max                   =   0.0000000000000E+00
(PID.TID 0000.0001) %MON vort_a_mean                  =  -1.4007437277914E-04
(PID.TID 0000.0001) %MON vort_a_sd                    =   1.7682771475900E-06
(PID.TID 0000.0001) %MON vort_p_mean                  =  -1.5039772194953E-04
(PID.TID 0000.0001) %MON vort_p_sd                    =   8.7081213929730E-05
(PID.TID 0000.0001) %MON surfExpan_theta_mean         =   0.0000000000000E+00
(PID.TID 0000.0001) %MON surfExpan_salt_mean          =   0.0000000000000E+00
(PID.TID 0000.0001) // =======================================================
(PID.TID 0000.0001) // End MONITOR dynamic field statistics
(PID.TID 0000.0001) // =======================================================
(PID.TID 0000.0001) SOLVE_FOR_PRESSURE: putPmEinXvector =    F
(PID.TID 0000.0001) SOLVE_FOR_PRESSURE: zeroPsNH=    F , zeroMeanPnh=    F
(PID.TID 0000.0001) SOLVE_FOR_PRESSURE: oldFreeSurfTerm =    F
 cg2d: Sum(rhs),rhsMax =   2.04281036531029E-14  2.93733620583064E-13
(PID.TID 0000.0001)      cg2d_init_res =   1.98627929058536E+01
(PID.TID 0000.0001)      cg2d_iters(min,last) =      -1     213
(PID.TID 0000.0001)      cg2d_last_res =   8.51519638357812E-14
(PID.TID 0000.0001) // =======================================================
(PID.TID 0000.0001) // Begin MONITOR dynamic field statistics
(PID.TID 0000.0001) // =======================================================
(PID.TID 0000.0001) %MON time_tsnumber                =                     1
(PID.TID 0000.0001) %MON time_secondsf                =   1.8000000000000E+03
(PID.TID 0000.0001) %MON dynstat_eta_max              =   6.4489366259464E-14
(PID.TID 0000.0001) %MON dynstat_eta_min              =  -3.6172495628181E-14
(PID.TID 0000.0001) %MON dynstat_eta_mean             =  -1.3015005910811E-30
(PID.TID 0000.0001) %MON dynstat_eta_sd               =   1.3932096145382E-14
(PID.TID 0000.0001) %MON dynstat_eta_del2             =   4.4441285693597E-16
(PID.TID 0000.0001) %MON dynstat_uvel_max             =   1.8202127888508E-14
(PID.TID 0000.0001) %MON dynstat_uvel_min             =  -1.0974052134043E-14
(PID.TID 0000.0001) %MON dynstat_uvel_mean            =   8.0982295754563E-17
(PID.TID 0000.0001) %MON dynstat_uvel_sd              =   2.5578230812468E-15
(PID.TID 0000.0001) %MON dynstat_uvel_del2            =   1.7874272229403E-17
(PID.TID 0000.0001) %MON dynstat_vvel_max             =   1.2102977817343E-14
(PID.TID 0000.0001) %MON dynstat_vvel_min             =  -1.5644893150655E-14
(PID.TID 0000.0001) %MON dynstat_vvel_mean            =  -8.6595007985511E-16
(PID.TID 0000.0001) %MON dynstat_vvel_sd              =   1.3541078193367E-15
(PID.TID 0000.0001) %MON dynstat_vvel_del2            =   2.7283604765974E-18
(PID.TID 0000.0001) %MON dynstat_wvel_max             =   4.3644681172139E-17
(PID.TID 0000.0001) %MON dynstat_wvel_min             =  -2.6054641419741E-17
(PID.TID 0000.0001) %MON dynstat_wvel_mean            =  -7.5552037884627E-19
(PID.TID 0000.0001) %MON dynstat_wvel_sd              =   3.9876744935767E-18
(PID.TID 0000.0001) %MON dynstat_wvel_del2            =   2.6636016016166E-20
(PID.TID 0000.0001) %MON dynstat_theta_max            =  -1.9000000000000E+00
(PID.TID 0000.0001) %MON dynstat_theta_min            =  -1.9116244492862E+00
(PID.TID 0000.0001) %MON dynstat_theta_mean           =  -1.9000121615105E+00
(PID.TID 0000.0001) %MON dynstat_theta_sd             =   1.2348437916235E-04
(PID.TID 0000.0001) %MON dynstat_theta_del2           =   9.6706849798354E-07
(PID.TID 0000.0001) %MON dynstat_salt_max             =   3.4400000000000E+01
(PID.TID 0000.0001) %MON dynstat_salt_min             =   3.4395709910002E+01
(PID.TID 0000.0001) %MON dynstat_salt_mean            =   3.4399995510604E+01
(PID.TID 0000.0001) %MON dynstat_salt_sd              =   4.5578551339749E-05
(PID.TID 0000.0001) %MON dynstat_salt_del2            =   3.5693015108738E-07
(PID.TID 0000.0001) %MON trAdv_CFL_u_max              =   0.0000000000000E+00
(PID.TID 0000.0001) %MON trAdv_CFL_v_max              =   0.0000000000000E+00
(PID.TID 0000.0001) %MON trAdv_CFL_w_max              =   0.0000000000000E+00
(PID.TID 0000.0001) %MON advcfl_uvel_max              =   5.3153683900459E-15
(PID.TID 0000.0001) %MON advcfl_vvel_max              =   2.5329598543770E-15
(PID.TID 0000.0001) %MON advcfl_wvel_max              =   2.6186808703283E-15
(PID.TID 0000.0001) %MON advcfl_W_hf_max              =   1.9543340299404E-14
(PID.TID 0000.0001) %MON pe_b_mean                    =  -5.0056638937829E-18
(PID.TID 0000.0001) %MON ke_max                       =   1.6879902920162E-28
(PID.TID 0000.0001) %MON ke_mean                      =   4.4842333696478E-30
(PID.TID 0000.0001) %MON ke_vol                       =   2.9241705273105E+14
(PID.TID 0000.0001) %MON vort_r_min                   =  -2.1928629128559E-18
(PID.TID 0000.0001) %MON vort_r_max                   =   2.5499497430862E-18
(PID.TID 0000.0001) %MON vort_a_mean                  =  -1.4007437277914E-04
(PID.TID 0000.0001) %MON vort_a_sd                    =   1.7682771475769E-06
(PID.TID 0000.0001) %MON vort_p_mean                  =  -1.5039772194954E-04
(PID.TID 0000.0001) %MON vort_p_sd                    =   8.7081213929731E-05
(PID.TID 0000.0001) %MON surfExpan_theta_mean         =  -6.1147043365278E-22
(PID.TID 0000.0001) %MON surfExpan_salt_mean          =  -2.2544273144561E-22
(PID.TID 0000.0001) // =======================================================
(PID.TID 0000.0001) // End MONITOR dynamic field statistics
(PID.TID 0000.0001) // =======================================================
 cg2d: Sum(rhs),rhsMax =  -1.25997838716486E-14  1.27372068801151E-06
(PID.TID 0000.0001)      cg2d_init_res =   8.65520366290387E+00
(PID.TID 0000.0001)      cg2d_iters(min,last) =      -1     216
(PID.TID 0000.0001)      cg2d_last_res =   9.72848345503438E-14
(PID.TID 0000.0001) // =======================================================
(PID.TID 0000.0001) // Begin MONITOR dynamic field statistics
(PID.TID 0000.0001) // =======================================================
(PID.TID 0000.0001) %MON time_tsnumber                =                     2
(PID.TID 0000.0001) %MON time_secondsf                =   3.6000000000000E+03
(PID.TID 0000.0001) %MON dynstat_eta_max              =   1.0024687900090E-06
(PID.TID 0000.0001) %MON dynstat_eta_min              =  -1.4970290886313E-06
(PID.TID 0000.0001) %MON dynstat_eta_mean             =   1.2477460880397E-23
(PID.TID 0000.0001) %MON dynstat_eta_sd               =   2.4538243339169E-07
(PID.TID 0000.0001) %MON dynstat_eta_del2             =   1.0431166943528E-09
(PID.TID 0000.0001) %MON dynstat_uvel_max             =   3.4166845380091E-07
(PID.TID 0000.0001) %MON dynstat_uvel_min             =  -1.3199569580172E-05
(PID.TID 0000.0001) %MON dynstat_uvel_mean            =  -2.6590438937583E-09
(PID.TID 0000.0001) %MON dynstat_uvel_sd              =   2.9706314453406E-07
(PID.TID 0000.0001) %MON dynstat_uvel_del2            =   1.7210801942232E-09
(PID.TID 0000.0001) %MON dynstat_vvel_max             =   9.7769852381693E-05
(PID.TID 0000.0001) %MON dynstat_vvel_min             =  -8.2316142130790E-07
(PID.TID 0000.0001) %MON dynstat_vvel_mean            =  -1.2956439678946E-08
(PID.TID 0000.0001) %MON dynstat_vvel_sd              =   8.4260317992472E-07
(PID.TID 0000.0001) %MON dynstat_vvel_del2            =   9.3371068050782E-09
(PID.TID 0000.0001) %MON dynstat_wvel_max             =   2.0949130273796E-08
(PID.TID 0000.0001) %MON dynstat_wvel_min             =  -3.3054417070689E-08
(PID.TID 0000.0001) %MON dynstat_wvel_mean            =  -7.4281869143206E-12
(PID.TID 0000.0001) %MON dynstat_wvel_sd              =   1.3627210159365E-09
(PID.TID 0000.0001) %MON dynstat_wvel_del2            =   1.5285470926297E-11
(PID.TID 0000.0001) %MON dynstat_theta_max            =  -1.9000000000000E+00
(PID.TID 0000.0001) %MON dynstat_theta_min            =  -1.9226013720578E+00
(PID.TID 0000.0001) %MON dynstat_theta_mean           =  -1.9000242245559E+00
(PID.TID 0000.0001) %MON dynstat_theta_sd             =   2.4414415986038E-04
(PID.TID 0000.0001) %MON dynstat_theta_del2           =   1.8791663458257E-06
(PID.TID 0000.0001) %MON dynstat_salt_max             =   3.4400000000000E+01
(PID.TID 0000.0001) %MON dynstat_salt_min             =   3.4391659096225E+01
(PID.TID 0000.0001) %MON dynstat_salt_mean            =   3.4399991057590E+01
(PID.TID 0000.0001) %MON dynstat_salt_sd              =   9.0113477505775E-05
(PID.TID 0000.0001) %MON dynstat_salt_del2            =   6.9354875923889E-07
(PID.TID 0000.0001) %MON trAdv_CFL_u_max              =   5.3153690646929E-15
(PID.TID 0000.0001) %MON trAdv_CFL_v_max              =   2.5212046536955E-15
(PID.TID 0000.0001) %MON trAdv_CFL_w_max              =   1.9543340299404E-14
(PID.TID 0000.0001) %MON advcfl_uvel_max              =   3.6837201842312E-06
(PID.TID 0000.0001) %MON advcfl_vvel_max              =   1.5829261898208E-05
(PID.TID 0000.0001) %MON advcfl_wvel_max              =   1.9832650242413E-06
(PID.TID 0000.0001) %MON advcfl_W_hf_max              =   1.9222651511923E-05
(PID.TID 0000.0001) %MON pe_b_mean                    =  -1.5254432784182E-10
(PID.TID 0000.0001) %MON ke_max                       =   2.4744411068577E-09
(PID.TID 0000.0001) %MON ke_mean                      =   3.9412546105562E-13
(PID.TID 0000.0001) %MON ke_vol                       =   2.9241705273105E+14
(PID.TID 0000.0001) %MON vort_r_min                   =  -1.5226029636613E-08
(PID.TID 0000.0001) %MON vort_r_max                   =   1.5196226659075E-08
(PID.TID 0000.0001) %MON vort_a_mean                  =  -1.4007437277914E-04
(PID.TID 0000.0001) %MON vort_a_sd                    =   1.7682770755187E-06
(PID.TID 0000.0001) %MON vort_p_mean                  =  -1.5039772194953E-04
(PID.TID 0000.0001) %MON vort_p_sd                    =   8.7081063766745E-05
(PID.TID 0000.0001) %MON surfExpan_theta_mean         =  -7.3184481225076E-14
(PID.TID 0000.0001) %MON surfExpan_salt_mean          =  -2.7012608880920E-14
(PID.TID 0000.0001) // =======================================================
(PID.TID 0000.0001) // End MONITOR dynamic field statistics
(PID.TID 0000.0001) // =======================================================
 cg2d: Sum(rhs),rhsMax =   1.28785870856518E-14  3.52117254239581E-06
(PID.TID 0000.0001)      cg2d_init_res =   4.94622761905828E+00
(PID.TID 0000.0001)      cg2d_iters(min,last) =      -1     215
(PID.TID 0000.0001)      cg2d_last_res =   9.76737310714065E-14
(PID.TID 0000.0001) // =======================================================
(PID.TID 0000.0001) // Begin MONITOR dynamic field statistics
(PID.TID 0000.0001) // =======================================================
(PID.TID 0000.0001) %MON time_tsnumber                =                     3
(PID.TID 0000.0001) %MON time_secondsf                =   5.4000000000000E+03
(PID.TID 0000.0001) %MON dynstat_eta_max              =   2.6035753569378E-06
(PID.TID 0000.0001) %MON dynstat_eta_min              =  -3.3462429723473E-06
(PID.TID 0000.0001) %MON dynstat_eta_mean             =  -6.2387304401985E-23
(PID.TID 0000.0001) %MON dynstat_eta_sd               =   5.9597228882316E-07
(PID.TID 0000.0001) %MON dynstat_eta_del2             =   1.8050326001194E-09
(PID.TID 0000.0001) %MON dynstat_uvel_max             =   1.0812472066481E-06
(PID.TID 0000.0001) %MON dynstat_uvel_min             =  -4.3156190104801E-05
(PID.TID 0000.0001) %MON dynstat_uvel_mean            =  -5.4393738742011E-09
(PID.TID 0000.0001) %MON dynstat_uvel_sd              =   9.9064249193305E-07
(PID.TID 0000.0001) %MON dynstat_uvel_del2            =   5.6396792090028E-09
(PID.TID 0000.0001) %MON dynstat_vvel_max             =   2.2105580128171E-04
(PID.TID 0000.0001) %MON dynstat_vvel_min             =  -2.1760123475550E-06
(PID.TID 0000.0001) %MON dynstat_vvel_mean            =  -3.0040535525415E-08
(PID.TID 0000.0001) %MON dynstat_vvel_sd              =   2.0031794158204E-06
(PID.TID 0000.0001) %MON dynstat_vvel_del2            =   2.0989298320051E-08
(PID.TID 0000.0001) %MON dynstat_wvel_max             =   7.7035387722718E-08
(PID.TID 0000.0001) %MON dynstat_wvel_min             =  -9.8368225729654E-08
(PID.TID 0000.0001) %MON dynstat_wvel_mean            =  -1.4677219252401E-11
(PID.TID 0000.0001) %MON dynstat_wvel_sd              =   3.3985310533972E-09
(PID.TID 0000.0001) %MON dynstat_wvel_del2            =   3.6725562993957E-11
(PID.TID 0000.0001) %MON dynstat_theta_max            =  -1.9000000000000E+00
(PID.TID 0000.0001) %MON dynstat_theta_min            =  -1.9332140947571E+00
(PID.TID 0000.0001) %MON dynstat_theta_mean           =  -1.9000362281949E+00
(PID.TID 0000.0001) %MON dynstat_theta_sd             =   3.6318708442175E-04
(PID.TID 0000.0001) %MON dynstat_theta_del2           =   2.7601818289382E-06
(PID.TID 0000.0001) %MON dynstat_salt_max             =   3.4400000000000E+01
(PID.TID 0000.0001) %MON dynstat_salt_min             =   3.4387742846166E+01
(PID.TID 0000.0001) %MON dynstat_salt_mean            =   3.4399986626525E+01
(PID.TID 0000.0001) %MON dynstat_salt_sd              =   1.3405107051166E-04
(PID.TID 0000.0001) %MON dynstat_salt_del2            =   1.0186837666217E-06
(PID.TID 0000.0001) %MON trAdv_CFL_u_max              =   3.6837206517834E-06
(PID.TID 0000.0001) %MON trAdv_CFL_v_max              =   1.5899993262089E-05
(PID.TID 0000.0001) %MON trAdv_CFL_w_max              =   4.4000305065788E-06
(PID.TID 0000.0001) %MON advcfl_uvel_max              =   1.2043978222016E-05
(PID.TID 0000.0001) %MON advcfl_vvel_max              =   3.5789664066852E-05
(PID.TID 0000.0001) %MON advcfl_wvel_max              =   5.9020935437793E-06
(PID.TID 0000.0001) %MON advcfl_W_hf_max              =   4.6485751282987E-05
(PID.TID 0000.0001) %MON pe_b_mean                    =  -3.9537899544041E-10
(PID.TID 0000.0001) %MON ke_max                       =   1.3041344483682E-08
(PID.TID 0000.0001) %MON ke_mean                      =   2.4639067921512E-12
(PID.TID 0000.0001) %MON ke_vol                       =   2.9241705273105E+14
(PID.TID 0000.0001) %MON vort_r_min                   =  -3.4425767244902E-08
(PID.TID 0000.0001) %MON vort_r_max                   =   3.4321522575802E-08
(PID.TID 0000.0001) %MON vort_a_mean                  =  -1.4007437277903E-04
(PID.TID 0000.0001) %MON vort_a_sd                    =   1.7682769241608E-06
(PID.TID 0000.0001) %MON vort_p_mean                  =  -1.5039772194942E-04
(PID.TID 0000.0001) %MON vort_p_sd                    =   8.7080725322544E-05
(PID.TID 0000.0001) %MON surfExpan_theta_mean         =  -1.0835005292855E-13
(PID.TID 0000.0001) %MON surfExpan_salt_mean          =  -3.9990966783869E-14
(PID.TID 0000.0001) // =======================================================
(PID.TID 0000.0001) // End MONITOR dynamic field statistics
(PID.TID 0000.0001) // =======================================================
 cg2d: Sum(rhs),rhsMax =  -2.33146835171283E-15  6.15234916131985E-06
(PID.TID 0000.0001)      cg2d_init_res =   3.40766459813626E+00
(PID.TID 0000.0001)      cg2d_iters(min,last) =      -1     215
(PID.TID 0000.0001)      cg2d_last_res =   8.80621602113393E-14
(PID.TID 0000.0001) // =======================================================
(PID.TID 0000.0001) // Begin MONITOR dynamic field statistics
(PID.TID 0000.0001) // =======================================================
(PID.TID 0000.0001) %MON time_tsnumber                =                     4
(PID.TID 0000.0001) %MON time_secondsf                =   7.2000000000000E+03
(PID.TID 0000.0001) %MON dynstat_eta_max              =   4.5229305164637E-06
(PID.TID 0000.0001) %MON dynstat_eta_min              =  -5.3199769266335E-06
(PID.TID 0000.0001) %MON dynstat_eta_mean             =   1.2893376243077E-22
(PID.TID 0000.0001) %MON dynstat_eta_sd               =   9.9304015704482E-07
(PID.TID 0000.0001) %MON dynstat_eta_del2             =   3.2453603340957E-09
(PID.TID 0000.0001) %MON dynstat_uvel_max             =   2.3093484145936E-06
(PID.TID 0000.0001) %MON dynstat_uvel_min             =  -9.2245731101891E-05
(PID.TID 0000.0001) %MON dynstat_uvel_mean            =  -7.1969865636046E-09
(PID.TID 0000.0001) %MON dynstat_uvel_sd              =   2.1523852818687E-06
(PID.TID 0000.0001) %MON dynstat_uvel_del2            =   1.2080477935366E-08
(PID.TID 0000.0001) %MON dynstat_vvel_max             =   3.6238588190330E-04
(PID.TID 0000.0001) %MON dynstat_vvel_min             =  -3.9153932638608E-06
(PID.TID 0000.0001) %MON dynstat_vvel_mean            =  -4.4999272293988E-08
(PID.TID 0000.0001) %MON dynstat_vvel_sd              =   3.4007435265365E-06
(PID.TID 0000.0001) %MON dynstat_vvel_del2            =   3.4276276845863E-08
(PID.TID 0000.0001) %MON dynstat_wvel_max             =   1.7244687275329E-07
(PID.TID 0000.0001) %MON dynstat_wvel_min             =  -2.0037497340030E-07
(PID.TID 0000.0001) %MON dynstat_wvel_mean            =  -1.8474438741921E-11
(PID.TID 0000.0001) %MON dynstat_wvel_sd              =   6.0859101840399E-09
(PID.TID 0000.0001) %MON dynstat_wvel_del2            =   6.3287962466831E-11
(PID.TID 0000.0001) %MON dynstat_theta_max            =  -1.9000000000000E+00
(PID.TID 0000.0001) %MON dynstat_theta_min            =  -1.9434716890599E+00
(PID.TID 0000.0001) %MON dynstat_theta_mean           =  -1.9000481729390E+00
(PID.TID 0000.0001) %MON dynstat_theta_sd             =   4.8065211992494E-04
(PID.TID 0000.0001) %MON dynstat_theta_del2           =   3.6108565363144E-06
(PID.TID 0000.0001) %MON dynstat_salt_max             =   3.4400000000000E+01
(PID.TID 0000.0001) %MON dynstat_salt_min             =   3.4383957799795E+01
(PID.TID 0000.0001) %MON dynstat_salt_mean            =   3.4399982217221E+01
(PID.TID 0000.0001) %MON dynstat_salt_sd              =   1.7740575450340E-04
(PID.TID 0000.0001) %MON dynstat_salt_del2            =   1.3326097837619E-06
(PID.TID 0000.0001) %MON trAdv_CFL_u_max              =   1.2043979750685E-05
(PID.TID 0000.0001) %MON trAdv_CFL_v_max              =   3.5949586353095E-05
(PID.TID 0000.0001) %MON trAdv_CFL_w_max              =   1.2993739118569E-05
(PID.TID 0000.0001) %MON advcfl_uvel_max              =   2.5743828956335E-05
(PID.TID 0000.0001) %MON advcfl_vvel_max              =   5.8671470735846E-05
(PID.TID 0000.0001) %MON advcfl_wvel_max              =   1.2022498404018E-05
(PID.TID 0000.0001) %MON advcfl_W_hf_max              =   8.1364820294422E-05
(PID.TID 0000.0001) %MON pe_b_mean                    =  -6.7794004421088E-10
(PID.TID 0000.0001) %MON ke_max                       =   3.6431527575557E-08
(PID.TID 0000.0001) %MON ke_mean                      =   7.9846745194239E-12
(PID.TID 0000.0001) %MON ke_vol                       =   2.9241705273105E+14
(PID.TID 0000.0001) %MON vort_r_min                   =  -5.6435578487004E-08
(PID.TID 0000.0001) %MON vort_r_max                   =   5.6222478966826E-08
(PID.TID 0000.0001) %MON vort_a_mean                  =  -1.4007437277852E-04
(PID.TID 0000.0001) %MON vort_a_sd                    =   1.7682766961876E-06
(PID.TID 0000.0001) %MON vort_p_mean                  =  -1.5039772194886E-04
(PID.TID 0000.0001) %MON vort_p_sd                    =   8.7080172536340E-05
(PID.TID 0000.0001) %MON surfExpan_theta_mean         =  -1.7302667815059E-13
(PID.TID 0000.0001) %MON surfExpan_salt_mean          =  -6.3860098751966E-14
(PID.TID 0000.0001) // =======================================================
(PID.TID 0000.0001) // End MONITOR dynamic field statistics
(PID.TID 0000.0001) // =======================================================
 cg2d: Sum(rhs),rhsMax =  -5.44009282066327E-15  9.27053258987362E-06
(PID.TID 0000.0001)      cg2d_init_res =   2.91680405209285E+00
(PID.TID 0000.0001)      cg2d_iters(min,last) =      -1     214
(PID.TID 0000.0001)      cg2d_last_res =   9.33684294301657E-14
(PID.TID 0000.0001) // =======================================================
(PID.TID 0000.0001) // Begin MONITOR dynamic field statistics
(PID.TID 0000.0001) // =======================================================
(PID.TID 0000.0001) %MON time_tsnumber                =                     5
(PID.TID 0000.0001) %MON time_secondsf                =   9.0000000000000E+03
(PID.TID 0000.0001) %MON dynstat_eta_max              =   6.5963915287316E-06
(PID.TID 0000.0001) %MON dynstat_eta_min              =  -7.4899978120978E-06
(PID.TID 0000.0001) %MON dynstat_eta_mean             =   4.1591536267990E-23
(PID.TID 0000.0001) %MON dynstat_eta_sd               =   1.4161151427864E-06
(PID.TID 0000.0001) %MON dynstat_eta_del2             =   5.2438522928459E-09
(PID.TID 0000.0001) %MON dynstat_uvel_max             =   4.0465566753170E-06
(PID.TID 0000.0001) %MON dynstat_uvel_min             =  -1.6107426788901E-04
(PID.TID 0000.0001) %MON dynstat_uvel_mean            =  -7.8182502036246E-09
(PID.TID 0000.0001) %MON dynstat_uvel_sd              =   3.8130956372052E-06
(PID.TID 0000.0001) %MON dynstat_uvel_del2            =   2.1133524062175E-08
(PID.TID 0000.0001) %MON dynstat_vvel_max             =   5.0871137413617E-04
(PID.TID 0000.0001) %MON dynstat_vvel_min             =  -5.9230158710457E-06
(PID.TID 0000.0001) %MON dynstat_vvel_mean            =  -5.1895231729668E-08
(PID.TID 0000.0001) %MON dynstat_vvel_sd              =   4.9197215927327E-06
(PID.TID 0000.0001) %MON dynstat_vvel_del2            =   4.7942760570611E-08
(PID.TID 0000.0001) %MON dynstat_wvel_max             =   3.0850297927013E-07
(PID.TID 0000.0001) %MON dynstat_wvel_min             =  -3.3881278355605E-07
(PID.TID 0000.0001) %MON dynstat_wvel_mean            =  -1.6823858207130E-11
(PID.TID 0000.0001) %MON dynstat_wvel_sd              =   9.3509605865563E-09
(PID.TID 0000.0001) %MON dynstat_wvel_del2            =   9.3295888175483E-11
(PID.TID 0000.0001) %MON dynstat_theta_max            =  -1.9000000000000E+00
(PID.TID 0000.0001) %MON dynstat_theta_min            =  -1.9533885007293E+00
(PID.TID 0000.0001) %MON dynstat_theta_mean           =  -1.9000600595756E+00
(PID.TID 0000.0001) %MON dynstat_theta_sd             =   5.9659439655784E-04
(PID.TID 0000.0001) %MON dynstat_theta_del2           =   4.4323487396896E-06
(PID.TID 0000.0001) %MON dynstat_salt_max             =   3.4400000000000E+01
(PID.TID 0000.0001) %MON dynstat_salt_min             =   3.4380298648768E+01
(PID.TID 0000.0001) %MON dynstat_salt_mean            =   3.4399977829386E+01
(PID.TID 0000.0001) %MON dynstat_salt_sd              =   2.2019792370154E-04
(PID.TID 0000.0001) %MON dynstat_salt_del2            =   1.6357553472738E-06
(PID.TID 0000.0001) %MON trAdv_CFL_u_max              =   2.5743832223843E-05
(PID.TID 0000.0001) %MON trAdv_CFL_v_max              =   5.8933637928022E-05
(PID.TID 0000.0001) %MON trAdv_CFL_w_max              =   2.6370495074917E-05
(PID.TID 0000.0001) %MON advcfl_uvel_max              =   4.4952415166196E-05
(PID.TID 0000.0001) %MON advcfl_vvel_max              =   8.2362051037592E-05
(PID.TID 0000.0001) %MON advcfl_wvel_max              =   2.0328767013363E-05
(PID.TID 0000.0001) %MON advcfl_W_hf_max              =   1.2142515377113E-04
(PID.TID 0000.0001) %MON pe_b_mean                    =  -9.5940914061436E-10
(PID.TID 0000.0001) %MON ke_max                       =   7.5274429483724E-08
(PID.TID 0000.0001) %MON ke_mean                      =   1.9082389459146E-11
(PID.TID 0000.0001) %MON ke_vol                       =   2.9241705273105E+14
(PID.TID 0000.0001) %MON vort_r_min                   =  -7.9192570251645E-08
(PID.TID 0000.0001) %MON vort_r_max                   =   7.8841501539325E-08
(PID.TID 0000.0001) %MON vort_a_mean                  =  -1.4007437277714E-04
(PID.TID 0000.0001) %MON vort_a_sd                    =   1.7682764063398E-06
(PID.TID 0000.0001) %MON vort_p_mean                  =  -1.5039772194738E-04
(PID.TID 0000.0001) %MON vort_p_sd                    =   8.7079399334968E-05
(PID.TID 0000.0001) %MON surfExpan_theta_mean         =  -1.6139242979712E-13
(PID.TID 0000.0001) %MON surfExpan_salt_mean          =  -5.9570515937060E-14
(PID.TID 0000.0001) // =======================================================
(PID.TID 0000.0001) // End MONITOR dynamic field statistics
(PID.TID 0000.0001) // =======================================================
 cg2d: Sum(rhs),rhsMax =   7.32747196252603E-15  1.28134969808270E-05
(PID.TID 0000.0001)      cg2d_init_res =   2.58013674819754E+00
(PID.TID 0000.0001)      cg2d_iters(min,last) =      -1     213
(PID.TID 0000.0001)      cg2d_last_res =   9.33615777717253E-14
(PID.TID 0000.0001) // =======================================================
(PID.TID 0000.0001) // Begin MONITOR dynamic field statistics
(PID.TID 0000.0001) // =======================================================
(PID.TID 0000.0001) %MON time_tsnumber                =                     6
(PID.TID 0000.0001) %MON time_secondsf                =   1.0800000000000E+04
(PID.TID 0000.0001) %MON dynstat_eta_max              =   8.6525383321621E-06
(PID.TID 0000.0001) %MON dynstat_eta_min              =  -1.0014929912576E-05
(PID.TID 0000.0001) %MON dynstat_eta_mean             =  -9.9819687043176E-23
(PID.TID 0000.0001) %MON dynstat_eta_sd               =   1.8567812731030E-06
(PID.TID 0000.0001) %MON dynstat_eta_del2             =   7.7619363975630E-09
(PID.TID 0000.0001) %MON dynstat_uvel_max             =   6.2803430879920E-06
(PID.TID 0000.0001) %MON dynstat_uvel_min             =  -2.4873211328418E-04
(PID.TID 0000.0001) %MON dynstat_uvel_mean            =  -7.6820836308572E-09
(PID.TID 0000.0001) %MON dynstat_uvel_sd              =   5.9664041708708E-06
(PID.TID 0000.0001) %MON dynstat_uvel_del2            =   3.2690202309024E-08
(PID.TID 0000.0001) %MON dynstat_vvel_max             =   6.4962179172938E-04
(PID.TID 0000.0001) %MON dynstat_vvel_min             =  -8.0797165264699E-06
(PID.TID 0000.0001) %MON dynstat_vvel_mean            =  -4.6526313556450E-08
(PID.TID 0000.0001) %MON dynstat_vvel_sd              =   6.4513774523185E-06
(PID.TID 0000.0001) %MON dynstat_vvel_del2            =   6.0990009728375E-08
(PID.TID 0000.0001) %MON dynstat_wvel_max             =   4.8302176625584E-07
(PID.TID 0000.0001) %MON dynstat_wvel_min             =  -5.1121452199341E-07
(PID.TID 0000.0001) %MON dynstat_wvel_mean            =  -8.9479427279411E-12
(PID.TID 0000.0001) %MON dynstat_wvel_sd              =   1.3108826691392E-08
(PID.TID 0000.0001) %MON dynstat_wvel_del2            =   1.2513399471913E-10
(PID.TID 0000.0001) %MON dynstat_theta_max            =  -1.9000000000000E+00
(PID.TID 0000.0001) %MON dynstat_theta_min            =  -1.9629781144868E+00
(PID.TID 0000.0001) %MON dynstat_theta_mean           =  -1.9000718888631E+00
(PID.TID 0000.0001) %MON dynstat_theta_sd             =   7.1106602300501E-04
(PID.TID 0000.0001) %MON dynstat_theta_del2           =   5.2257553015593E-06
(PID.TID 0000.0001) %MON dynstat_salt_max             =   3.4400000000000E+01
(PID.TID 0000.0001) %MON dynstat_salt_min             =   3.4376760366824E+01
(PID.TID 0000.0001) %MON dynstat_salt_mean            =   3.4399973462739E+01
(PID.TID 0000.0001) %MON dynstat_salt_sd              =   2.6244685300760E-04
(PID.TID 0000.0001) %MON dynstat_salt_del2            =   1.9285262414468E-06
(PID.TID 0000.0001) %MON trAdv_CFL_u_max              =   4.4952420871734E-05
(PID.TID 0000.0001) %MON trAdv_CFL_v_max              =   8.2730077054181E-05
(PID.TID 0000.0001) %MON trAdv_CFL_w_max              =   4.4504470648233E-05
(PID.TID 0000.0001) %MON advcfl_uvel_max              =   6.9415862434469E-05
(PID.TID 0000.0001) %MON advcfl_vvel_max              =   1.0517591287673E-04
(PID.TID 0000.0001) %MON advcfl_wvel_max              =   3.0672871319604E-05
(PID.TID 0000.0001) %MON advcfl_W_hf_max              =   1.6451052452854E-04
(PID.TID 0000.0001) %MON pe_b_mean                    =  -1.1995333948746E-09
(PID.TID 0000.0001) %MON ke_max                       =   1.2989732504883E-07
(PID.TID 0000.0001) %MON ke_mean                      =   3.8002305747530E-11
(PID.TID 0000.0001) %MON ke_vol                       =   2.9241705273105E+14
(PID.TID 0000.0001) %MON vort_r_min                   =  -1.0102575644869E-07
(PID.TID 0000.0001) %MON vort_r_max                   =   1.0051817106147E-07
(PID.TID 0000.0001) %MON vort_a_mean                  =  -1.4007437277469E-04
(PID.TID 0000.0001) %MON vort_a_sd                    =   1.7682760775822E-06
(PID.TID 0000.0001) %MON vort_p_mean                  =  -1.5039772194475E-04
(PID.TID 0000.0001) %MON vort_p_sd                    =   8.7078416131313E-05
(PID.TID 0000.0001) %MON surfExpan_theta_mean         =  -2.6586197937251E-14
(PID.TID 0000.0001) %MON surfExpan_salt_mean          =  -9.8341273294197E-15
(PID.TID 0000.0001) // =======================================================
(PID.TID 0000.0001) // End MONITOR dynamic field statistics
(PID.TID 0000.0001) // =======================================================
 cg2d: Sum(rhs),rhsMax =  -6.77236045021345E-15  1.67162049256258E-05
(PID.TID 0000.0001)      cg2d_init_res =   2.33008234226253E+00
(PID.TID 0000.0001)      cg2d_iters(min,last) =      -1     212
(PID.TID 0000.0001)      cg2d_last_res =   9.84499763251397E-14
(PID.TID 0000.0001) // =======================================================
(PID.TID 0000.0001) // Begin MONITOR dynamic field statistics
(PID.TID 0000.0001) // =======================================================
(PID.TID 0000.0001) %MON time_tsnumber                =                     7
(PID.TID 0000.0001) %MON time_secondsf                =   1.2600000000000E+04
(PID.TID 0000.0001) %MON dynstat_eta_max              =   1.0519467888826E-05
(PID.TID 0000.0001) %MON dynstat_eta_min              =  -1.3010487178327E-05
(PID.TID 0000.0001) %MON dynstat_eta_mean             =  -6.6546458028784E-23
(PID.TID 0000.0001) %MON dynstat_eta_sd               =   2.3090486204910E-06
(PID.TID 0000.0001) %MON dynstat_eta_del2             =   1.0775157810729E-08
(PID.TID 0000.0001) %MON dynstat_uvel_max             =   8.9682888753849E-06
(PID.TID 0000.0001) %MON dynstat_uvel_min             =  -3.5306617939994E-04
(PID.TID 0000.0001) %MON dynstat_uvel_mean            =  -7.0198867656636E-09
(PID.TID 0000.0001) %MON dynstat_uvel_sd              =   8.5732940949028E-06
(PID.TID 0000.0001) %MON dynstat_uvel_del2            =   4.6478592698508E-08
(PID.TID 0000.0001) %MON dynstat_vvel_max             =   7.7650752778642E-04
(PID.TID 0000.0001) %MON dynstat_vvel_min             =  -1.0264231455933E-05
(PID.TID 0000.0001) %MON dynstat_vvel_mean            =  -2.7226386191623E-08
(PID.TID 0000.0001) %MON dynstat_vvel_sd              =   7.8964743961399E-06
(PID.TID 0000.0001) %MON dynstat_vvel_del2            =   7.2627485706143E-08
(PID.TID 0000.0001) %MON dynstat_wvel_max             =   6.9121394051252E-07
(PID.TID 0000.0001) %MON dynstat_wvel_min             =  -7.1322558191288E-07
(PID.TID 0000.0001) %MON dynstat_wvel_mean            =   4.6280280935928E-12
(PID.TID 0000.0001) %MON dynstat_wvel_sd              =   1.7262724066187E-08
(PID.TID 0000.0001) %MON dynstat_wvel_del2            =   1.5728408461164E-10
(PID.TID 0000.0001) %MON dynstat_theta_max            =  -1.9000000000000E+00
(PID.TID 0000.0001) %MON dynstat_theta_min            =  -1.9722535021433E+00
(PID.TID 0000.0001) %MON dynstat_theta_mean           =  -1.9000836615364E+00
(PID.TID 0000.0001) %MON dynstat_theta_sd             =   8.2411650907948E-04
(PID.TID 0000.0001) %MON dynstat_theta_del2           =   5.9921243366457E-06
(PID.TID 0000.0001) %MON dynstat_salt_max             =   3.4400000000000E+01
(PID.TID 0000.0001) %MON dynstat_salt_min             =   3.4373338154952E+01
(PID.TID 0000.0001) %MON dynstat_salt_mean            =   3.4399969117009E+01
(PID.TID 0000.0001) %MON dynstat_salt_sd              =   3.0417085443016E-04
(PID.TID 0000.0001) %MON dynstat_salt_del2            =   2.2113101823015E-06
(PID.TID 0000.0001) %MON trAdv_CFL_u_max              =   6.9415871245003E-05
(PID.TID 0000.0001) %MON trAdv_CFL_v_max              =   1.0564588019504E-04
(PID.TID 0000.0001) %MON trAdv_CFL_w_max              =   6.7072166283028E-05
(PID.TID 0000.0001) %MON advcfl_uvel_max              =   9.8533289553521E-05
(PID.TID 0000.0001) %MON advcfl_vvel_max              =   1.2571913247118E-04
(PID.TID 0000.0001) %MON advcfl_wvel_max              =   4.2793534914773E-05
(PID.TID 0000.0001) %MON advcfl_W_hf_max              =   2.0861922701815E-04
(PID.TID 0000.0001) %MON pe_b_mean                    =  -1.3568933679091E-09
(PID.TID 0000.0001) %MON ke_max                       =   1.9857542268639E-07
(PID.TID 0000.0001) %MON ke_mean                      =   6.6811655327180E-11
(PID.TID 0000.0001) %MON ke_vol                       =   2.9241705273105E+14
(PID.TID 0000.0001) %MON vort_r_min                   =  -1.2059261211871E-07
(PID.TID 0000.0001) %MON vort_r_max                   =   1.1992088708433E-07
(PID.TID 0000.0001) %MON vort_a_mean                  =  -1.4007437277156E-04
(PID.TID 0000.0001) %MON vort_a_sd                    =   1.7682757371073E-06
(PID.TID 0000.0001) %MON vort_p_mean                  =  -1.5039772194139E-04
(PID.TID 0000.0001) %MON vort_p_sd                    =   8.7077246508670E-05
(PID.TID 0000.0001) %MON surfExpan_theta_mean         =   2.7093751471820E-13
(PID.TID 0000.0001) %MON surfExpan_salt_mean          =   9.9939545474148E-14
(PID.TID 0000.0001) // =======================================================
(PID.TID 0000.0001) // End MONITOR dynamic field statistics
(PID.TID 0000.0001) // =======================================================
 cg2d: Sum(rhs),rhsMax =   3.66373598126302E-15  2.09158616029867E-05
(PID.TID 0000.0001)      cg2d_init_res =   2.13661625896099E+00
(PID.TID 0000.0001)      cg2d_iters(min,last) =      -1     212
(PID.TID 0000.0001)      cg2d_last_res =   8.54407726652461E-14
(PID.TID 0000.0001) // =======================================================
(PID.TID 0000.0001) // Begin MONITOR dynamic field statistics
(PID.TID 0000.0001) // =======================================================
(PID.TID 0000.0001) %MON time_tsnumber                =                     8
(PID.TID 0000.0001) %MON time_secondsf                =   1.4400000000000E+04
(PID.TID 0000.0001) %MON dynstat_eta_max              =   1.2038502655351E-05
(PID.TID 0000.0001) %MON dynstat_eta_min              =  -1.6497799824174E-05
(PID.TID 0000.0001) %MON dynstat_eta_mean             =  -2.6618583211513E-22
(PID.TID 0000.0001) %MON dynstat_eta_sd               =   2.7715496318290E-06
(PID.TID 0000.0001) %MON dynstat_eta_del2             =   1.4265147212851E-08
(PID.TID 0000.0001) %MON dynstat_uvel_max             =   1.2045060345967E-05
(PID.TID 0000.0001) %MON dynstat_uvel_min             =  -4.7099902362863E-04
(PID.TID 0000.0001) %MON dynstat_uvel_mean            =  -5.6390875400429E-09
(PID.TID 0000.0001) %MON dynstat_uvel_sd              =   1.1568026315199E-05
(PID.TID 0000.0001) %MON dynstat_uvel_del2            =   6.2103898148014E-08
(PID.TID 0000.0001) %MON dynstat_vvel_max             =   8.8320128043875E-04
(PID.TID 0000.0001) %MON dynstat_vvel_min             =  -1.2356099829505E-05
(PID.TID 0000.0001) %MON dynstat_vvel_mean            =   5.0460309375143E-09
(PID.TID 0000.0001) %MON dynstat_vvel_sd              =   9.1702427198363E-06
(PID.TID 0000.0001) %MON dynstat_vvel_del2            =   8.2291220372110E-08
(PID.TID 0000.0001) %MON dynstat_wvel_max             =   9.2644648729230E-07
(PID.TID 0000.0001) %MON dynstat_wvel_min             =  -9.3920369205182E-07
(PID.TID 0000.0001) %MON dynstat_wvel_mean            =   2.2476541648694E-11
(PID.TID 0000.0001) %MON dynstat_wvel_sd              =   2.1707145496700E-08
(PID.TID 0000.0001) %MON dynstat_wvel_del2            =   1.8840667071423E-10
(PID.TID 0000.0001) %MON dynstat_theta_max            =  -1.9000000000000E+00
(PID.TID 0000.0001) %MON dynstat_theta_min            =  -1.9812270417128E+00
(PID.TID 0000.0001) %MON dynstat_theta_mean           =  -1.9000953783079E+00
(PID.TID 0000.0001) %MON dynstat_theta_sd             =   9.3579290379128E-04
(PID.TID 0000.0001) %MON dynstat_theta_del2           =   6.7324584000038E-06
(PID.TID 0000.0001) %MON dynstat_salt_max             =   3.4400000000000E+01
(PID.TID 0000.0001) %MON dynstat_salt_min             =   3.4370027434254E+01
(PID.TID 0000.0001) %MON dynstat_salt_mean            =   3.4399964791932E+01
(PID.TID 0000.0001) %MON dynstat_salt_sd              =   3.4538732835326E-04
(PID.TID 0000.0001) %MON dynstat_salt_del2            =   2.4844780002686E-06
(PID.TID 0000.0001) %MON trAdv_CFL_u_max              =   9.8533302059753E-05
(PID.TID 0000.0001) %MON trAdv_CFL_v_max              =   1.2628089496919E-04
(PID.TID 0000.0001) %MON trAdv_CFL_w_max              =   9.3503489236360E-05
(PID.TID 0000.0001) %MON advcfl_uvel_max              =   1.3144584749947E-04
(PID.TID 0000.0001) %MON advcfl_vvel_max              =   1.4299320328641E-04
(PID.TID 0000.0001) %MON advcfl_wvel_max              =   5.6352221523109E-05
(PID.TID 0000.0001) %MON advcfl_W_hf_max              =   2.5202251163012E-04
(PID.TID 0000.0001) %MON pe_b_mean                    =  -1.3940305333706E-09
(PID.TID 0000.0001) %MON ke_max                       =   2.7824974263844E-07
(PID.TID 0000.0001) %MON ke_mean                      =   1.0709646244265E-10
(PID.TID 0000.0001) %MON ke_vol                       =   2.9241705273105E+14
(PID.TID 0000.0001) %MON vort_r_min                   =  -1.3691831461341E-07
(PID.TID 0000.0001) %MON vort_r_max                   =   1.3608366814287E-07
(PID.TID 0000.0001) %MON vort_a_mean                  =  -1.4007437276878E-04
(PID.TID 0000.0001) %MON vort_a_sd                    =   1.7682754122014E-06
(PID.TID 0000.0001) %MON vort_p_mean                  =  -1.5039772193841E-04
(PID.TID 0000.0001) %MON vort_p_sd                    =   8.7075923572109E-05
(PID.TID 0000.0001) %MON surfExpan_theta_mean         =   7.4564091602364E-13
(PID.TID 0000.0001) %MON surfExpan_salt_mean          =   2.7508650864255E-13
(PID.TID 0000.0001) // =======================================================
(PID.TID 0000.0001) // End MONITOR dynamic field statistics
(PID.TID 0000.0001) // =======================================================
 cg2d: Sum(rhs),rhsMax =  -1.44328993201270E-15  2.53565874465958E-05
(PID.TID 0000.0001)      cg2d_init_res =   1.98214540233961E+00
(PID.TID 0000.0001)      cg2d_iters(min,last) =      -1     212
(PID.TID 0000.0001)      cg2d_last_res =   7.39237299587691E-14
(PID.TID 0000.0001) // =======================================================
(PID.TID 0000.0001) // Begin MONITOR dynamic field statistics
(PID.TID 0000.0001) // =======================================================
(PID.TID 0000.0001) %MON time_tsnumber                =                     9
(PID.TID 0000.0001) %MON time_secondsf                =   1.6200000000000E+04
(PID.TID 0000.0001) %MON dynstat_eta_max              =   1.3082378718453E-05
(PID.TID 0000.0001) %MON dynstat_eta_min              =  -2.0415748706636E-05
(PID.TID 0000.0001) %MON dynstat_eta_mean             =   4.9909843521588E-23
(PID.TID 0000.0001) %MON dynstat_eta_sd               =   3.2519182397118E-06
(PID.TID 0000.0001) %MON dynstat_eta_del2             =   1.8215232421912E-08
(PID.TID 0000.0001) %MON dynstat_uvel_max             =   1.5509153090600E-05
(PID.TID 0000.0001) %MON dynstat_uvel_min             =  -5.9885788925153E-04
(PID.TID 0000.0001) %MON dynstat_uvel_mean            =  -3.0501819332961E-09
(PID.TID 0000.0001) %MON dynstat_uvel_sd              =   1.4864914739252E-05
(PID.TID 0000.0001) %MON dynstat_uvel_del2            =   7.9090322103997E-08
(PID.TID 0000.0001) %MON dynstat_vvel_max             =   9.6584651635006E-04
(PID.TID 0000.0001) %MON dynstat_vvel_min             =  -1.5064813846409E-05
(PID.TID 0000.0001) %MON dynstat_vvel_mean            =   4.7141919153421E-08
(PID.TID 0000.0001) %MON dynstat_vvel_sd              =   1.0205959625116E-05
(PID.TID 0000.0001) %MON dynstat_vvel_del2            =   8.9638459925591E-08
(PID.TID 0000.0001) %MON dynstat_wvel_max             =   1.1810036768084E-06
(PID.TID 0000.0001) %MON dynstat_wvel_min             =  -1.1827632575462E-06
(PID.TID 0000.0001) %MON dynstat_wvel_mean            =   4.2709376675749E-11
(PID.TID 0000.0001) %MON dynstat_wvel_sd              =   2.6332131053234E-08
(PID.TID 0000.0001) %MON dynstat_wvel_del2            =   2.1740983725612E-10
(PID.TID 0000.0001) %MON dynstat_theta_max            =  -1.9000000000000E+00
(PID.TID 0000.0001) %MON dynstat_theta_min            =  -1.9899105342805E+00
(PID.TID 0000.0001) %MON dynstat_theta_mean           =  -1.9001070398687E+00
(PID.TID 0000.0001) %MON dynstat_theta_sd             =   1.0461399361627E-03
(PID.TID 0000.0001) %MON dynstat_theta_del2           =   7.4477172015479E-06
(PID.TID 0000.0001) %MON dynstat_salt_max             =   3.4400000000000E+01
(PID.TID 0000.0001) %MON dynstat_salt_min             =   3.4366823839636E+01
(PID.TID 0000.0001) %MON dynstat_salt_mean            =   3.4399960487253E+01
(PID.TID 0000.0001) %MON dynstat_salt_sd              =   3.8611281580412E-04
(PID.TID 0000.0001) %MON dynstat_salt_del2            =   2.7483846476863E-06
(PID.TID 0000.0001) %MON trAdv_CFL_u_max              =   1.3144586418310E-04
(PID.TID 0000.0001) %MON trAdv_CFL_v_max              =   1.4363215312243E-04
(PID.TID 0000.0001) %MON trAdv_CFL_w_max              =   1.2306077676072E-04
(PID.TID 0000.0001) %MON advcfl_uvel_max              =   1.6712854769414E-04
(PID.TID 0000.0001) %MON advcfl_vvel_max              =   1.5637373984253E-04
(PID.TID 0000.0001) %MON advcfl_wvel_max              =   7.0965795452771E-05
(PID.TID 0000.0001) %MON advcfl_W_hf_max              =   2.9332028946841E-04
(PID.TID 0000.0001) %MON pe_b_mean                    =  -1.2839835453711E-09
(PID.TID 0000.0001) %MON ke_max                       =   3.6534076752991E-07
(PID.TID 0000.0001) %MON ke_mean                      =   1.5969767536560E-10
(PID.TID 0000.0001) %MON ke_vol                       =   2.9241705273105E+14
(PID.TID 0000.0001) %MON vort_r_min                   =  -1.4939426798223E-07
(PID.TID 0000.0001) %MON vort_r_max                   =   1.4840300941732E-07
(PID.TID 0000.0001) %MON vort_a_mean                  =  -1.4007437276771E-04
(PID.TID 0000.0001) %MON vort_a_sd                    =   1.7682751270996E-06
(PID.TID 0000.0001) %MON vort_p_mean                  =  -1.5039772193726E-04
(PID.TID 0000.0001) %MON vort_p_sd                    =   8.7074486322636E-05
(PID.TID 0000.0001) %MON surfExpan_theta_mean         =   1.3838270660926E-12
(PID.TID 0000.0001) %MON surfExpan_salt_mean          =   5.1055266985108E-13
(PID.TID 0000.0001) // =======================================================
(PID.TID 0000.0001) // End MONITOR dynamic field statistics
(PID.TID 0000.0001) // =======================================================
 cg2d: Sum(rhs),rhsMax =   9.76996261670138E-15  2.99912878026025E-05
(PID.TID 0000.0001)      cg2d_init_res =   1.85559416655365E+00
(PID.TID 0000.0001)      cg2d_iters(min,last) =      -1     211
(PID.TID 0000.0001)      cg2d_last_res =   8.37597227612440E-14
(PID.TID 0000.0001) // =======================================================
(PID.TID 0000.0001) // Begin MONITOR dynamic field statistics
(PID.TID 0000.0001) // =======================================================
(PID.TID 0000.0001) %MON time_tsnumber                =                    10
(PID.TID 0000.0001) %MON time_secondsf                =   1.8000000000000E+04
(PID.TID 0000.0001) %MON dynstat_eta_max              =   1.4028643680405E-05
(PID.TID 0000.0001) %MON dynstat_eta_min              =  -2.4653842329217E-05
(PID.TID 0000.0001) %MON dynstat_eta_mean             =   6.6546458028784E-22
(PID.TID 0000.0001) %MON dynstat_eta_sd               =   3.7678641382041E-06
(PID.TID 0000.0001) %MON dynstat_eta_del2             =   2.2609063860950E-08
(PID.TID 0000.0001) %MON dynstat_uvel_max             =   1.9493279323160E-05
(PID.TID 0000.0001) %MON dynstat_uvel_min             =  -7.3269206657915E-04
(PID.TID 0000.0001) %MON dynstat_uvel_mean            =   1.2278824138278E-09
(PID.TID 0000.0001) %MON dynstat_uvel_sd              =   1.8365536153785E-05
(PID.TID 0000.0001) %MON dynstat_uvel_del2            =   9.6921987174074E-08
(PID.TID 0000.0001) %MON dynstat_vvel_max             =   1.0227450512302E-03
(PID.TID 0000.0001) %MON dynstat_vvel_min             =  -1.7991782458000E-05
(PID.TID 0000.0001) %MON dynstat_vvel_mean            =   9.4422652205012E-08
(PID.TID 0000.0001) %MON dynstat_vvel_sd              =   1.0957346325704E-05
(PID.TID 0000.0001) %MON dynstat_vvel_del2            =   9.4530560056673E-08
(PID.TID 0000.0001) %MON dynstat_wvel_max             =   1.4467929365236E-06
(PID.TID 0000.0001) %MON dynstat_wvel_min             =  -1.4372687219154E-06
(PID.TID 0000.0001) %MON dynstat_wvel_mean            =   6.3298251509369E-11
(PID.TID 0000.0001) %MON dynstat_wvel_sd              =   3.1028210286522E-08
(PID.TID 0000.0001) %MON dynstat_wvel_del2            =   2.4350328456362E-10
(PID.TID 0000.0001) %MON dynstat_theta_max            =  -1.9000000000000E+00
(PID.TID 0000.0001) %MON dynstat_theta_min            =  -1.9983152209533E+00
(PID.TID 0000.0001) %MON dynstat_theta_mean           =  -1.9001186468895E+00
(PID.TID 0000.0001) %MON dynstat_theta_sd             =   1.1552001502394E-03
(PID.TID 0000.0001) %MON dynstat_theta_del2           =   8.1388199177929E-06
(PID.TID 0000.0001) %MON dynstat_salt_max             =   3.4400000000000E+01
(PID.TID 0000.0001) %MON dynstat_salt_min             =   3.4363723213481E+01
(PID.TID 0000.0001) %MON dynstat_salt_mean            =   3.4399956202722E+01
(PID.TID 0000.0001) %MON dynstat_salt_sd              =   4.2636304855447E-04
(PID.TID 0000.0001) %MON dynstat_salt_del2            =   3.0033700571798E-06
(PID.TID 0000.0001) %MON trAdv_CFL_u_max              =   1.6712856890675E-04
(PID.TID 0000.0001) %MON trAdv_CFL_v_max              =   1.5707247917512E-04
(PID.TID 0000.0001) %MON trAdv_CFL_w_max              =   1.5491038106519E-04
(PID.TID 0000.0001) %MON advcfl_uvel_max              =   2.0447883077476E-04
(PID.TID 0000.0001) %MON advcfl_vvel_max              =   1.6558580049622E-04
(PID.TID 0000.0001) %MON advcfl_wvel_max              =   8.6807576191419E-05
(PID.TID 0000.0001) %MON advcfl_W_hf_max              =   3.3147378544385E-04
(PID.TID 0000.0001) %MON pe_b_mean                    =  -1.0148096840414E-09
(PID.TID 0000.0001) %MON ke_max                       =   4.5645279068675E-07
(PID.TID 0000.0001) %MON ke_mean                      =   2.2453501798662E-10
(PID.TID 0000.0001) %MON ke_vol                       =   2.9241705273105E+14
(PID.TID 0000.0001) %MON vort_r_min                   =  -1.5775483212115E-07
(PID.TID 0000.0001) %MON vort_r_max                   =   1.5661410471356E-07
(PID.TID 0000.0001) %MON vort_a_mean                  =  -1.4007437276957E-04
(PID.TID 0000.0001) %MON vort_a_sd                    =   1.7682749010515E-06
(PID.TID 0000.0001) %MON vort_p_mean                  =  -1.5039772193925E-04
(PID.TID 0000.0001) %MON vort_p_sd                    =   8.7072976282384E-05
(PID.TID 0000.0001) %MON surfExpan_theta_mean         =   2.1461935339258E-12
(PID.TID 0000.0001) %MON surfExpan_salt_mean          =   7.9183586413348E-13
(PID.TID 0000.0001) // =======================================================
(PID.TID 0000.0001) // End MONITOR dynamic field statistics
(PID.TID 0000.0001) // =======================================================
 cg2d: Sum(rhs),rhsMax =   5.88418203051333E-15  3.47812035511347E-05
(PID.TID 0000.0001)      cg2d_init_res =   1.74961008865635E+00
(PID.TID 0000.0001)      cg2d_iters(min,last) =      -1     210
(PID.TID 0000.0001)      cg2d_last_res =   8.56700378543771E-14
(PID.TID 0000.0001) // =======================================================
(PID.TID 0000.0001) // Begin MONITOR dynamic field statistics
(PID.TID 0000.0001) // =======================================================
(PID.TID 0000.0001) %MON time_tsnumber                =                    11
(PID.TID 0000.0001) %MON time_secondsf                =   1.9800000000000E+04
(PID.TID 0000.0001) %MON dynstat_eta_max              =   1.5157025102289E-05
(PID.TID 0000.0001) %MON dynstat_eta_min              =  -2.9078355019422E-05
(PID.TID 0000.0001) %MON dynstat_eta_mean             =  -1.6636614507196E-22
(PID.TID 0000.0001) %MON dynstat_eta_sd               =   4.3418353104194E-06
(PID.TID 0000.0001) %MON dynstat_eta_del2             =   2.7430121296583E-08
(PID.TID 0000.0001) %MON dynstat_uvel_max             =   2.3663390901636E-05
(PID.TID 0000.0001) %MON dynstat_uvel_min             =  -8.6855959434918E-04
(PID.TID 0000.0001) %MON dynstat_uvel_mean            =   7.4190382140928E-09
(PID.TID 0000.0001) %MON dynstat_uvel_sd              =   2.1965957693640E-05
(PID.TID 0000.0001) %MON dynstat_uvel_del2            =   1.1508071024768E-07
(PID.TID 0000.0001) %MON dynstat_vvel_max             =   1.0540970254837E-03
(PID.TID 0000.0001) %MON dynstat_vvel_min             =  -2.1009524695078E-05
(PID.TID 0000.0001) %MON dynstat_vvel_mean            =   1.4153709889270E-07
(PID.TID 0000.0001) %MON dynstat_vvel_sd              =   1.1399700524237E-05
(PID.TID 0000.0001) %MON dynstat_vvel_del2            =   9.7006526676414E-08
(PID.TID 0000.0001) %MON dynstat_wvel_max             =   1.7159608366181E-06
(PID.TID 0000.0001) %MON dynstat_wvel_min             =  -1.6962531142397E-06
(PID.TID 0000.0001) %MON dynstat_wvel_mean            =   8.2268600089837E-11
(PID.TID 0000.0001) %MON dynstat_wvel_sd              =   3.5691381124631E-08
(PID.TID 0000.0001) %MON dynstat_wvel_del2            =   2.6623086101525E-10
(PID.TID 0000.0001) %MON dynstat_theta_max            =  -1.9000000000000E+00
(PID.TID 0000.0001) %MON dynstat_theta_min            =  -2.0064518012159E+00
(PID.TID 0000.0001) %MON dynstat_theta_mean           =  -1.9001302000215E+00
(PID.TID 0000.0001) %MON dynstat_theta_sd             =   1.2630140323568E-03
(PID.TID 0000.0001) %MON dynstat_theta_del2           =   8.8066471573986E-06
(PID.TID 0000.0001) %MON dynstat_salt_max             =   3.4400000000000E+01
(PID.TID 0000.0001) %MON dynstat_salt_min             =   3.4360721598803E+01
(PID.TID 0000.0001) %MON dynstat_salt_mean            =   3.4399951938100E+01
(PID.TID 0000.0001) %MON dynstat_salt_sd              =   4.6615299633998E-04
(PID.TID 0000.0001) %MON dynstat_salt_del2            =   3.2497598718450E-06
(PID.TID 0000.0001) %MON trAdv_CFL_u_max              =   2.0447885672802E-04
(PID.TID 0000.0001) %MON trAdv_CFL_v_max              =   1.6632570293664E-04
(PID.TID 0000.0001) %MON trAdv_CFL_w_max              =   1.8818692206767E-04
(PID.TID 0000.0001) %MON advcfl_uvel_max              =   2.4239657887921E-04
(PID.TID 0000.0001) %MON advcfl_vvel_max              =   1.7066178863974E-04
(PID.TID 0000.0001) %MON advcfl_wvel_max              =   1.0295765019708E-04
(PID.TID 0000.0001) %MON advcfl_W_hf_max              =   3.6581399858054E-04
(PID.TID 0000.0001) %MON pe_b_mean                    =  -5.9134020500433E-10
(PID.TID 0000.0001) %MON ke_max                       =   5.4884225737723E-07
(PID.TID 0000.0001) %MON ke_mean                      =   3.0055072495823E-10
(PID.TID 0000.0001) %MON ke_vol                       =   2.9241705273105E+14
(PID.TID 0000.0001) %MON vort_r_min                   =  -1.6203653785097E-07
(PID.TID 0000.0001) %MON vort_r_max                   =   1.6075057628240E-07
(PID.TID 0000.0001) %MON vort_a_mean                  =  -1.4007437277500E-04
(PID.TID 0000.0001) %MON vort_a_sd                    =   1.7682747471721E-06
(PID.TID 0000.0001) %MON vort_p_mean                  =  -1.5039772194508E-04
(PID.TID 0000.0001) %MON vort_p_sd                    =   8.7071434545402E-05
(PID.TID 0000.0001) %MON surfExpan_theta_mean         =   2.9726986992438E-12
(PID.TID 0000.0001) %MON surfExpan_salt_mean          =   1.0967816876994E-12
(PID.TID 0000.0001) // =======================================================
(PID.TID 0000.0001) // End MONITOR dynamic field statistics
(PID.TID 0000.0001) // =======================================================
 cg2d: Sum(rhs),rhsMax =  -1.61259894326804E-14  3.96950390674016E-05
(PID.TID 0000.0001)      cg2d_init_res =   1.65913601185364E+00
(PID.TID 0000.0001)      cg2d_iters(min,last) =      -1     209
(PID.TID 0000.0001)      cg2d_last_res =   9.96097361527488E-14
(PID.TID 0000.0001) // =======================================================
(PID.TID 0000.0001) // Begin MONITOR dynamic field statistics
(PID.TID 0000.0001) // =======================================================
(PID.TID 0000.0001) %MON time_tsnumber                =                    12
(PID.TID 0000.0001) %MON time_secondsf                =   2.1600000000000E+04
(PID.TID 0000.0001) %MON dynstat_eta_max              =   1.5914421551725E-05
(PID.TID 0000.0001) %MON dynstat_eta_min              =  -3.3546183265460E-05
(PID.TID 0000.0001) %MON dynstat_eta_mean             =  -9.1501379789578E-22
(PID.TID 0000.0001) %MON dynstat_eta_sd               =   4.9904146566194E-06
(PID.TID 0000.0001) %MON dynstat_eta_del2             =   3.2661607309906E-08
(PID.TID 0000.0001) %MON dynstat_uvel_max             =   2.7892113594999E-05
(PID.TID 0000.0001) %MON dynstat_uvel_min             =  -1.0027718089805E-03
(PID.TID 0000.0001) %MON dynstat_uvel_mean            =   1.5401125162852E-08
(PID.TID 0000.0001) %MON dynstat_uvel_sd              =   2.5563597324425E-05
(PID.TID 0000.0001) %MON dynstat_uvel_del2            =   1.3307888649571E-07
(PID.TID 0000.0001) %MON dynstat_vvel_max             =   1.0616697408095E-03
(PID.TID 0000.0001) %MON dynstat_vvel_min             =  -2.3940640753650E-05
(PID.TID 0000.0001) %MON dynstat_vvel_mean            =   1.8316976866971E-07
(PID.TID 0000.0001) %MON dynstat_vvel_sd              =   1.1529782171208E-05
(PID.TID 0000.0001) %MON dynstat_vvel_del2            =   9.7250514752856E-08
(PID.TID 0000.0001) %MON dynstat_wvel_max             =   1.9813912951010E-06
(PID.TID 0000.0001) %MON dynstat_wvel_min             =  -1.9537516248533E-06
(PID.TID 0000.0001) %MON dynstat_wvel_mean            =   9.7832965865720E-11
(PID.TID 0000.0001) %MON dynstat_wvel_sd              =   4.0227577741272E-08
(PID.TID 0000.0001) %MON dynstat_wvel_del2            =   2.8547642745804E-10
(PID.TID 0000.0001) %MON dynstat_theta_max            =  -1.9000000000000E+00
(PID.TID 0000.0001) %MON dynstat_theta_min            =  -2.0143304533404E+00
(PID.TID 0000.0001) %MON dynstat_theta_mean           =  -1.9001416998971E+00
(PID.TID 0000.0001) %MON dynstat_theta_sd             =   1.3696201305363E-03
(PID.TID 0000.0001) %MON dynstat_theta_del2           =   9.4520426547478E-06
(PID.TID 0000.0001) %MON dynstat_salt_max             =   3.4400000000000E+01
(PID.TID 0000.0001) %MON dynstat_salt_min             =   3.4357815231655E+01
(PID.TID 0000.0001) %MON dynstat_salt_mean            =   3.4399947693153E+01
(PID.TID 0000.0001) %MON dynstat_salt_sd              =   5.0549691115254E-04
(PID.TID 0000.0001) %MON dynstat_salt_del2            =   3.4878660746766E-06
(PID.TID 0000.0001) %MON trAdv_CFL_u_max              =   2.4239660964513E-04
(PID.TID 0000.0001) %MON trAdv_CFL_v_max              =   1.7142437259031E-04
(PID.TID 0000.0001) %MON trAdv_CFL_w_max              =   2.2205495313685E-04
(PID.TID 0000.0001) %MON advcfl_uvel_max              =   2.7985236416105E-04
(PID.TID 0000.0001) %MON advcfl_vvel_max              =   1.7188783625312E-04
(PID.TID 0000.0001) %MON advcfl_wvel_max              =   1.1888347770606E-04
(PID.TID 0000.0001) %MON advcfl_W_hf_max              =   3.9602447618604E-04
(PID.TID 0000.0001) %MON pe_b_mean                    =  -3.4594169904620E-11
(PID.TID 0000.0001) %MON ke_max                       =   6.4062021792778E-07
(PID.TID 0000.0001) %MON ke_mean                      =   3.8578358889791E-10
(PID.TID 0000.0001) %MON ke_vol                       =   2.9241705273105E+14
(PID.TID 0000.0001) %MON vort_r_min                   =  -1.6252571934523E-07
(PID.TID 0000.0001) %MON vort_r_max                   =   1.6109333545243E-07
(PID.TID 0000.0001) %MON vort_a_mean                  =  -1.4007437278394E-04
(PID.TID 0000.0001) %MON vort_a_sd                    =   1.7682746723267E-06
(PID.TID 0000.0001) %MON vort_p_mean                  =  -1.5039772195469E-04
(PID.TID 0000.0001) %MON vort_p_sd                    =   8.7069899355887E-05
(PID.TID 0000.0001) %MON surfExpan_theta_mean         =   3.7889256129295E-12
(PID.TID 0000.0001) %MON surfExpan_salt_mean          =   1.3979320876754E-12
(PID.TID 0000.0001) // =======================================================
(PID.TID 0000.0001) // End MONITOR dynamic field statistics
(PID.TID 0000.0001) // =======================================================
 cg2d: Sum(rhs),rhsMax =  -3.02535774210355E-15  4.47082262564218E-05
(PID.TID 0000.0001)      cg2d_init_res =   1.58059312531396E+00
(PID.TID 0000.0001)      cg2d_iters(min,last) =      -1     209
(PID.TID 0000.0001)      cg2d_last_res =   9.20866906739445E-14
(PID.TID 0000.0001) // =======================================================
(PID.TID 0000.0001) // Begin MONITOR dynamic field statistics
(PID.TID 0000.0001) // =======================================================
(PID.TID 0000.0001) %MON time_tsnumber                =                    13
(PID.TID 0000.0001) %MON time_secondsf                =   2.3400000000000E+04
(PID.TID 0000.0001) %MON dynstat_eta_max              =   1.6302674322173E-05
(PID.TID 0000.0001) %MON dynstat_eta_min              =  -3.7911616467356E-05
(PID.TID 0000.0001) %MON dynstat_eta_mean             =  -8.3183072535980E-22
(PID.TID 0000.0001) %MON dynstat_eta_sd               =   5.7141592128362E-06
(PID.TID 0000.0001) %MON dynstat_eta_del2             =   3.8286526309197E-08
(PID.TID 0000.0001) %MON dynstat_uvel_max             =   3.2054239264049E-05
(PID.TID 0000.0001) %MON dynstat_uvel_min             =  -1.1320882211044E-03
(PID.TID 0000.0001) %MON dynstat_uvel_mean            =   2.4754053534650E-08
(PID.TID 0000.0001) %MON dynstat_uvel_sd              =   2.9063377200676E-05
(PID.TID 0000.0001) %MON dynstat_uvel_del2            =   1.5048619335704E-07
(PID.TID 0000.0001) %MON dynstat_vvel_max             =   1.0484281894038E-03
(PID.TID 0000.0001) %MON dynstat_vvel_min             =  -2.6708858263368E-05
(PID.TID 0000.0001) %MON dynstat_vvel_mean            =   2.1469776521228E-07
(PID.TID 0000.0001) %MON dynstat_vvel_sd              =   1.1364528859103E-05
(PID.TID 0000.0001) %MON dynstat_vvel_del2            =   9.5556251837482E-08
(PID.TID 0000.0001) %MON dynstat_wvel_max             =   2.2370707810596E-06
(PID.TID 0000.0001) %MON dynstat_wvel_min             =  -2.2045478904834E-06
(PID.TID 0000.0001) %MON dynstat_wvel_mean            =   1.0851494554644E-10
(PID.TID 0000.0001) %MON dynstat_wvel_sd              =   4.4556221181420E-08
(PID.TID 0000.0001) %MON dynstat_wvel_del2            =   3.0143949535928E-10
(PID.TID 0000.0001) %MON dynstat_theta_max            =  -1.9000000000000E+00
(PID.TID 0000.0001) %MON dynstat_theta_min            =  -2.0219608569864E+00
(PID.TID 0000.0001) %MON dynstat_theta_mean           =  -1.9001531471313E+00
(PID.TID 0000.0001) %MON dynstat_theta_sd             =   1.4750551664576E-03
(PID.TID 0000.0001) %MON dynstat_theta_del2           =   1.0075814766415E-05
(PID.TID 0000.0001) %MON dynstat_salt_max             =   3.4400000000000E+01
(PID.TID 0000.0001) %MON dynstat_salt_min             =   3.4355000532729E+01
(PID.TID 0000.0001) %MON dynstat_salt_mean            =   3.4399943467653E+01
(PID.TID 0000.0001) %MON dynstat_salt_sd              =   5.4440836877300E-04
(PID.TID 0000.0001) %MON dynstat_salt_del2            =   3.7179875449004E-06
(PID.TID 0000.0001) %MON trAdv_CFL_u_max              =   2.7985239968102E-04
(PID.TID 0000.0001) %MON trAdv_CFL_v_max              =   1.7265589866632E-04
(PID.TID 0000.0001) %MON trAdv_CFL_w_max              =   2.5576384907173E-04
(PID.TID 0000.0001) %MON advcfl_uvel_max              =   3.1594183470021E-04
(PID.TID 0000.0001) %MON advcfl_vvel_max              =   1.6974398536214E-04
(PID.TID 0000.0001) %MON advcfl_wvel_max              =   1.3422424686358E-04
(PID.TID 0000.0001) %MON advcfl_W_hf_max              =   4.2210092997714E-04
(PID.TID 0000.0001) %MON pe_b_mean                    =   6.2059788536585E-10
(PID.TID 0000.0001) %MON ke_max                       =   7.3072410076219E-07
(PID.TID 0000.0001) %MON ke_mean                      =   4.7756089644324E-10
(PID.TID 0000.0001) %MON ke_vol                       =   2.9241705273105E+14
(PID.TID 0000.0001) %MON vort_r_min                   =  -1.5969989582903E-07
(PID.TID 0000.0001) %MON vort_r_max                   =   1.5811353375837E-07
(PID.TID 0000.0001) %MON vort_a_mean                  =  -1.4007437279564E-04
(PID.TID 0000.0001) %MON vort_a_sd                    =   1.7682746772937E-06
(PID.TID 0000.0001) %MON vort_p_mean                  =  -1.5039772196724E-04
(PID.TID 0000.0001) %MON vort_p_sd                    =   8.7068404259131E-05
(PID.TID 0000.0001) %MON surfExpan_theta_mean         =   4.5140919558919E-12
(PID.TID 0000.0001) %MON surfExpan_salt_mean          =   1.6654812212291E-12
(PID.TID 0000.0001) // =======================================================
(PID.TID 0000.0001) // End MONITOR dynamic field statistics
(PID.TID 0000.0001) // =======================================================
 cg2d: Sum(rhs),rhsMax =  -2.22044604925031E-14  4.98022890896206E-05
(PID.TID 0000.0001)      cg2d_init_res =   1.51138773454500E+00
(PID.TID 0000.0001)      cg2d_iters(min,last) =      -1     208
(PID.TID 0000.0001)      cg2d_last_res =   9.29901501017563E-14
(PID.TID 0000.0001) // =======================================================
(PID.TID 0000.0001) // Begin MONITOR dynamic field statistics
(PID.TID 0000.0001) // =======================================================
(PID.TID 0000.0001) %MON time_tsnumber                =                    14
(PID.TID 0000.0001) %MON time_secondsf                =   2.5200000000000E+04
(PID.TID 0000.0001) %MON dynstat_eta_max              =   1.6356372365037E-05
(PID.TID 0000.0001) %MON dynstat_eta_min              =  -4.2032129007444E-05
(PID.TID 0000.0001) %MON dynstat_eta_mean             =  -1.7302079087484E-21
(PID.TID 0000.0001) %MON dynstat_eta_sd               =   6.4936659119620E-06
(PID.TID 0000.0001) %MON dynstat_eta_del2             =   4.4287854249329E-08
(PID.TID 0000.0001) %MON dynstat_uvel_max             =   3.6034574940539E-05
(PID.TID 0000.0001) %MON dynstat_uvel_min             =  -1.2538576225205E-03
(PID.TID 0000.0001) %MON dynstat_uvel_mean            =   3.4871509317520E-08
(PID.TID 0000.0001) %MON dynstat_uvel_sd              =   3.2382887597247E-05
(PID.TID 0000.0001) %MON dynstat_uvel_del2            =   1.6694930599206E-07
(PID.TID 0000.0001) %MON dynstat_vvel_max             =   1.0181561911881E-03
(PID.TID 0000.0001) %MON dynstat_vvel_min             =  -2.9247997890299E-05
(PID.TID 0000.0001) %MON dynstat_vvel_mean            =   2.3270401133462E-07
(PID.TID 0000.0001) %MON dynstat_vvel_sd              =   1.0938730490700E-05
(PID.TID 0000.0001) %MON dynstat_vvel_del2            =   9.2290954195176E-08
(PID.TID 0000.0001) %MON dynstat_wvel_max             =   2.4783178988398E-06
(PID.TID 0000.0001) %MON dynstat_wvel_min             =  -2.4443362786636E-06
(PID.TID 0000.0001) %MON dynstat_wvel_mean            =   1.1327126799544E-10
(PID.TID 0000.0001) %MON dynstat_wvel_sd              =   4.8612660920013E-08
(PID.TID 0000.0001) %MON dynstat_wvel_del2            =   3.1457965520707E-10
(PID.TID 0000.0001) %MON dynstat_theta_max            =  -1.9000000000000E+00
(PID.TID 0000.0001) %MON dynstat_theta_min            =  -2.0293522177083E+00
(PID.TID 0000.0001) %MON dynstat_theta_mean           =  -1.9001645423219E+00
(PID.TID 0000.0001) %MON dynstat_theta_sd             =   1.5793541406482E-03
(PID.TID 0000.0001) %MON dynstat_theta_del2           =   1.0678737841230E-05
(PID.TID 0000.0001) %MON dynstat_salt_max             =   3.4400000000000E+01
(PID.TID 0000.0001) %MON dynstat_salt_min             =   3.4352274098261E+01
(PID.TID 0000.0001) %MON dynstat_salt_mean            =   3.4399939261378E+01
(PID.TID 0000.0001) %MON dynstat_salt_sd              =   5.8290030778109E-04
(PID.TID 0000.0001) %MON dynstat_salt_del2            =   3.9404105673333E-06
(PID.TID 0000.0001) %MON trAdv_CFL_u_max              =   3.1594187480079E-04
(PID.TID 0000.0001) %MON trAdv_CFL_v_max              =   1.7050246820692E-04
(PID.TID 0000.0001) %MON trAdv_CFL_w_max              =   2.8859536020876E-04
(PID.TID 0000.0001) %MON advcfl_uvel_max              =   3.4992509446437E-04
(PID.TID 0000.0001) %MON advcfl_vvel_max              =   1.6484284890478E-04
(PID.TID 0000.0001) %MON advcfl_wvel_max              =   1.4869907393039E-04
(PID.TID 0000.0001) %MON advcfl_W_hf_max              =   4.4429405899150E-04
(PID.TID 0000.0001) %MON pe_b_mean                    =   1.3293152201323E-09
(PID.TID 0000.0001) %MON ke_max                       =   8.1873828981096E-07
(PID.TID 0000.0001) %MON ke_mean                      =   5.7277708363682E-10
(PID.TID 0000.0001) %MON ke_vol                       =   2.9241705273105E+14
(PID.TID 0000.0001) %MON vort_r_min                   =  -1.5416755098065E-07
(PID.TID 0000.0001) %MON vort_r_max                   =   1.5241391000113E-07
(PID.TID 0000.0001) %MON vort_a_mean                  =  -1.4007437280882E-04
(PID.TID 0000.0001) %MON vort_a_sd                    =   1.7682747584449E-06
(PID.TID 0000.0001) %MON vort_p_mean                  =  -1.5039772198140E-04
(PID.TID 0000.0001) %MON vort_p_sd                    =   8.7066976828577E-05
(PID.TID 0000.0001) %MON surfExpan_theta_mean         =   5.0704866269281E-12
(PID.TID 0000.0001) %MON surfExpan_salt_mean          =   1.8707574429887E-12
(PID.TID 0000.0001) // =======================================================
(PID.TID 0000.0001) // End MONITOR dynamic field statistics
(PID.TID 0000.0001) // =======================================================
 cg2d: Sum(rhs),rhsMax =   3.33066907387547E-15  5.49642153598307E-05
(PID.TID 0000.0001)      cg2d_init_res =   1.44960324759085E+00
(PID.TID 0000.0001)      cg2d_iters(min,last) =      -1     208
(PID.TID 0000.0001)      cg2d_last_res =   8.68065826843471E-14
(PID.TID 0000.0001) // =======================================================
(PID.TID 0000.0001) // Begin MONITOR dynamic field statistics
(PID.TID 0000.0001) // =======================================================
(PID.TID 0000.0001) %MON time_tsnumber                =                    15
(PID.TID 0000.0001) %MON time_secondsf                =   2.7000000000000E+04
(PID.TID 0000.0001) %MON dynstat_eta_max              =   1.6136096662540E-05
(PID.TID 0000.0001) %MON dynstat_eta_min              =  -4.5776239016165E-05
(PID.TID 0000.0001) %MON dynstat_eta_mean             =  -2.9945906112953E-21
(PID.TID 0000.0001) %MON dynstat_eta_sd               =   7.2930085071390E-06
(PID.TID 0000.0001) %MON dynstat_eta_del2             =   5.0648745399062E-08
(PID.TID 0000.0001) %MON dynstat_uvel_max             =   3.9734656163975E-05
(PID.TID 0000.0001) %MON dynstat_uvel_min             =  -1.3661046881457E-03
(PID.TID 0000.0001) %MON dynstat_uvel_mean            =   4.5074663119057E-08
(PID.TID 0000.0001) %MON dynstat_uvel_sd              =   3.5456348211963E-05
(PID.TID 0000.0001) %MON dynstat_uvel_del2            =   1.8220429600000E-07
(PID.TID 0000.0001) %MON dynstat_vvel_max             =   9.7509223763428E-04
(PID.TID 0000.0001) %MON dynstat_vvel_min             =  -3.1503665022133E-05
(PID.TID 0000.0001) %MON dynstat_vvel_mean            =   2.3530214942448E-07
(PID.TID 0000.0001) %MON dynstat_vvel_sd              =   1.0301830492164E-05
(PID.TID 0000.0001) %MON dynstat_vvel_del2            =   8.7860802458081E-08
(PID.TID 0000.0001) %MON dynstat_wvel_max             =   2.7018851504075E-06
(PID.TID 0000.0001) %MON dynstat_wvel_min             =  -2.6698075852484E-06
(PID.TID 0000.0001) %MON dynstat_wvel_mean            =   1.1159119083152E-10
(PID.TID 0000.0001) %MON dynstat_wvel_sd              =   5.2349525867968E-08
(PID.TID 0000.0001) %MON dynstat_wvel_del2            =   3.2553291267117E-10
(PID.TID 0000.0001) %MON dynstat_theta_max            =  -1.9000000000000E+00
(PID.TID 0000.0001) %MON dynstat_theta_min            =  -2.0365132928048E+00
(PID.TID 0000.0001) %MON dynstat_theta_mean           =  -1.9001758860504E+00
(PID.TID 0000.0001) %MON dynstat_theta_sd             =   1.6825504314953E-03
(PID.TID 0000.0001) %MON dynstat_theta_del2           =   1.1261553524285E-05
(PID.TID 0000.0001) %MON dynstat_salt_max             =   3.4400000000000E+01
(PID.TID 0000.0001) %MON dynstat_salt_min             =   3.4349632690446E+01
(PID.TID 0000.0001) %MON dynstat_salt_mean            =   3.4399935074115E+01
(PID.TID 0000.0001) %MON dynstat_salt_sd              =   6.2098506626941E-04
(PID.TID 0000.0001) %MON dynstat_salt_del2            =   4.1554093170682E-06
(PID.TID 0000.0001) %MON trAdv_CFL_u_max              =   3.4992513887824E-04
(PID.TID 0000.0001) %MON trAdv_CFL_v_max              =   1.6557943154546E-04
(PID.TID 0000.0001) %MON trAdv_CFL_w_max              =   3.1998584011599E-04
(PID.TID 0000.0001) %MON advcfl_uvel_max              =   3.8125087207802E-04
(PID.TID 0000.0001) %MON advcfl_vvel_max              =   1.5787065264418E-04
(PID.TID 0000.0001) %MON advcfl_wvel_max              =   1.6211310902445E-04
(PID.TID 0000.0001) %MON advcfl_W_hf_max              =   4.6304356004601E-04
(PID.TID 0000.0001) %MON pe_b_mean                    =   2.0411704173532E-09
(PID.TID 0000.0001) %MON ke_max                       =   9.5914155355017E-07
(PID.TID 0000.0001) %MON ke_mean                      =   6.6821661495844E-10
(PID.TID 0000.0001) %MON ke_vol                       =   2.9241705273105E+14
(PID.TID 0000.0001) %MON vort_r_min                   =  -1.4661013824418E-07
(PID.TID 0000.0001) %MON vort_r_max                   =   1.4467209493093E-07
(PID.TID 0000.0001) %MON vort_a_mean                  =  -1.4007437282196E-04
(PID.TID 0000.0001) %MON vort_a_sd                    =   1.7682749083387E-06
(PID.TID 0000.0001) %MON vort_p_mean                  =  -1.5039772199551E-04
(PID.TID 0000.0001) %MON vort_p_sd                    =   8.7065637941130E-05
(PID.TID 0000.0001) %MON surfExpan_theta_mean         =   5.3933044250331E-12
(PID.TID 0000.0001) %MON surfExpan_salt_mean          =   1.9898518793037E-12
(PID.TID 0000.0001) // =======================================================
(PID.TID 0000.0001) // End MONITOR dynamic field statistics
(PID.TID 0000.0001) // =======================================================
 cg2d: Sum(rhs),rhsMax =   1.36557432028894E-14  6.11651826883268E-05
(PID.TID 0000.0001)      cg2d_init_res =   1.37148294030241E+00
(PID.TID 0000.0001)      cg2d_iters(min,last) =      -1     208
(PID.TID 0000.0001)      cg2d_last_res =   8.30849455034649E-14
(PID.TID 0000.0001) // =======================================================
(PID.TID 0000.0001) // Begin MONITOR dynamic field statistics
(PID.TID 0000.0001) // =======================================================
(PID.TID 0000.0001) %MON time_tsnumber                =                    16
(PID.TID 0000.0001) %MON time_secondsf                =   2.8800000000000E+04
(PID.TID 0000.0001) %MON dynstat_eta_max              =   1.5720871538143E-05
(PID.TID 0000.0001) %MON dynstat_eta_min              =  -4.9033365580337E-05
(PID.TID 0000.0001) %MON dynstat_eta_mean             =   7.3201103831662E-22
(PID.TID 0000.0001) %MON dynstat_eta_sd               =   8.0675312206809E-06
(PID.TID 0000.0001) %MON dynstat_eta_del2             =   5.7352743482893E-08
(PID.TID 0000.0001) %MON dynstat_uvel_max             =   4.3077986637064E-05
(PID.TID 0000.0001) %MON dynstat_uvel_min             =  -1.4675654272953E-03
(PID.TID 0000.0001) %MON dynstat_uvel_mean            =   5.4700541718773E-08
(PID.TID 0000.0001) %MON dynstat_uvel_sd              =   3.8237230669355E-05
(PID.TID 0000.0001) %MON dynstat_uvel_del2            =   1.9608184186603E-07
(PID.TID 0000.0001) %MON dynstat_vvel_max             =   9.2359891106602E-04
(PID.TID 0000.0001) %MON dynstat_vvel_min             =  -3.3434294187337E-05
(PID.TID 0000.0001) %MON dynstat_vvel_mean            =   2.2225046471564E-07
(PID.TID 0000.0001) %MON dynstat_vvel_sd              =   9.5140309177574E-06
(PID.TID 0000.0001) %MON dynstat_vvel_del2            =   8.2679516885240E-08
(PID.TID 0000.0001) %MON dynstat_wvel_max             =   2.9059480105655E-06
(PID.TID 0000.0001) %MON dynstat_wvel_min             =  -2.8786682973050E-06
(PID.TID 0000.0001) %MON dynstat_wvel_mean            =   1.0354789754854E-10
(PID.TID 0000.0001) %MON dynstat_wvel_sd              =   5.5737149310803E-08
(PID.TID 0000.0001) %MON dynstat_wvel_del2            =   3.3500890930234E-10
(PID.TID 0000.0001) %MON dynstat_theta_max            =  -1.9000000000000E+00
(PID.TID 0000.0001) %MON dynstat_theta_min            =  -2.0434524178388E+00
(PID.TID 0000.0001) %MON dynstat_theta_mean           =  -1.9001871788830E+00
(PID.TID 0000.0001) %MON dynstat_theta_sd             =   1.7846758885356E-03
(PID.TID 0000.0001) %MON dynstat_theta_del2           =   1.1824972040593E-05
(PID.TID 0000.0001) %MON dynstat_salt_max             =   3.4400000000000E+01
(PID.TID 0000.0001) %MON dynstat_salt_min             =   3.4347073227604E+01
(PID.TID 0000.0001) %MON dynstat_salt_mean            =   3.4399930905653E+01
(PID.TID 0000.0001) %MON dynstat_salt_sd              =   6.5867441642977E-04
(PID.TID 0000.0001) %MON dynstat_salt_del2            =   4.3632463363751E-06
(PID.TID 0000.0001) %MON trAdv_CFL_u_max              =   3.8125092046788E-04
(PID.TID 0000.0001) %MON trAdv_CFL_v_max              =   1.5857608077154E-04
(PID.TID 0000.0001) %MON trAdv_CFL_w_max              =   3.4950208388709E-04
(PID.TID 0000.0001) %MON advcfl_uvel_max              =   4.0956641452374E-04
(PID.TID 0000.0001) %MON advcfl_vvel_max              =   1.4953371306206E-04
(PID.TID 0000.0001) %MON advcfl_wvel_max              =   1.7435688063393E-04
(PID.TID 0000.0001) %MON advcfl_W_hf_max              =   4.7891080373916E-04
(PID.TID 0000.0001) %MON pe_b_mean                    =   2.7053194756241E-09
(PID.TID 0000.0001) %MON ke_max                       =   1.0994718017907E-06
(PID.TID 0000.0001) %MON ke_mean                      =   7.6087589191751E-10
(PID.TID 0000.0001) %MON ke_vol                       =   2.9241705273105E+14
(PID.TID 0000.0001) %MON vort_r_min                   =  -1.3772928507326E-07
(PID.TID 0000.0001) %MON vort_r_max                   =   1.3558867547117E-07
(PID.TID 0000.0001) %MON vort_a_mean                  =  -1.4007437283350E-04
(PID.TID 0000.0001) %MON vort_a_sd                    =   1.7682751174444E-06
(PID.TID 0000.0001) %MON vort_p_mean                  =  -1.5039772200790E-04
(PID.TID 0000.0001) %MON vort_p_sd                    =   8.7064401549384E-05
(PID.TID 0000.0001) %MON surfExpan_theta_mean         =   5.4393725143223E-12
(PID.TID 0000.0001) %MON surfExpan_salt_mean          =   2.0068378487304E-12
(PID.TID 0000.0001) // =======================================================
(PID.TID 0000.0001) // End MONITOR dynamic field statistics
(PID.TID 0000.0001) // =======================================================
 cg2d: Sum(rhs),rhsMax =   1.55431223447522E-15  6.98770979494926E-05
(PID.TID 0000.0001)      cg2d_init_res =   1.25805573691292E+00
(PID.TID 0000.0001)      cg2d_iters(min,last) =      -1     207
(PID.TID 0000.0001)      cg2d_last_res =   9.82302741097135E-14
(PID.TID 0000.0001) // =======================================================
(PID.TID 0000.0001) // Begin MONITOR dynamic field statistics
(PID.TID 0000.0001) // =======================================================
(PID.TID 0000.0001) %MON time_tsnumber                =                    17
(PID.TID 0000.0001) %MON time_secondsf                =   3.0600000000000E+04
(PID.TID 0000.0001) %MON dynstat_eta_max              =   1.5200440344965E-05
(PID.TID 0000.0001) %MON dynstat_eta_min              =  -5.1723866991422E-05
(PID.TID 0000.0001) %MON dynstat_eta_mean             =   1.0647433284605E-21
(PID.TID 0000.0001) %MON dynstat_eta_sd               =   8.7723947655049E-06
(PID.TID 0000.0001) %MON dynstat_eta_del2             =   6.4383975535744E-08
(PID.TID 0000.0001) %MON dynstat_uvel_max             =   4.6013587878024E-05
(PID.TID 0000.0001) %MON dynstat_uvel_min             =  -1.5576723033682E-03
(PID.TID 0000.0001) %MON dynstat_uvel_mean            =   6.3163607663887E-08
(PID.TID 0000.0001) %MON dynstat_uvel_sd              =   4.0699487160552E-05
(PID.TID 0000.0001) %MON dynstat_uvel_del2            =   2.0850578947011E-07
(PID.TID 0000.0001) %MON dynstat_vvel_max             =   8.6787943244048E-04
(PID.TID 0000.0001) %MON dynstat_vvel_min             =  -3.5011782821218E-05
(PID.TID 0000.0001) %MON dynstat_vvel_mean            =   1.9486359557192E-07
(PID.TID 0000.0001) %MON dynstat_vvel_sd              =   8.6418456976662E-06
(PID.TID 0000.0001) %MON dynstat_vvel_del2            =   7.7141090488791E-08
(PID.TID 0000.0001) %MON dynstat_wvel_max             =   3.0900010261512E-06
(PID.TID 0000.0001) %MON dynstat_wvel_min             =  -3.0696049441507E-06
(PID.TID 0000.0001) %MON dynstat_wvel_mean            =   8.9786928990252E-11
(PID.TID 0000.0001) %MON dynstat_wvel_sd              =   5.8763296947452E-08
(PID.TID 0000.0001) %MON dynstat_wvel_del2            =   3.4368467918201E-10
(PID.TID 0000.0001) %MON dynstat_theta_max            =  -1.9000000000000E+00
(PID.TID 0000.0001) %MON dynstat_theta_min            =  -2.0501775331793E+00
(PID.TID 0000.0001) %MON dynstat_theta_mean           =  -1.9001984213713E+00
(PID.TID 0000.0001) %MON dynstat_theta_sd             =   1.8857609203010E-03
(PID.TID 0000.0001) %MON dynstat_theta_del2           =   1.2369673488213E-05
(PID.TID 0000.0001) %MON dynstat_salt_max             =   3.4400000000000E+01
(PID.TID 0000.0001) %MON dynstat_salt_min             =   3.4344592774346E+01
(PID.TID 0000.0001) %MON dynstat_salt_mean            =   3.4399926755789E+01
(PID.TID 0000.0001) %MON dynstat_salt_sd              =   6.9597959711618E-04
(PID.TID 0000.0001) %MON dynstat_salt_del2            =   4.5641730148381E-06
(PID.TID 0000.0001) %MON trAdv_CFL_u_max              =   4.0956646650751E-04
(PID.TID 0000.0001) %MON trAdv_CFL_v_max              =   1.5020188846652E-04
(PID.TID 0000.0001) %MON trAdv_CFL_w_max              =   3.7684384982905E-04
(PID.TID 0000.0001) %MON advcfl_uvel_max              =   4.3471333436165E-04
(PID.TID 0000.0001) %MON advcfl_vvel_max              =   1.4051254550877E-04
(PID.TID 0000.0001) %MON advcfl_wvel_max              =   1.8540006156907E-04
(PID.TID 0000.0001) %MON advcfl_W_hf_max              =   4.9251595125569E-04
(PID.TID 0000.0001) %MON pe_b_mean                    =   3.2753018886498E-09
(PID.TID 0000.0001) %MON ke_max                       =   1.2323534143133E-06
(PID.TID 0000.0001) %MON ke_mean                      =   8.4824412875452E-10
(PID.TID 0000.0001) %MON ke_vol                       =   2.9241705273105E+14
(PID.TID 0000.0001) %MON vort_r_min                   =  -1.2820133627081E-07
(PID.TID 0000.0001) %MON vort_r_max                   =   1.2584208458985E-07
(PID.TID 0000.0001) %MON vort_a_mean                  =  -1.4007437284207E-04
(PID.TID 0000.0001) %MON vort_a_sd                    =   1.7682753755538E-06
(PID.TID 0000.0001) %MON vort_p_mean                  =  -1.5039772201710E-04
(PID.TID 0000.0001) %MON vort_p_sd                    =   8.7063274882141E-05
(PID.TID 0000.0001) %MON surfExpan_theta_mean         =   5.1933337183898E-12
(PID.TID 0000.0001) %MON surfExpan_salt_mean          =   1.9160517702004E-12
(PID.TID 0000.0001) // =======================================================
(PID.TID 0000.0001) // End MONITOR dynamic field statistics
(PID.TID 0000.0001) // =======================================================
 cg2d: Sum(rhs),rhsMax =   1.77635683940025E-15  7.90147953901174E-05
(PID.TID 0000.0001)      cg2d_init_res =   1.16119637582184E+00
(PID.TID 0000.0001)      cg2d_iters(min,last) =      -1     207
(PID.TID 0000.0001)      cg2d_last_res =   8.78701027861777E-14
(PID.TID 0000.0001) // =======================================================
(PID.TID 0000.0001) // Begin MONITOR dynamic field statistics
(PID.TID 0000.0001) // =======================================================
(PID.TID 0000.0001) %MON time_tsnumber                =                    18
(PID.TID 0000.0001) %MON time_secondsf                =   3.2400000000000E+04
(PID.TID 0000.0001) %MON dynstat_eta_max              =   1.4667658001734E-05
(PID.TID 0000.0001) %MON dynstat_eta_min              =  -5.3807090328961E-05
(PID.TID 0000.0001) %MON dynstat_eta_mean             =  -2.1294866569211E-21
(PID.TID 0000.0001) %MON dynstat_eta_sd               =   9.3697336418213E-06
(PID.TID 0000.0001) %MON dynstat_eta_del2             =   7.1727313187417E-08
(PID.TID 0000.0001) %MON dynstat_uvel_max             =   4.8517738889196E-05
(PID.TID 0000.0001) %MON dynstat_uvel_min             =  -1.6365024513219E-03
(PID.TID 0000.0001) %MON dynstat_uvel_mean            =   6.9998186652269E-08
(PID.TID 0000.0001) %MON dynstat_uvel_sd              =   4.2837411641255E-05
(PID.TID 0000.0001) %MON dynstat_uvel_del2            =   2.1948594542028E-07
(PID.TID 0000.0001) %MON dynstat_vvel_max             =   8.1174980337972E-04
(PID.TID 0000.0001) %MON dynstat_vvel_min             =  -3.6221850376045E-05
(PID.TID 0000.0001) %MON dynstat_vvel_mean            =   1.5575920941110E-07
(PID.TID 0000.0001) %MON dynstat_vvel_sd              =   7.7531609746029E-06
(PID.TID 0000.0001) %MON dynstat_vvel_del2            =   7.1597385225116E-08
(PID.TID 0000.0001) %MON dynstat_wvel_max             =   3.2546830236746E-06
(PID.TID 0000.0001) %MON dynstat_wvel_min             =  -3.2422053970945E-06
(PID.TID 0000.0001) %MON dynstat_wvel_mean            =   7.1451003167049E-11
(PID.TID 0000.0001) %MON dynstat_wvel_sd              =   6.1432419911652E-08
(PID.TID 0000.0001) %MON dynstat_wvel_del2            =   3.5211525538979E-10
(PID.TID 0000.0001) %MON dynstat_theta_max            =  -1.9000000000000E+00
(PID.TID 0000.0001) %MON dynstat_theta_min            =  -2.0566962100025E+00
(PID.TID 0000.0001) %MON dynstat_theta_mean           =  -1.9002096140529E+00
(PID.TID 0000.0001) %MON dynstat_theta_sd             =   1.9858345768667E-03
(PID.TID 0000.0001) %MON dynstat_theta_del2           =   1.2896309155887E-05
(PID.TID 0000.0001) %MON dynstat_salt_max             =   3.4400000000000E+01
(PID.TID 0000.0001) %MON dynstat_salt_min             =   3.4342188531949E+01
(PID.TID 0000.0001) %MON dynstat_salt_mean            =   3.4399922624323E+01
(PID.TID 0000.0001) %MON dynstat_salt_sd              =   7.3291134444011E-04
(PID.TID 0000.0001) %MON dynstat_salt_del2            =   4.7584300783053E-06
(PID.TID 0000.0001) %MON trAdv_CFL_u_max              =   4.3471338953717E-04
(PID.TID 0000.0001) %MON trAdv_CFL_v_max              =   1.4114041079082E-04
(PID.TID 0000.0001) %MON trAdv_CFL_w_max              =   4.0183919268885E-04
(PID.TID 0000.0001) %MON advcfl_uvel_max              =   4.5671315832405E-04
(PID.TID 0000.0001) %MON advcfl_vvel_max              =   1.3142497324587E-04
(PID.TID 0000.0001) %MON advcfl_wvel_max              =   1.9528098142048E-04
(PID.TID 0000.0001) %MON advcfl_W_hf_max              =   5.0448331886298E-04
(PID.TID 0000.0001) %MON pe_b_mean                    =   3.7131968825995E-09
(PID.TID 0000.0001) %MON ke_max                       =   1.3551073672125E-06
(PID.TID 0000.0001) %MON ke_mean                      =   9.2851385475578E-10
(PID.TID 0000.0001) %MON ke_vol                       =   2.9241705273105E+14
(PID.TID 0000.0001) %MON vort_r_min                   =  -1.2641715237480E-07
(PID.TID 0000.0001) %MON vort_r_max                   =   1.2861004024382E-07
(PID.TID 0000.0001) %MON vort_a_mean                  =  -1.4007437284663E-04
(PID.TID 0000.0001) %MON vort_a_sd                    =   1.7682756724298E-06
(PID.TID 0000.0001) %MON vort_p_mean                  =  -1.5039772202200E-04
(PID.TID 0000.0001) %MON vort_p_sd                    =   8.7062258993541E-05
(PID.TID 0000.0001) %MON surfExpan_theta_mean         =   4.6703187784863E-12
(PID.TID 0000.0001) %MON surfExpan_salt_mean          =   1.7230785680543E-12
(PID.TID 0000.0001) // =======================================================
(PID.TID 0000.0001) // End MONITOR dynamic field statistics
(PID.TID 0000.0001) // =======================================================
 cg2d: Sum(rhs),rhsMax =   8.65973959207622E-15  8.85205017607712E-05
(PID.TID 0000.0001)      cg2d_init_res =   1.07799062742389E+00
(PID.TID 0000.0001)      cg2d_iters(min,last) =      -1     206
(PID.TID 0000.0001)      cg2d_last_res =   9.16621960693535E-14
(PID.TID 0000.0001) // =======================================================
(PID.TID 0000.0001) // Begin MONITOR dynamic field statistics
(PID.TID 0000.0001) // =======================================================
(PID.TID 0000.0001) %MON time_tsnumber                =                    19
(PID.TID 0000.0001) %MON time_secondsf                =   3.4200000000000E+04
(PID.TID 0000.0001) %MON dynstat_eta_max              =   1.4211304440495E-05
(PID.TID 0000.0001) %MON dynstat_eta_min              =  -5.5285803069887E-05
(PID.TID 0000.0001) %MON dynstat_eta_mean             =  -1.9963937408635E-21
(PID.TID 0000.0001) %MON dynstat_eta_sd               =   9.8336610983087E-06
(PID.TID 0000.0001) %MON dynstat_eta_del2             =   7.9368492727399E-08
(PID.TID 0000.0001) %MON dynstat_uvel_max             =   5.0593821028463E-05
(PID.TID 0000.0001) %MON dynstat_uvel_min             =  -1.7046941181781E-03
(PID.TID 0000.0001) %MON dynstat_uvel_mean            =   7.4887386024572E-08
(PID.TID 0000.0001) %MON dynstat_uvel_sd              =   4.4664238517318E-05
(PID.TID 0000.0001) %MON dynstat_uvel_del2            =   2.2910625238707E-07
(PID.TID 0000.0001) %MON dynstat_vvel_max             =   7.5847037985169E-04
(PID.TID 0000.0001) %MON dynstat_vvel_min             =  -3.7064153649222E-05
(PID.TID 0000.0001) %MON dynstat_vvel_mean            =   1.0849369095594E-07
(PID.TID 0000.0001) %MON dynstat_vvel_sd              =   6.9117608377073E-06
(PID.TID 0000.0001) %MON dynstat_vvel_del2            =   6.6341151249520E-08
(PID.TID 0000.0001) %MON dynstat_wvel_max             =   3.4015542309042E-06
(PID.TID 0000.0001) %MON dynstat_wvel_min             =  -3.3968486230008E-06
(PID.TID 0000.0001) %MON dynstat_wvel_mean            =   5.0052673281830E-11
(PID.TID 0000.0001) %MON dynstat_wvel_sd              =   6.3764595399974E-08
(PID.TID 0000.0001) %MON dynstat_wvel_del2            =   3.6068030270853E-10
(PID.TID 0000.0001) %MON dynstat_theta_max            =  -1.9000000000000E+00
(PID.TID 0000.0001) %MON dynstat_theta_min            =  -2.0630156752851E+00
(PID.TID 0000.0001) %MON dynstat_theta_mean           =  -1.9002207574521E+00
(PID.TID 0000.0001) %MON dynstat_theta_sd             =   2.0849246271842E-03
(PID.TID 0000.0001) %MON dynstat_theta_del2           =   1.3405502867876E-05
(PID.TID 0000.0001) %MON dynstat_salt_max             =   3.4400000000000E+01
(PID.TID 0000.0001) %MON dynstat_salt_min             =   3.4339857829092E+01
(PID.TID 0000.0001) %MON dynstat_salt_mean            =   3.4399918511062E+01
(PID.TID 0000.0001) %MON dynstat_salt_sd              =   7.6947992042986E-04
(PID.TID 0000.0001) %MON dynstat_salt_del2            =   4.9462480876532E-06
(PID.TID 0000.0001) %MON trAdv_CFL_u_max              =   4.5671321629188E-04
(PID.TID 0000.0001) %MON trAdv_CFL_v_max              =   1.3201223168316E-04
(PID.TID 0000.0001) %MON trAdv_CFL_w_max              =   4.2443416107422E-04
(PID.TID 0000.0001) %MON advcfl_uvel_max              =   4.7574400763081E-04
(PID.TID 0000.0001) %MON advcfl_vvel_max              =   1.2279885866897E-04
(PID.TID 0000.0001) %MON advcfl_wvel_max              =   2.0409325385425E-04
(PID.TID 0000.0001) %MON advcfl_W_hf_max              =   5.1539711074706E-04
(PID.TID 0000.0001) %MON pe_b_mean                    =   3.9927011530720E-09
(PID.TID 0000.0001) %MON ke_max                       =   1.4663188593309E-06
(PID.TID 0000.0001) %MON ke_mean                      =   1.0007051016606E-09
(PID.TID 0000.0001) %MON ke_vol                       =   2.9241705273105E+14
(PID.TID 0000.0001) %MON vort_r_min                   =  -1.3242010852926E-07
(PID.TID 0000.0001) %MON vort_r_max                   =   1.3484405425620E-07
(PID.TID 0000.0001) %MON vort_a_mean                  =  -1.4007437284657E-04
(PID.TID 0000.0001) %MON vort_a_sd                    =   1.7682759990310E-06
(PID.TID 0000.0001) %MON vort_p_mean                  =  -1.5039772202193E-04
(PID.TID 0000.0001) %MON vort_p_sd                    =   8.7061349576062E-05
(PID.TID 0000.0001) %MON surfExpan_theta_mean         =   3.9147782312096E-12
(PID.TID 0000.0001) %MON surfExpan_salt_mean          =   1.4443201748567E-12
(PID.TID 0000.0001) // =======================================================
(PID.TID 0000.0001) // End MONITOR dynamic field statistics
(PID.TID 0000.0001) // =======================================================
 cg2d: Sum(rhs),rhsMax =   6.21724893790088E-15  9.83351011393489E-05
(PID.TID 0000.0001)      cg2d_init_res =   1.00613164287280E+00
(PID.TID 0000.0001)      cg2d_iters(min,last) =      -1     205
(PID.TID 0000.0001)      cg2d_last_res =   9.17181948647186E-14
(PID.TID 0000.0001) // =======================================================
(PID.TID 0000.0001) // Begin MONITOR dynamic field statistics
(PID.TID 0000.0001) // =======================================================
(PID.TID 0000.0001) %MON time_tsnumber                =                    20
(PID.TID 0000.0001) %MON time_secondsf                =   3.6000000000000E+04
(PID.TID 0000.0001) %MON dynstat_eta_max              =   1.3909716638311E-05
(PID.TID 0000.0001) %MON dynstat_eta_min              =  -5.6206263625599E-05
(PID.TID 0000.0001) %MON dynstat_eta_mean             =  -4.2589733138422E-21
(PID.TID 0000.0001) %MON dynstat_eta_sd               =   1.0153047248757E-05
(PID.TID 0000.0001) %MON dynstat_eta_del2             =   8.7294191321814E-08
(PID.TID 0000.0001) %MON dynstat_uvel_max             =   5.2274690019106E-05
(PID.TID 0000.0001) %MON dynstat_uvel_min             =  -1.7633393740109E-03
(PID.TID 0000.0001) %MON dynstat_uvel_mean            =   7.7679593636122E-08
(PID.TID 0000.0001) %MON dynstat_uvel_sd              =   4.6209656029235E-05
(PID.TID 0000.0001) %MON dynstat_uvel_del2            =   2.3750967625681E-07
(PID.TID 0000.0001) %MON dynstat_vvel_max             =   7.1063671682137E-04
(PID.TID 0000.0001) %MON dynstat_vvel_min             =  -3.7552111557443E-05
(PID.TID 0000.0001) %MON dynstat_vvel_mean            =   5.7144809975582E-08
(PID.TID 0000.0001) %MON dynstat_vvel_sd              =   6.1713402597360E-06
(PID.TID 0000.0001) %MON dynstat_vvel_del2            =   6.1595102067660E-08
(PID.TID 0000.0001) %MON dynstat_wvel_max             =   3.5328474532290E-06
(PID.TID 0000.0001) %MON dynstat_wvel_min             =  -3.5345736079194E-06
(PID.TID 0000.0001) %MON dynstat_wvel_mean            =   2.7314000109607E-11
(PID.TID 0000.0001) %MON dynstat_wvel_sd              =   6.5794224622979E-08
(PID.TID 0000.0001) %MON dynstat_wvel_del2            =   3.6957703474878E-10
(PID.TID 0000.0001) %MON dynstat_theta_max            =  -1.9000000000000E+00
(PID.TID 0000.0001) %MON dynstat_theta_min            =  -2.0691428354200E+00
(PID.TID 0000.0001) %MON dynstat_theta_mean           =  -1.9002318520805E+00
(PID.TID 0000.0001) %MON dynstat_theta_sd             =   2.1830576312695E-03
(PID.TID 0000.0001) %MON dynstat_theta_del2           =   1.3897852349096E-05
(PID.TID 0000.0001) %MON dynstat_salt_max             =   3.4400000000000E+01
(PID.TID 0000.0001) %MON dynstat_salt_min             =   3.4337598113118E+01
(PID.TID 0000.0001) %MON dynstat_salt_mean            =   3.4399914415818E+01
(PID.TID 0000.0001) %MON dynstat_salt_sd              =   8.0569513978016E-04
(PID.TID 0000.0001) %MON dynstat_salt_del2            =   5.1278479448407E-06
(PID.TID 0000.0001) %MON trAdv_CFL_u_max              =   4.7574406801411E-04
(PID.TID 0000.0001) %MON trAdv_CFL_v_max              =   1.2334757223582E-04
(PID.TID 0000.0001) %MON trAdv_CFL_w_max              =   4.4467836519287E-04
(PID.TID 0000.0001) %MON advcfl_uvel_max              =   4.9211065589979E-04
(PID.TID 0000.0001) %MON advcfl_vvel_max              =   1.1505443069641E-04
(PID.TID 0000.0001) %MON advcfl_wvel_max              =   2.1207441647516E-04
(PID.TID 0000.0001) %MON advcfl_W_hf_max              =   5.2576839112900E-04
(PID.TID 0000.0001) %MON pe_b_mean                    =   4.1008967378174E-09
(PID.TID 0000.0001) %MON ke_max                       =   1.5658082395516E-06
(PID.TID 0000.0001) %MON ke_mean                      =   1.0647005772575E-09
(PID.TID 0000.0001) %MON ke_vol                       =   2.9241705273105E+14
(PID.TID 0000.0001) %MON vort_r_min                   =  -1.3778212957535E-07
(PID.TID 0000.0001) %MON vort_r_max                   =   1.4049709024066E-07
(PID.TID 0000.0001) %MON vort_a_mean                  =  -1.4007437284178E-04
(PID.TID 0000.0001) %MON vort_a_sd                    =   1.7682763472234E-06
(PID.TID 0000.0001) %MON vort_p_mean                  =  -1.5039772201679E-04
(PID.TID 0000.0001) %MON vort_p_sd                    =   8.7060537952623E-05
(PID.TID 0000.0001) %MON surfExpan_theta_mean         =   2.9957763107490E-12
(PID.TID 0000.0001) %MON surfExpan_salt_mean          =   1.1052588045643E-12
(PID.TID 0000.0001) // =======================================================
(PID.TID 0000.0001) // End MONITOR dynamic field statistics
(PID.TID 0000.0001) // =======================================================
(PID.TID 0000.0001) DIAGSTATS_CLOSE_IO: close file: dynStDiag.0000000000.txt , unit=     9
(PID.TID 0000.0001) %CHECKPOINT        20 ckptA
(PID.TID 0000.0001)   Seconds in section "ALL                    [THE_MODEL_MAIN]":
(PID.TID 0000.0001)           User time:   31.263580571860075
(PID.TID 0000.0001)         System time:  0.33199800504371524
(PID.TID 0000.0001)     Wall clock time:   31.598903894424438
(PID.TID 0000.0001)          No. starts:           1
(PID.TID 0000.0001)           No. stops:           1
(PID.TID 0000.0001)   Seconds in section "INITIALISE_FIXED       [THE_MODEL_MAIN]":
(PID.TID 0000.0001)           User time:  0.29647299274802208
(PID.TID 0000.0001)         System time:   7.6151996385306120E-002
(PID.TID 0000.0001)     Wall clock time:  0.37337303161621094
(PID.TID 0000.0001)          No. starts:           1
(PID.TID 0000.0001)           No. stops:           1
(PID.TID 0000.0001)   Seconds in section "THE_MAIN_LOOP          [THE_MODEL_MAIN]":
(PID.TID 0000.0001)           User time:   30.967050939798355
(PID.TID 0000.0001)         System time:  0.25583400577306747
(PID.TID 0000.0001)     Wall clock time:   31.225476980209351
(PID.TID 0000.0001)          No. starts:           1
(PID.TID 0000.0001)           No. stops:           1
(PID.TID 0000.0001)   Seconds in section "INITIALISE_VARIA    [THE_MAIN_LOOP]":
(PID.TID 0000.0001)           User time:  0.39723202586174011
(PID.TID 0000.0001)         System time:  0.14042899012565613
(PID.TID 0000.0001)     Wall clock time:  0.53795909881591797
(PID.TID 0000.0001)          No. starts:           1
(PID.TID 0000.0001)           No. stops:           1
(PID.TID 0000.0001)   Seconds in section "MAIN LOOP           [THE_MAIN_LOOP]":
(PID.TID 0000.0001)           User time:   30.569791316986084
(PID.TID 0000.0001)         System time:  0.11539900302886963
(PID.TID 0000.0001)     Wall clock time:   30.687488079071045
(PID.TID 0000.0001)          No. starts:           1
(PID.TID 0000.0001)           No. stops:           1
(PID.TID 0000.0001)   Seconds in section "MAIN_DO_LOOP        [THE_MAIN_LOOP]":
(PID.TID 0000.0001)           User time:   30.569615483283997
(PID.TID 0000.0001)         System time:  0.11539600789546967
(PID.TID 0000.0001)     Wall clock time:   30.687301635742188
(PID.TID 0000.0001)          No. starts:          20
(PID.TID 0000.0001)           No. stops:          20
(PID.TID 0000.0001)   Seconds in section "FORWARD_STEP        [MAIN_DO_LOOP]":
(PID.TID 0000.0001)           User time:   30.569253146648407
(PID.TID 0000.0001)         System time:  0.11539401113986969
(PID.TID 0000.0001)     Wall clock time:   30.686947345733643
(PID.TID 0000.0001)          No. starts:          20
(PID.TID 0000.0001)           No. stops:          20
(PID.TID 0000.0001)   Seconds in section "DO_STATEVARS_DIAGS  [FORWARD_STEP]":
(PID.TID 0000.0001)           User time:   1.3368550539016724
(PID.TID 0000.0001)         System time:   0.0000000000000000
(PID.TID 0000.0001)     Wall clock time:   1.3369655609130859
(PID.TID 0000.0001)          No. starts:          40
(PID.TID 0000.0001)           No. stops:          40
(PID.TID 0000.0001)   Seconds in section "LOAD_FIELDS_DRIVER  [FORWARD_STEP]":
(PID.TID 0000.0001)           User time:   5.2136182785034180E-004
(PID.TID 0000.0001)         System time:   0.0000000000000000
(PID.TID 0000.0001)     Wall clock time:   5.2857398986816406E-004
(PID.TID 0000.0001)          No. starts:          20
(PID.TID 0000.0001)           No. stops:          20
(PID.TID 0000.0001)   Seconds in section "EXTERNAL_FLDS_LOAD [LOAD_FLDS_DRIVER]":
(PID.TID 0000.0001)           User time:   1.7690658569335938E-004
(PID.TID 0000.0001)         System time:   0.0000000000000000
(PID.TID 0000.0001)     Wall clock time:   1.7642974853515625E-004
(PID.TID 0000.0001)          No. starts:          20
(PID.TID 0000.0001)           No. stops:          20
(PID.TID 0000.0001)   Seconds in section "DO_ATMOSPHERIC_PHYS [FORWARD_STEP]":
(PID.TID 0000.0001)           User time:   1.7976760864257812E-004
(PID.TID 0000.0001)         System time:   0.0000000000000000
(PID.TID 0000.0001)     Wall clock time:   1.8548965454101562E-004
(PID.TID 0000.0001)          No. starts:          20
(PID.TID 0000.0001)           No. stops:          20
(PID.TID 0000.0001)   Seconds in section "DO_OCEANIC_PHYS     [FORWARD_STEP]":
(PID.TID 0000.0001)           User time:   1.5399918556213379
(PID.TID 0000.0001)         System time:   3.5764008760452271E-002
(PID.TID 0000.0001)     Wall clock time:   1.5758640766143799
(PID.TID 0000.0001)          No. starts:          20
(PID.TID 0000.0001)           No. stops:          20
(PID.TID 0000.0001)   Seconds in section "STIC_THERMODYNAMICS [DO_OCEANIC_PHYS]":
(PID.TID 0000.0001)           User time:   1.1168724298477173
(PID.TID 0000.0001)         System time:   3.1450003385543823E-002
(PID.TID 0000.0001)     Wall clock time:   1.1484544277191162
(PID.TID 0000.0001)          No. starts:          20
(PID.TID 0000.0001)           No. stops:          20
(PID.TID 0000.0001)   Seconds in section "THERMODYNAMICS      [FORWARD_STEP]":
(PID.TID 0000.0001)           User time:   5.1676692366600037
(PID.TID 0000.0001)         System time:   3.8820207118988037E-003
(PID.TID 0000.0001)     Wall clock time:   5.1722104549407959
(PID.TID 0000.0001)          No. starts:          20
(PID.TID 0000.0001)           No. stops:          20
(PID.TID 0000.0001)   Seconds in section "DYNAMICS            [FORWARD_STEP]":
(PID.TID 0000.0001)           User time:   10.481908917427063
(PID.TID 0000.0001)         System time:   3.7330090999603271E-003
(PID.TID 0000.0001)     Wall clock time:   10.486506938934326
(PID.TID 0000.0001)          No. starts:          20
(PID.TID 0000.0001)           No. stops:          20
(PID.TID 0000.0001)   Seconds in section "UPDATE_SURF_DR      [FORWARD_STEP]":
(PID.TID 0000.0001)           User time:  0.13439917564392090
(PID.TID 0000.0001)         System time:   3.7490129470825195E-003
(PID.TID 0000.0001)     Wall clock time:  0.13820433616638184
(PID.TID 0000.0001)          No. starts:          20
(PID.TID 0000.0001)           No. stops:          20
(PID.TID 0000.0001)   Seconds in section "SOLVE_FOR_PRESSURE  [FORWARD_STEP]":
(PID.TID 0000.0001)           User time:   6.0331963300704956
(PID.TID 0000.0001)         System time:   1.4197826385498047E-004
(PID.TID 0000.0001)     Wall clock time:   6.0338850021362305
(PID.TID 0000.0001)          No. starts:          20
(PID.TID 0000.0001)           No. stops:          20
(PID.TID 0000.0001)   Seconds in section "MOM_CORRECTION_STEP [FORWARD_STEP]":
(PID.TID 0000.0001)           User time:  0.37565386295318604
(PID.TID 0000.0001)         System time:   0.0000000000000000
(PID.TID 0000.0001)     Wall clock time:  0.37572669982910156
(PID.TID 0000.0001)          No. starts:          20
(PID.TID 0000.0001)           No. stops:          20
(PID.TID 0000.0001)   Seconds in section "INTEGR_CONTINUITY   [FORWARD_STEP]":
(PID.TID 0000.0001)           User time:  0.64744448661804199
(PID.TID 0000.0001)         System time:   0.0000000000000000
(PID.TID 0000.0001)     Wall clock time:  0.64751815795898438
(PID.TID 0000.0001)          No. starts:          20
(PID.TID 0000.0001)           No. stops:          20
(PID.TID 0000.0001)   Seconds in section "TRC_CORRECTION_STEP [FORWARD_STEP]":
(PID.TID 0000.0001)           User time:   1.1907374858856201
(PID.TID 0000.0001)         System time:   1.1199712753295898E-004
(PID.TID 0000.0001)     Wall clock time:   1.1909737586975098
(PID.TID 0000.0001)          No. starts:          20
(PID.TID 0000.0001)           No. stops:          20
(PID.TID 0000.0001)   Seconds in section "BLOCKING_EXCHANGES  [FORWARD_STEP]":
(PID.TID 0000.0001)           User time:  0.31022882461547852
(PID.TID 0000.0001)         System time:   2.5004148483276367E-005
(PID.TID 0000.0001)     Wall clock time:  0.31031250953674316
(PID.TID 0000.0001)          No. starts:          20
(PID.TID 0000.0001)           No. stops:          20
(PID.TID 0000.0001)   Seconds in section "MONITOR             [FORWARD_STEP]":
(PID.TID 0000.0001)           User time:   3.2309267520904541
(PID.TID 0000.0001)         System time:   0.0000000000000000
(PID.TID 0000.0001)     Wall clock time:   3.2312710285186768
(PID.TID 0000.0001)          No. starts:          20
(PID.TID 0000.0001)           No. stops:          20
(PID.TID 0000.0001)   Seconds in section "DO_THE_MODEL_IO     [FORWARD_STEP]":
(PID.TID 0000.0001)           User time:   4.3714284896850586E-002
(PID.TID 0000.0001)         System time:   1.1951982975006104E-002
(PID.TID 0000.0001)     Wall clock time:   5.5676460266113281E-002
(PID.TID 0000.0001)          No. starts:          20
(PID.TID 0000.0001)           No. stops:          20
(PID.TID 0000.0001)   Seconds in section "DO_WRITE_PICKUP     [FORWARD_STEP]":
(PID.TID 0000.0001)           User time:   7.2053432464599609E-002
(PID.TID 0000.0001)         System time:   5.5999994277954102E-002
(PID.TID 0000.0001)     Wall clock time:  0.12805914878845215
(PID.TID 0000.0001)          No. starts:          20
(PID.TID 0000.0001)           No. stops:          20
(PID.TID 0000.0001) // ======================================================
(PID.TID 0000.0001) // Tile <-> Tile communication statistics
(PID.TID 0000.0001) // ======================================================
(PID.TID 0000.0001) // o Tile number: 000001
(PID.TID 0000.0001) //         No. X exchanges =              0
(PID.TID 0000.0001) //            Max. X spins =              0
(PID.TID 0000.0001) //            Min. X spins =     1000000000
(PID.TID 0000.0001) //          Total. X spins =              0
(PID.TID 0000.0001) //            Avg. X spins =       0.00E+00
(PID.TID 0000.0001) //         No. Y exchanges =              0
(PID.TID 0000.0001) //            Max. Y spins =              0
(PID.TID 0000.0001) //            Min. Y spins =     1000000000
(PID.TID 0000.0001) //          Total. Y spins =              0
(PID.TID 0000.0001) //            Avg. Y spins =       0.00E+00
(PID.TID 0000.0001) // o Tile number: 000002
(PID.TID 0000.0001) //         No. X exchanges =              0
(PID.TID 0000.0001) //            Max. X spins =              0
(PID.TID 0000.0001) //            Min. X spins =     1000000000
(PID.TID 0000.0001) //          Total. X spins =              0
(PID.TID 0000.0001) //            Avg. X spins =       0.00E+00
(PID.TID 0000.0001) //         No. Y exchanges =              0
(PID.TID 0000.0001) //            Max. Y spins =              0
(PID.TID 0000.0001) //            Min. Y spins =     1000000000
(PID.TID 0000.0001) //          Total. Y spins =              0
(PID.TID 0000.0001) //            Avg. Y spins =       0.00E+00
(PID.TID 0000.0001) // o Tile number: 000003
(PID.TID 0000.0001) //         No. X exchanges =              0
(PID.TID 0000.0001) //            Max. X spins =              0
(PID.TID 0000.0001) //            Min. X spins =     1000000000
(PID.TID 0000.0001) //          Total. X spins =              0
(PID.TID 0000.0001) //            Avg. X spins =       0.00E+00
(PID.TID 0000.0001) //         No. Y exchanges =              0
(PID.TID 0000.0001) //            Max. Y spins =              0
(PID.TID 0000.0001) //            Min. Y spins =     1000000000
(PID.TID 0000.0001) //          Total. Y spins =              0
(PID.TID 0000.0001) //            Avg. Y spins =       0.00E+00
(PID.TID 0000.0001) // o Tile number: 000004
(PID.TID 0000.0001) //         No. X exchanges =              0
(PID.TID 0000.0001) //            Max. X spins =              0
(PID.TID 0000.0001) //            Min. X spins =     1000000000
(PID.TID 0000.0001) //          Total. X spins =              0
(PID.TID 0000.0001) //            Avg. X spins =       0.00E+00
(PID.TID 0000.0001) //         No. Y exchanges =              0
(PID.TID 0000.0001) //            Max. Y spins =              0
(PID.TID 0000.0001) //            Min. Y spins =     1000000000
(PID.TID 0000.0001) //          Total. Y spins =              0
(PID.TID 0000.0001) //            Avg. Y spins =       0.00E+00
(PID.TID 0000.0001) // o Tile number: 000005
(PID.TID 0000.0001) //         No. X exchanges =              0
(PID.TID 0000.0001) //            Max. X spins =              0
(PID.TID 0000.0001) //            Min. X spins =     1000000000
(PID.TID 0000.0001) //          Total. X spins =              0
(PID.TID 0000.0001) //            Avg. X spins =       0.00E+00
(PID.TID 0000.0001) //         No. Y exchanges =              0
(PID.TID 0000.0001) //            Max. Y spins =              0
(PID.TID 0000.0001) //            Min. Y spins =     1000000000
(PID.TID 0000.0001) //          Total. Y spins =              0
(PID.TID 0000.0001) //            Avg. Y spins =       0.00E+00
(PID.TID 0000.0001) // o Tile number: 000006
(PID.TID 0000.0001) //         No. X exchanges =              0
(PID.TID 0000.0001) //            Max. X spins =              0
(PID.TID 0000.0001) //            Min. X spins =     1000000000
(PID.TID 0000.0001) //          Total. X spins =              0
(PID.TID 0000.0001) //            Avg. X spins =       0.00E+00
(PID.TID 0000.0001) //         No. Y exchanges =              0
(PID.TID 0000.0001) //            Max. Y spins =              0
(PID.TID 0000.0001) //            Min. Y spins =     1000000000
(PID.TID 0000.0001) //          Total. Y spins =              0
(PID.TID 0000.0001) //            Avg. Y spins =       0.00E+00
(PID.TID 0000.0001) // o Tile number: 000007
(PID.TID 0000.0001) //         No. X exchanges =              0
(PID.TID 0000.0001) //            Max. X spins =              0
(PID.TID 0000.0001) //            Min. X spins =     1000000000
(PID.TID 0000.0001) //          Total. X spins =              0
(PID.TID 0000.0001) //            Avg. X spins =       0.00E+00
(PID.TID 0000.0001) //         No. Y exchanges =              0
(PID.TID 0000.0001) //            Max. Y spins =              0
(PID.TID 0000.0001) //            Min. Y spins =     1000000000
(PID.TID 0000.0001) //          Total. Y spins =              0
(PID.TID 0000.0001) //            Avg. Y spins =       0.00E+00
(PID.TID 0000.0001) // o Tile number: 000008
(PID.TID 0000.0001) //         No. X exchanges =              0
(PID.TID 0000.0001) //            Max. X spins =              0
(PID.TID 0000.0001) //            Min. X spins =     1000000000
(PID.TID 0000.0001) //          Total. X spins =              0
(PID.TID 0000.0001) //            Avg. X spins =       0.00E+00
(PID.TID 0000.0001) //         No. Y exchanges =              0
(PID.TID 0000.0001) //            Max. Y spins =              0
(PID.TID 0000.0001) //            Min. Y spins =     1000000000
(PID.TID 0000.0001) //          Total. Y spins =              0
(PID.TID 0000.0001) //            Avg. Y spins =       0.00E+00
(PID.TID 0000.0001) // o Thread number: 000001
(PID.TID 0000.0001) //            No. barriers =          28870
(PID.TID 0000.0001) //      Max. barrier spins =              1
(PID.TID 0000.0001) //      Min. barrier spins =              1
(PID.TID 0000.0001) //     Total barrier spins =          28870
(PID.TID 0000.0001) //      Avg. barrier spins =       1.00E+00
PROGRAM MAIN: Execution ended Normally
