(PID.TID 0000.0001) 
(PID.TID 0000.0001) // ======================================================
(PID.TID 0000.0001) //                      MITgcm UV
(PID.TID 0000.0001) //                      =========
(PID.TID 0000.0001) // ======================================================
(PID.TID 0000.0001) // execution environment starting up...
(PID.TID 0000.0001) 
(PID.TID 0000.0001) // MITgcmUV version:  checkpoint68s
(PID.TID 0000.0001) // Build user:        mlosch
(PID.TID 0000.0001) // Build host:        bkli04m056
(PID.TID 0000.0001) // Build date:        Thu Sep 21 12:14:03 CEST 2023
(PID.TID 0000.0001) 
(PID.TID 0000.0001) // =======================================================
(PID.TID 0000.0001) // Execution Environment parameter file "eedata"
(PID.TID 0000.0001) // =======================================================
(PID.TID 0000.0001) ># Example "eedata" file
(PID.TID 0000.0001) ># Lines beginning "#" are comments
(PID.TID 0000.0001) ># nTx - No. threads per process in X
(PID.TID 0000.0001) ># nTy - No. threads per process in Y
(PID.TID 0000.0001) > &EEPARMS
(PID.TID 0000.0001) > /
(PID.TID 0000.0001) ># Note: Some systems use & as the
(PID.TID 0000.0001) ># namelist terminator. Other systems
(PID.TID 0000.0001) ># use a / character (as shown here).
(PID.TID 0000.0001) 
(PID.TID 0000.0001) // =======================================================
(PID.TID 0000.0001) // Computational Grid Specification ( see files "SIZE.h" )
(PID.TID 0000.0001) //                                  ( and "eedata"       )
(PID.TID 0000.0001) // =======================================================
(PID.TID 0000.0001)      nPx =    1 ; /* No. processes in X */
(PID.TID 0000.0001)      nPy =    1 ; /* No. processes in Y */
(PID.TID 0000.0001)      nSx =    2 ; /* No. tiles in X per process */
(PID.TID 0000.0001)      nSy =    4 ; /* No. tiles in Y per process */
(PID.TID 0000.0001)      sNx =   25 ; /* Tile size in X */
(PID.TID 0000.0001)      sNy =   25 ; /* Tile size in Y */
(PID.TID 0000.0001)      OLx =    3 ; /* Tile overlap distance in X */
(PID.TID 0000.0001)      OLy =    3 ; /* Tile overlap distance in Y */
(PID.TID 0000.0001)      nTx =    1 ; /* No. threads in X per process */
(PID.TID 0000.0001)      nTy =    1 ; /* No. threads in Y per process */
(PID.TID 0000.0001)       Nr =   30 ; /* No. levels in the vertical   */
(PID.TID 0000.0001)       Nx =   50 ; /* Total domain size in X ( = nPx*nSx*sNx ) */
(PID.TID 0000.0001)       Ny =  100 ; /* Total domain size in Y ( = nPy*nSy*sNy ) */
(PID.TID 0000.0001)   nTiles =    8 ; /* Total no. tiles per process ( = nSx*nSy ) */
(PID.TID 0000.0001)   nProcs =    1 ; /* Total no. processes ( = nPx*nPy ) */
(PID.TID 0000.0001) nThreads =    1 ; /* Total no. threads per process ( = nTx*nTy ) */
(PID.TID 0000.0001) usingMPI =    F ; /* Flag used to control whether MPI is in use */
(PID.TID 0000.0001)                   /*  note: To execute a program with MPI calls */
(PID.TID 0000.0001)                   /*  it must be launched appropriately e.g     */
(PID.TID 0000.0001)                   /*  "mpirun -np 64 ......"                    */
(PID.TID 0000.0001) useCoupler=   F ; /* Flag used to control communications with   */
(PID.TID 0000.0001)                   /*  other model components, through a coupler */
(PID.TID 0000.0001) useNest2W_parent =    F ;/* Control 2-W Nesting comm */
(PID.TID 0000.0001) useNest2W_child  =    F ;/* Control 2-W Nesting comm */
(PID.TID 0000.0001) debugMode =    F ; /* print debug msg. (sequence of S/R calls)  */
(PID.TID 0000.0001) printMapIncludesZeros=    F ; /* print zeros in Std.Output maps */
(PID.TID 0000.0001) maxLengthPrt1D=   65 /* maxLength of 1D array printed to StdOut */
(PID.TID 0000.0001) 
(PID.TID 0000.0001) // ======================================================
(PID.TID 0000.0001) // Mapping of tiles to threads
(PID.TID 0000.0001) // ======================================================
(PID.TID 0000.0001) // -o- Thread   1, tiles (   1:   2,   1:   4)
(PID.TID 0000.0001) 
(PID.TID 0000.0001) // ======================================================
(PID.TID 0000.0001) // Tile <-> Tile connectvity table
(PID.TID 0000.0001) // ======================================================
(PID.TID 0000.0001) // Tile number: 000001 (process no. = 000000)
(PID.TID 0000.0001) //        WEST: Tile = 000002, Process = 000000, Comm = put
(PID.TID 0000.0001) //                bi = 000002, bj = 000001
(PID.TID 0000.0001) //        EAST: Tile = 000002, Process = 000000, Comm = put
(PID.TID 0000.0001) //                bi = 000002, bj = 000001
(PID.TID 0000.0001) //       SOUTH: Tile = 000007, Process = 000000, Comm = put
(PID.TID 0000.0001) //                bi = 000001, bj = 000004
(PID.TID 0000.0001) //       NORTH: Tile = 000003, Process = 000000, Comm = put
(PID.TID 0000.0001) //                bi = 000001, bj = 000002
(PID.TID 0000.0001) // Tile number: 000002 (process no. = 000000)
(PID.TID 0000.0001) //        WEST: Tile = 000001, Process = 000000, Comm = put
(PID.TID 0000.0001) //                bi = 000001, bj = 000001
(PID.TID 0000.0001) //        EAST: Tile = 000001, Process = 000000, Comm = put
(PID.TID 0000.0001) //                bi = 000001, bj = 000001
(PID.TID 0000.0001) //       SOUTH: Tile = 000008, Process = 000000, Comm = put
(PID.TID 0000.0001) //                bi = 000002, bj = 000004
(PID.TID 0000.0001) //       NORTH: Tile = 000004, Process = 000000, Comm = put
(PID.TID 0000.0001) //                bi = 000002, bj = 000002
(PID.TID 0000.0001) // Tile number: 000003 (process no. = 000000)
(PID.TID 0000.0001) //        WEST: Tile = 000004, Process = 000000, Comm = put
(PID.TID 0000.0001) //                bi = 000002, bj = 000002
(PID.TID 0000.0001) //        EAST: Tile = 000004, Process = 000000, Comm = put
(PID.TID 0000.0001) //                bi = 000002, bj = 000002
(PID.TID 0000.0001) //       SOUTH: Tile = 000001, Process = 000000, Comm = put
(PID.TID 0000.0001) //                bi = 000001, bj = 000001
(PID.TID 0000.0001) //       NORTH: Tile = 000005, Process = 000000, Comm = put
(PID.TID 0000.0001) //                bi = 000001, bj = 000003
(PID.TID 0000.0001) // Tile number: 000004 (process no. = 000000)
(PID.TID 0000.0001) //        WEST: Tile = 000003, Process = 000000, Comm = put
(PID.TID 0000.0001) //                bi = 000001, bj = 000002
(PID.TID 0000.0001) //        EAST: Tile = 000003, Process = 000000, Comm = put
(PID.TID 0000.0001) //                bi = 000001, bj = 000002
(PID.TID 0000.0001) //       SOUTH: Tile = 000002, Process = 000000, Comm = put
(PID.TID 0000.0001) //                bi = 000002, bj = 000001
(PID.TID 0000.0001) //       NORTH: Tile = 000006, Process = 000000, Comm = put
(PID.TID 0000.0001) //                bi = 000002, bj = 000003
(PID.TID 0000.0001) // Tile number: 000005 (process no. = 000000)
(PID.TID 0000.0001) //        WEST: Tile = 000006, Process = 000000, Comm = put
(PID.TID 0000.0001) //                bi = 000002, bj = 000003
(PID.TID 0000.0001) //        EAST: Tile = 000006, Process = 000000, Comm = put
(PID.TID 0000.0001) //                bi = 000002, bj = 000003
(PID.TID 0000.0001) //       SOUTH: Tile = 000003, Process = 000000, Comm = put
(PID.TID 0000.0001) //                bi = 000001, bj = 000002
(PID.TID 0000.0001) //       NORTH: Tile = 000007, Process = 000000, Comm = put
(PID.TID 0000.0001) //                bi = 000001, bj = 000004
(PID.TID 0000.0001) // Tile number: 000006 (process no. = 000000)
(PID.TID 0000.0001) //        WEST: Tile = 000005, Process = 000000, Comm = put
(PID.TID 0000.0001) //                bi = 000001, bj = 000003
(PID.TID 0000.0001) //        EAST: Tile = 000005, Process = 000000, Comm = put
(PID.TID 0000.0001) //                bi = 000001, bj = 000003
(PID.TID 0000.0001) //       SOUTH: Tile = 000004, Process = 000000, Comm = put
(PID.TID 0000.0001) //                bi = 000002, bj = 000002
(PID.TID 0000.0001) //       NORTH: Tile = 000008, Process = 000000, Comm = put
(PID.TID 0000.0001) //                bi = 000002, bj = 000004
(PID.TID 0000.0001) // Tile number: 000007 (process no. = 000000)
(PID.TID 0000.0001) //        WEST: Tile = 000008, Process = 000000, Comm = put
(PID.TID 0000.0001) //                bi = 000002, bj = 000004
(PID.TID 0000.0001) //        EAST: Tile = 000008, Process = 000000, Comm = put
(PID.TID 0000.0001) //                bi = 000002, bj = 000004
(PID.TID 0000.0001) //       SOUTH: Tile = 000005, Process = 000000, Comm = put
(PID.TID 0000.0001) //                bi = 000001, bj = 000003
(PID.TID 0000.0001) //       NORTH: Tile = 000001, Process = 000000, Comm = put
(PID.TID 0000.0001) //                bi = 000001, bj = 000001
(PID.TID 0000.0001) // Tile number: 000008 (process no. = 000000)
(PID.TID 0000.0001) //        WEST: Tile = 000007, Process = 000000, Comm = put
(PID.TID 0000.0001) //                bi = 000001, bj = 000004
(PID.TID 0000.0001) //        EAST: Tile = 000007, Process = 000000, Comm = put
(PID.TID 0000.0001) //                bi = 000001, bj = 000004
(PID.TID 0000.0001) //       SOUTH: Tile = 000006, Process = 000000, Comm = put
(PID.TID 0000.0001) //                bi = 000002, bj = 000003
(PID.TID 0000.0001) //       NORTH: Tile = 000002, Process = 000000, Comm = put
(PID.TID 0000.0001) //                bi = 000002, bj = 000001
(PID.TID 0000.0001) 
(PID.TID 0000.0001)  INI_PARMS: opening model parameter file "data"
(PID.TID 0000.0001)  OPEN_COPY_DATA_FILE: opening file data
(PID.TID 0000.0001) // =======================================================
(PID.TID 0000.0001) // Parameter file "data"
(PID.TID 0000.0001) // =======================================================
(PID.TID 0000.0001) ># ====================
(PID.TID 0000.0001) ># | Model parameters |
(PID.TID 0000.0001) ># ====================
(PID.TID 0000.0001) >#
(PID.TID 0000.0001) ># Continuous equation parameters
(PID.TID 0000.0001) > &PARM01
(PID.TID 0000.0001) > Tref = 30*-1.9,
(PID.TID 0000.0001) > Sref = 30*34.4,
(PID.TID 0000.0001) > viscAz=1.E-3,
(PID.TID 0000.0001) > viscAh=600.0,
(PID.TID 0000.0001) > no_slip_sides=.FALSE.,
(PID.TID 0000.0001) > no_slip_bottom=.FALSE.,
(PID.TID 0000.0001) > diffKhT=100.0,
(PID.TID 0000.0001) > diffKzT=5.E-5,
(PID.TID 0000.0001) > diffKhS=100.0,
(PID.TID 0000.0001) > diffKzS=5.E-5,
(PID.TID 0000.0001) > bottomDragQuadratic=2.5E-3,
(PID.TID 0000.0001) > eosType='JMD95Z',
(PID.TID 0000.0001) > HeatCapacity_cp = 3974.0,
(PID.TID 0000.0001) > rhoConst=1030.,
(PID.TID 0000.0001) > rhoConst=1030.,
(PID.TID 0000.0001) > gravity=9.81,
(PID.TID 0000.0001) > convertFW2Salt = 33.4,
(PID.TID 0000.0001) > rigidLid=.FALSE.,
(PID.TID 0000.0001) > implicitFreeSurface=.TRUE.,
(PID.TID 0000.0001) > exactConserv=.TRUE.,
(PID.TID 0000.0001) > hFacMin=0.05,
(PID.TID 0000.0001) > nonHydrostatic=.FALSE.,
(PID.TID 0000.0001) > readBinaryPrec=64,
(PID.TID 0000.0001) > useCDScheme = .TRUE.,
(PID.TID 0000.0001) > /
(PID.TID 0000.0001) >
(PID.TID 0000.0001) ># Elliptic solver parameters
(PID.TID 0000.0001) > &PARM02
(PID.TID 0000.0001) > cg2dMaxIters=1000,
(PID.TID 0000.0001) > cg2dTargetResidual=1.E-13,
(PID.TID 0000.0001) > cg3dMaxIters=400,
(PID.TID 0000.0001) > cg3dTargetResidual=1.E-13,
(PID.TID 0000.0001) > /
(PID.TID 0000.0001) >
(PID.TID 0000.0001) ># Time stepping parameters
(PID.TID 0000.0001) > &PARM03
(PID.TID 0000.0001) > nIter0=0,
(PID.TID 0000.0001) > nTimeSteps=20,
(PID.TID 0000.0001) > deltaT=1800.0,
(PID.TID 0000.0001) > abEps=0.1,
(PID.TID 0000.0001) > cAdjFreq = -1.,
(PID.TID 0000.0001) > tauCD = 400000.,
(PID.TID 0000.0001) > pChkptFreq=0.0,
(PID.TID 0000.0001) > chkptFreq=0.0,
(PID.TID 0000.0001) > dumpFreq=0.0,
(PID.TID 0000.0001) > taveFreq=0.0,
(PID.TID 0000.0001) > monitorFreq=1.,
(PID.TID 0000.0001) > monitorSelect=2,
(PID.TID 0000.0001) > /
(PID.TID 0000.0001) >
(PID.TID 0000.0001) ># Gridding parameters
(PID.TID 0000.0001) > &PARM04
(PID.TID 0000.0001) > usingSphericalPolarGrid=.TRUE.,
(PID.TID 0000.0001) > ygOrigin = -80.0,
(PID.TID 0000.0001) > delX=50*0.3,
(PID.TID 0000.0001) > delY=100*0.1,
(PID.TID 0000.0001) > delZ=30*30.0,
(PID.TID 0000.0001) > /
(PID.TID 0000.0001) >
(PID.TID 0000.0001) ># Input datasets
(PID.TID 0000.0001) > &PARM05
(PID.TID 0000.0001) > bathyFile='bathy.box',
(PID.TID 0000.0001) > /
(PID.TID 0000.0001) 
(PID.TID 0000.0001)  INI_PARMS ; starts to read PARM01
(PID.TID 0000.0001)  INI_PARMS ; read PARM01 : OK
(PID.TID 0000.0001)  INI_PARMS ; starts to read PARM02
(PID.TID 0000.0001)  INI_PARMS ; read PARM02 : OK
(PID.TID 0000.0001)  INI_PARMS ; starts to read PARM03
(PID.TID 0000.0001)  INI_PARMS ; read PARM03 : OK
(PID.TID 0000.0001)  INI_PARMS ; starts to read PARM04
(PID.TID 0000.0001)  INI_PARMS ; read PARM04 : OK
(PID.TID 0000.0001)  INI_PARMS ; starts to read PARM05
(PID.TID 0000.0001)  INI_PARMS ; read PARM05 : OK
(PID.TID 0000.0001)  INI_PARMS: finished reading file "data"
(PID.TID 0000.0001)  PACKAGES_BOOT: opening data.pkg
(PID.TID 0000.0001)  OPEN_COPY_DATA_FILE: opening file data.pkg
(PID.TID 0000.0001) // =======================================================
(PID.TID 0000.0001) // Parameter file "data.pkg"
(PID.TID 0000.0001) // =======================================================
(PID.TID 0000.0001) ># Packages
(PID.TID 0000.0001) > &PACKAGES
(PID.TID 0000.0001) > useSHELFICE=.TRUE.,
(PID.TID 0000.0001) >#useDiagnostics=.TRUE.,
(PID.TID 0000.0001) >#useMNC=.TRUE.,
(PID.TID 0000.0001) > /
(PID.TID 0000.0001) 
(PID.TID 0000.0001)  PACKAGES_BOOT: finished reading data.pkg
(PID.TID 0000.0001)  PACKAGES_BOOT: On/Off package Summary
 --------  pkgs with a standard "usePKG" On/Off switch in "data.pkg":  --------
 pkg/obcs                 compiled but not used ( useOBCS                  = F )
 pkg/ggl90                compiled but not used ( useGGL90                 = F )
 pkg/shelfice             compiled   and   used ( useShelfIce              = T )
 pkg/diagnostics          compiled but not used ( useDiagnostics           = F )
 pkg/mnc                  compiled but not used ( useMNC                   = F )
 -------- pkgs without standard "usePKG" On/Off switch in "data.pkg":  --------
 pkg/generic_advdiff      compiled   and   used ( useGAD                   = T )
 pkg/mom_common           compiled   and   used ( momStepping              = T )
 pkg/mom_vecinv           compiled but not used ( +vectorInvariantMomentum = F )
 pkg/mom_fluxform         compiled   and   used ( & not vectorInvariantMom = T )
 pkg/cd_code              compiled   and   used ( useCDscheme              = T )
 pkg/monitor              compiled   and   used ( monitorFreq > 0.         = T )
 pkg/debug                compiled but not used ( debugMode                = F )
 pkg/rw                   compiled   and   used
 pkg/mdsio                compiled   and   used
(PID.TID 0000.0001)  PACKAGES_BOOT: End of package Summary
(PID.TID 0000.0001) 
(PID.TID 0000.0001)  SHELFICE_READPARMS: opening data.shelfice
(PID.TID 0000.0001)  OPEN_COPY_DATA_FILE: opening file data.shelfice
(PID.TID 0000.0001) // =======================================================
(PID.TID 0000.0001) // Parameter file "data.shelfice"
(PID.TID 0000.0001) // =======================================================
(PID.TID 0000.0001) ># ==========================================
(PID.TID 0000.0001) ># | Parameters for STEEP_ICECAVITY package |
(PID.TID 0000.0001) ># ==========================================
(PID.TID 0000.0001) > &SHELFICE_PARM01
(PID.TID 0000.0001) > SHELFICEuseSTIC = .TRUE.,
(PID.TID 0000.0001) > SHELFICEadvDiffHeatFlux = .TRUE.,
(PID.TID 0000.0001) > SHELFICEboundaryLayer = .FALSE.,
(PID.TID 0000.0001) > SHELFICEtopoFile='icetopo.exp1',
(PID.TID 0000.0001) > SHELFICEloadAnomalyFile = 'phi0surf.exp1.jmd95z',
(PID.TID 0000.0001) > SHELFICEuseGammaFrict = .FALSE.,
(PID.TID 0000.0001) > SHELFICEconserve = .TRUE.,
(PID.TID 0000.0001) > ICEFRONTdepthFile = 'icetopo.exp1',
(PID.TID 0000.0001) > SHELFICEkappa = 0.,
(PID.TID 0000.0001) > useISOMIPTD = .FALSE.,
(PID.TID 0000.0001) > no_slip_shelfice = .FALSE.,
(PID.TID 0000.0001) > SHELFICEwriteState = .TRUE.,
(PID.TID 0000.0001) > /
(PID.TID 0000.0001) 
(PID.TID 0000.0001)  SHELFICE_READPARMS: finished reading data.shelfice
(PID.TID 0000.0001) SET_PARMS: done
(PID.TID 0000.0001) Enter INI_VERTICAL_GRID: setInterFDr=    T ; setCenterDr=    F
(PID.TID 0000.0001) %MON XC_max                       =   1.4850000000000E+01
(PID.TID 0000.0001) %MON XC_min                       =   1.5000000000000E-01
(PID.TID 0000.0001) %MON XC_mean                      =   7.5000000000000E+00
(PID.TID 0000.0001) %MON XC_sd                        =   4.3292609068985E+00
(PID.TID 0000.0001) %MON XG_max                       =   1.4700000000000E+01
(PID.TID 0000.0001) %MON XG_min                       =   1.1102230246252E-16
(PID.TID 0000.0001) %MON XG_mean                      =   7.3500000000000E+00
(PID.TID 0000.0001) %MON XG_sd                        =   4.3292609068985E+00
(PID.TID 0000.0001) %MON DXC_max                      =   1.1380125394806E+04
(PID.TID 0000.0001) %MON DXC_min                      =   5.8203914905589E+03
(PID.TID 0000.0001) %MON DXC_mean                     =   8.6215028627207E+03
(PID.TID 0000.0001) %MON DXC_sd                       =   1.6219001271572E+03
(PID.TID 0000.0001) %MON DXF_max                      =   1.1380125394806E+04
(PID.TID 0000.0001) %MON DXF_min                      =   5.8203914905589E+03
(PID.TID 0000.0001) %MON DXF_mean                     =   8.6215028627207E+03
(PID.TID 0000.0001) %MON DXF_sd                       =   1.6219001271572E+03
(PID.TID 0000.0001) %MON DXG_max                      =   1.1352761512017E+04
(PID.TID 0000.0001) %MON DXG_min                      =   5.7917296935586E+03
(PID.TID 0000.0001) %MON DXG_mean                     =   8.5934208253080E+03
(PID.TID 0000.0001) %MON DXG_sd                       =   1.6222785520817E+03
(PID.TID 0000.0001) %MON DXV_max                      =   1.1352761512017E+04
(PID.TID 0000.0001) %MON DXV_min                      =   5.7917296935586E+03
(PID.TID 0000.0001) %MON DXV_mean                     =   8.5934208253080E+03
(PID.TID 0000.0001) %MON DXV_sd                       =   1.6222785520817E+03
(PID.TID 0000.0001) %MON YC_max                       =  -7.0050000000001E+01
(PID.TID 0000.0001) %MON YC_min                       =  -7.9950000000000E+01
(PID.TID 0000.0001) %MON YC_mean                      =  -7.5000000000000E+01
(PID.TID 0000.0001) %MON YC_sd                        =   2.8866070047720E+00
(PID.TID 0000.0001) %MON YG_max                       =  -7.0100000000001E+01
(PID.TID 0000.0001) %MON YG_min                       =  -8.0000000000000E+01
(PID.TID 0000.0001) %MON YG_mean                      =  -7.5050000000000E+01
(PID.TID 0000.0001) %MON YG_sd                        =   2.8866070047721E+00
(PID.TID 0000.0001) %MON DYC_max                      =   1.1117747335204E+04
(PID.TID 0000.0001) %MON DYC_min                      =   1.1117747335204E+04
(PID.TID 0000.0001) %MON DYC_mean                     =   1.1117747335204E+04
(PID.TID 0000.0001) %MON DYC_sd                       =   4.1836756281555E-11
(PID.TID 0000.0001) %MON DYF_max                      =   1.1117747335204E+04
(PID.TID 0000.0001) %MON DYF_min                      =   1.1117747335204E+04
(PID.TID 0000.0001) %MON DYF_mean                     =   1.1117747335204E+04
(PID.TID 0000.0001) %MON DYF_sd                       =   4.1836756281555E-11
(PID.TID 0000.0001) %MON DYG_max                      =   1.1117747335204E+04
(PID.TID 0000.0001) %MON DYG_min                      =   1.1117747335204E+04
(PID.TID 0000.0001) %MON DYG_mean                     =   1.1117747335204E+04
(PID.TID 0000.0001) %MON DYG_sd                       =   4.1836756281555E-11
(PID.TID 0000.0001) %MON DYU_max                      =   1.1117747335204E+04
(PID.TID 0000.0001) %MON DYU_min                      =   1.1117747335204E+04
(PID.TID 0000.0001) %MON DYU_mean                     =   1.1117747335204E+04
(PID.TID 0000.0001) %MON DYU_sd                       =   4.1836756281555E-11
(PID.TID 0000.0001) %MON RA_max                       =   1.2652134272379E+08
(PID.TID 0000.0001) %MON RA_min                       =   6.4709633770803E+07
(PID.TID 0000.0001) %MON RA_mean                      =   9.5851678311587E+07
(PID.TID 0000.0001) %MON RA_sd                        =   1.8031873527992E+07
(PID.TID 0000.0001) %MON RAW_max                      =   1.2652134272379E+08
(PID.TID 0000.0001) %MON RAW_min                      =   6.4709633770803E+07
(PID.TID 0000.0001) %MON RAW_mean                     =   9.5851678311587E+07
(PID.TID 0000.0001) %MON RAW_sd                       =   1.8031873527992E+07
(PID.TID 0000.0001) %MON RAS_max                      =   1.2621711802744E+08
(PID.TID 0000.0001) %MON RAS_min                      =   6.4390979194019E+07
(PID.TID 0000.0001) %MON RAS_mean                     =   9.5539469354603E+07
(PID.TID 0000.0001) %MON RAS_sd                       =   1.8036080760153E+07
(PID.TID 0000.0001) %MON RAZ_max                      =   1.2621711802744E+08
(PID.TID 0000.0001) %MON RAZ_min                      =   6.4390979194019E+07
(PID.TID 0000.0001) %MON RAZ_mean                     =   9.5539469354603E+07
(PID.TID 0000.0001) %MON RAZ_sd                       =   1.8036080760153E+07
(PID.TID 0000.0001) %MON AngleCS_max                  =   1.0000000000000E+00
(PID.TID 0000.0001) %MON AngleCS_min                  =   1.0000000000000E+00
(PID.TID 0000.0001) %MON AngleCS_mean                 =   1.0000000000000E+00
(PID.TID 0000.0001) %MON AngleCS_sd                   =   0.0000000000000E+00
(PID.TID 0000.0001) %MON AngleSN_max                  =   0.0000000000000E+00
(PID.TID 0000.0001) %MON AngleSN_min                  =   0.0000000000000E+00
(PID.TID 0000.0001) %MON AngleSN_mean                 =   0.0000000000000E+00
(PID.TID 0000.0001) %MON AngleSN_sd                   =   0.0000000000000E+00
(PID.TID 0000.0001)  MDS_READ_FIELD: opening global file: bathy.box
(PID.TID 0000.0001)  MDS_READ_FIELD: opening global file: icetopo.exp1
(PID.TID 0000.0001)  MDS_READ_FIELD: opening global file: icetopo.exp1
(PID.TID 0000.0001) // =======================================================
(PID.TID 0000.0001) // Field Model R_low (ini_masks_etc)
(PID.TID 0000.0001) // CMIN =         -9.000000000000000E+02
(PID.TID 0000.0001) // CMAX =         -9.000000000000000E+02
(PID.TID 0000.0001) // CINT =          0.000000000000000E+00
(PID.TID 0000.0001) // SYMBOLS (CMIN->CMAX): -abcdefghijklmnopqrstuvwxyz+
(PID.TID 0000.0001) //                  0.0: .
(PID.TID 0000.0001) // RANGE I (Lo:Hi:Step):(    -2:    53:     1)
(PID.TID 0000.0001) // RANGE J (Lo:Hi:Step):(   103:    -2:    -1)
(PID.TID 0000.0001) // RANGE K (Lo:Hi:Step):(   1:   1:   1)
(PID.TID 0000.0001) // =======================================================
(PID.TID 0000.0001) // =======================================================
(PID.TID 0000.0001) // END OF FIELD                                          =
(PID.TID 0000.0001) // =======================================================
(PID.TID 0000.0001) 
(PID.TID 0000.0001) // =======================================================
(PID.TID 0000.0001) // Field Model Ro_surf (ini_masks_etc)
(PID.TID 0000.0001) // CMIN =         -6.812500000000010E+02
(PID.TID 0000.0001) // CMAX =         -2.000000000000000E+02
(PID.TID 0000.0001) // CINT =          1.782407407407411E+01
(PID.TID 0000.0001) // SYMBOLS (CMIN->CMAX): -abcdefghijklmnopqrstuvwxyz+
(PID.TID 0000.0001) //                  0.0: .
(PID.TID 0000.0001) // RANGE I (Lo:Hi:Step):(    -2:    53:     1)
(PID.TID 0000.0001) // RANGE J (Lo:Hi:Step):(   103:    -2:    -1)
(PID.TID 0000.0001) // RANGE K (Lo:Hi:Step):(   1:   1:   1)
(PID.TID 0000.0001) // =======================================================
(PID.TID 0000.0001) K =   1
(PID.TID 0000.0001) //                I=7       I=17      I=27      I=31      I=41      I=51
(PID.TID 0000.0001) // |--J--|210123456|890123456|890123456|834567890|234567890|234567890|23
(PID.TID 0000.0001) //    103 aaa.aaaaaaaaaaaaaaaaaaaaaaaaaaaaaaaaaaaaaaaaaaaaaaaaaaaaaaa.aa
(PID.TID 0000.0001) //    102 ---.-------------------------------------------------------.--
(PID.TID 0000.0001) //    101 ..............................................................
(PID.TID 0000.0001) //    100 +++.+++++++++++++++++++++++++++++++++++++++++++++++++++++++.++
(PID.TID 0000.0001) //     99 +++.+++++++++++++++++++++++++++++++++++++++++++++++++++++++.++
(PID.TID 0000.0001) //     98 +++.+++++++++++++++++++++++++++++++++++++++++++++++++++++++.++
(PID.TID 0000.0001) //     97 +++.+++++++++++++++++++++++++++++++++++++++++++++++++++++++.++
(PID.TID 0000.0001) //     96 +++.+++++++++++++++++++++++++++++++++++++++++++++++++++++++.++
(PID.TID 0000.0001) //     95 +++.+++++++++++++++++++++++++++++++++++++++++++++++++++++++.++
(PID.TID 0000.0001) //     94 +++.+++++++++++++++++++++++++++++++++++++++++++++++++++++++.++
(PID.TID 0000.0001) //     93 +++.+++++++++++++++++++++++++++++++++++++++++++++++++++++++.++
(PID.TID 0000.0001) //     92 +++.+++++++++++++++++++++++++++++++++++++++++++++++++++++++.++
(PID.TID 0000.0001) //     91 +++.+++++++++++++++++++++++++++++++++++++++++++++++++++++++.++
(PID.TID 0000.0001) //     90 +++.+++++++++++++++++++++++++++++++++++++++++++++++++++++++.++
(PID.TID 0000.0001) //     89 +++.+++++++++++++++++++++++++++++++++++++++++++++++++++++++.++
(PID.TID 0000.0001) //     88 +++.+++++++++++++++++++++++++++++++++++++++++++++++++++++++.++
(PID.TID 0000.0001) //     87 +++.+++++++++++++++++++++++++++++++++++++++++++++++++++++++.++
(PID.TID 0000.0001) //     86 +++.+++++++++++++++++++++++++++++++++++++++++++++++++++++++.++
(PID.TID 0000.0001) //     85 +++.+++++++++++++++++++++++++++++++++++++++++++++++++++++++.++
(PID.TID 0000.0001) //     84 +++.+++++++++++++++++++++++++++++++++++++++++++++++++++++++.++
(PID.TID 0000.0001) //     83 +++.+++++++++++++++++++++++++++++++++++++++++++++++++++++++.++
(PID.TID 0000.0001) //     82 +++.+++++++++++++++++++++++++++++++++++++++++++++++++++++++.++
(PID.TID 0000.0001) //     81 +++.+++++++++++++++++++++++++++++++++++++++++++++++++++++++.++
(PID.TID 0000.0001) //     80 +++.+++++++++++++++++++++++++++++++++++++++++++++++++++++++.++
(PID.TID 0000.0001) //     79 +++.+++++++++++++++++++++++++++++++++++++++++++++++++++++++.++
(PID.TID 0000.0001) //     78 +++.+++++++++++++++++++++++++++++++++++++++++++++++++++++++.++
(PID.TID 0000.0001) //     77 +++.+++++++++++++++++++++++++++++++++++++++++++++++++++++++.++
(PID.TID 0000.0001) //     76 +++.+++++++++++++++++++++++++++++++++++++++++++++++++++++++.++
(PID.TID 0000.0001) //     75 +++.+++++++++++++++++++++++++++++++++++++++++++++++++++++++.++
(PID.TID 0000.0001) //     74 +++.+++++++++++++++++++++++++++++++++++++++++++++++++++++++.++
(PID.TID 0000.0001) //     73 +++.+++++++++++++++++++++++++++++++++++++++++++++++++++++++.++
(PID.TID 0000.0001) //     78 +++.+++++++++++++++++++++++++++++++++++++++++++++++++++++++.++
(PID.TID 0000.0001) //     77 +++.+++++++++++++++++++++++++++++++++++++++++++++++++++++++.++
(PID.TID 0000.0001) //     76 +++.+++++++++++++++++++++++++++++++++++++++++++++++++++++++.++
(PID.TID 0000.0001) //     75 +++.+++++++++++++++++++++++++++++++++++++++++++++++++++++++.++
(PID.TID 0000.0001) //     74 +++.+++++++++++++++++++++++++++++++++++++++++++++++++++++++.++
(PID.TID 0000.0001) //     73 +++.+++++++++++++++++++++++++++++++++++++++++++++++++++++++.++
(PID.TID 0000.0001) //     72 +++.+++++++++++++++++++++++++++++++++++++++++++++++++++++++.++
(PID.TID 0000.0001) //     71 +++.+++++++++++++++++++++++++++++++++++++++++++++++++++++++.++
(PID.TID 0000.0001) //     70 +++.+++++++++++++++++++++++++++++++++++++++++++++++++++++++.++
(PID.TID 0000.0001) //     69 +++.+++++++++++++++++++++++++++++++++++++++++++++++++++++++.++
(PID.TID 0000.0001) //     68 +++.+++++++++++++++++++++++++++++++++++++++++++++++++++++++.++
(PID.TID 0000.0001) //     67 +++.+++++++++++++++++++++++++++++++++++++++++++++++++++++++.++
(PID.TID 0000.0001) //     66 +++.+++++++++++++++++++++++++++++++++++++++++++++++++++++++.++
(PID.TID 0000.0001) //     65 +++.+++++++++++++++++++++++++++++++++++++++++++++++++++++++.++
(PID.TID 0000.0001) //     64 +++.+++++++++++++++++++++++++++++++++++++++++++++++++++++++.++
(PID.TID 0000.0001) //     63 +++.+++++++++++++++++++++++++++++++++++++++++++++++++++++++.++
(PID.TID 0000.0001) //     62 +++.+++++++++++++++++++++++++++++++++++++++++++++++++++++++.++
(PID.TID 0000.0001) //     61 +++.+++++++++++++++++++++++++++++++++++++++++++++++++++++++.++
(PID.TID 0000.0001) //     60 +++.+++++++++++++++++++++++++++++++++++++++++++++++++++++++.++
(PID.TID 0000.0001) //     59 +++.+++++++++++++++++++++++++++++++++++++++++++++++++++++++.++
(PID.TID 0000.0001) //     58 +++.+++++++++++++++++++++++++++++++++++++++++++++++++++++++.++
(PID.TID 0000.0001) //     57 +++.+++++++++++++++++++++++++++++++++++++++++++++++++++++++.++
(PID.TID 0000.0001) //     56 +++.+++++++++++++++++++++++++++++++++++++++++++++++++++++++.++
(PID.TID 0000.0001) //     55 +++.+++++++++++++++++++++++++++++++++++++++++++++++++++++++.++
(PID.TID 0000.0001) //     54 +++.+++++++++++++++++++++++++++++++++++++++++++++++++++++++.++
(PID.TID 0000.0001) //     53 +++.+++++++++++++++++++++++++++++++++++++++++++++++++++++++.++
(PID.TID 0000.0001) //     52 +++.+++++++++++++++++++++++++++++++++++++++++++++++++++++++.++
(PID.TID 0000.0001) //     51 +++.+++++++++++++++++++++++++++++++++++++++++++++++++++++++.++
(PID.TID 0000.0001) //     50 +++.+++++++++++++++++++++++++++++++++++++++++++++++++++++++.++
(PID.TID 0000.0001) //     49 +++.+++++++++++++++++++++++++++++++++++++++++++++++++++++++.++
(PID.TID 0000.0001) //     48 +++.+++++++++++++++++++++++++++++++++++++++++++++++++++++++.++
(PID.TID 0000.0001) //     53 +++.+++++++++++++++++++++++++++++++++++++++++++++++++++++++.++
(PID.TID 0000.0001) //     52 +++.+++++++++++++++++++++++++++++++++++++++++++++++++++++++.++
(PID.TID 0000.0001) //     51 +++.+++++++++++++++++++++++++++++++++++++++++++++++++++++++.++
(PID.TID 0000.0001) //     50 +++.+++++++++++++++++++++++++++++++++++++++++++++++++++++++.++
(PID.TID 0000.0001) //     49 +++.+++++++++++++++++++++++++++++++++++++++++++++++++++++++.++
(PID.TID 0000.0001) //     48 +++.+++++++++++++++++++++++++++++++++++++++++++++++++++++++.++
(PID.TID 0000.0001) //     47 +++.+++++++++++++++++++++++++++++++++++++++++++++++++++++++.++
(PID.TID 0000.0001) //     46 +++.+++++++++++++++++++++++++++++++++++++++++++++++++++++++.++
(PID.TID 0000.0001) //     45 +++.+++++++++++++++++++++++++++++++++++++++++++++++++++++++.++
(PID.TID 0000.0001) //     44 +++.+++++++++++++++++++++++++++++++++++++++++++++++++++++++.++
(PID.TID 0000.0001) //     43 +++.+++++++++++++++++++++++++++++++++++++++++++++++++++++++.++
(PID.TID 0000.0001) //     42 +++.+++++++++++++++++++++++++++++++++++++++++++++++++++++++.++
(PID.TID 0000.0001) //     41 +++.+++++++++++++++++++++++++++++++++++++++++++++++++++++++.++
(PID.TID 0000.0001) //     40 +++.+++++++++++++++++++++++++++++++++++++++++++++++++++++++.++
(PID.TID 0000.0001) //     39 zzz.zzzzzzzzzzzzzzzzzzzzzzzzzzzzzzzzzzzzzzzzzzzzzzzzzzzzzzz.zz
(PID.TID 0000.0001) //     38 yyy.yyyyyyyyyyyyyyyyyyyyyyyyyyyyyyyyyyyyyyyyyyyyyyyyyyyyyyy.yy
(PID.TID 0000.0001) //     37 yyy.yyyyyyyyyyyyyyyyyyyyyyyyyyyyyyyyyyyyyyyyyyyyyyyyyyyyyyy.yy
(PID.TID 0000.0001) //     36 xxx.xxxxxxxxxxxxxxxxxxxxxxxxxxxxxxxxxxxxxxxxxxxxxxxxxxxxxxx.xx
(PID.TID 0000.0001) //     35 www.wwwwwwwwwwwwwwwwwwwwwwwwwwwwwwwwwwwwwwwwwwwwwwwwwwwwwww.ww
(PID.TID 0000.0001) //     34 vvv.vvvvvvvvvvvvvvvvvvvvvvvvvvvvvvvvvvvvvvvvvvvvvvvvvvvvvvv.vv
(PID.TID 0000.0001) //     33 vvv.vvvvvvvvvvvvvvvvvvvvvvvvvvvvvvvvvvvvvvvvvvvvvvvvvvvvvvv.vv
(PID.TID 0000.0001) //     32 uuu.uuuuuuuuuuuuuuuuuuuuuuuuuuuuuuuuuuuuuuuuuuuuuuuuuuuuuuu.uu
(PID.TID 0000.0001) //     31 ttt.ttttttttttttttttttttttttttttttttttttttttttttttttttttttt.tt
(PID.TID 0000.0001) //     30 ttt.ttttttttttttttttttttttttttttttttttttttttttttttttttttttt.tt
(PID.TID 0000.0001) //     29 sss.sssssssssssssssssssssssssssssssssssssssssssssssssssssss.ss
(PID.TID 0000.0001) //     28 rrr.rrrrrrrrrrrrrrrrrrrrrrrrrrrrrrrrrrrrrrrrrrrrrrrrrrrrrrr.rr
(PID.TID 0000.0001) //     27 rrr.rrrrrrrrrrrrrrrrrrrrrrrrrrrrrrrrrrrrrrrrrrrrrrrrrrrrrrr.rr
(PID.TID 0000.0001) //     26 qqq.qqqqqqqqqqqqqqqqqqqqqqqqqqqqqqqqqqqqqqqqqqqqqqqqqqqqqqq.qq
(PID.TID 0000.0001) //     25 ppp.ppppppppppppppppppppppppppppppppppppppppppppppppppppppp.pp
(PID.TID 0000.0001) //     24 ooo.ooooooooooooooooooooooooooooooooooooooooooooooooooooooo.oo
(PID.TID 0000.0001) //     23 ooo.ooooooooooooooooooooooooooooooooooooooooooooooooooooooo.oo
(PID.TID 0000.0001) //     28 rrr.rrrrrrrrrrrrrrrrrrrrrrrrrrrrrrrrrrrrrrrrrrrrrrrrrrrrrrr.rr
(PID.TID 0000.0001) //     27 rrr.rrrrrrrrrrrrrrrrrrrrrrrrrrrrrrrrrrrrrrrrrrrrrrrrrrrrrrr.rr
(PID.TID 0000.0001) //     26 qqq.qqqqqqqqqqqqqqqqqqqqqqqqqqqqqqqqqqqqqqqqqqqqqqqqqqqqqqq.qq
(PID.TID 0000.0001) //     25 ppp.ppppppppppppppppppppppppppppppppppppppppppppppppppppppp.pp
(PID.TID 0000.0001) //     24 ooo.ooooooooooooooooooooooooooooooooooooooooooooooooooooooo.oo
(PID.TID 0000.0001) //     23 ooo.ooooooooooooooooooooooooooooooooooooooooooooooooooooooo.oo
(PID.TID 0000.0001) //     22 nnn.nnnnnnnnnnnnnnnnnnnnnnnnnnnnnnnnnnnnnnnnnnnnnnnnnnnnnnn.nn
(PID.TID 0000.0001) //     21 mmm.mmmmmmmmmmmmmmmmmmmmmmmmmmmmmmmmmmmmmmmmmmmmmmmmmmmmmmm.mm
(PID.TID 0000.0001) //     20 mmm.mmmmmmmmmmmmmmmmmmmmmmmmmmmmmmmmmmmmmmmmmmmmmmmmmmmmmmm.mm
(PID.TID 0000.0001) //     19 lll.lllllllllllllllllllllllllllllllllllllllllllllllllllllll.ll
(PID.TID 0000.0001) //     18 kkk.kkkkkkkkkkkkkkkkkkkkkkkkkkkkkkkkkkkkkkkkkkkkkkkkkkkkkkk.kk
(PID.TID 0000.0001) //     17 kkk.kkkkkkkkkkkkkkkkkkkkkkkkkkkkkkkkkkkkkkkkkkkkkkkkkkkkkkk.kk
(PID.TID 0000.0001) //     16 jjj.jjjjjjjjjjjjjjjjjjjjjjjjjjjjjjjjjjjjjjjjjjjjjjjjjjjjjjj.jj
(PID.TID 0000.0001) //     15 iii.iiiiiiiiiiiiiiiiiiiiiiiiiiiiiiiiiiiiiiiiiiiiiiiiiiiiiii.ii
(PID.TID 0000.0001) //     14 hhh.hhhhhhhhhhhhhhhhhhhhhhhhhhhhhhhhhhhhhhhhhhhhhhhhhhhhhhh.hh
(PID.TID 0000.0001) //     13 hhh.hhhhhhhhhhhhhhhhhhhhhhhhhhhhhhhhhhhhhhhhhhhhhhhhhhhhhhh.hh
(PID.TID 0000.0001) //     12 ggg.ggggggggggggggggggggggggggggggggggggggggggggggggggggggg.gg
(PID.TID 0000.0001) //     11 fff.fffffffffffffffffffffffffffffffffffffffffffffffffffffff.ff
(PID.TID 0000.0001) //     10 fff.fffffffffffffffffffffffffffffffffffffffffffffffffffffff.ff
(PID.TID 0000.0001) //      9 eee.eeeeeeeeeeeeeeeeeeeeeeeeeeeeeeeeeeeeeeeeeeeeeeeeeeeeeee.ee
(PID.TID 0000.0001) //      8 ddd.ddddddddddddddddddddddddddddddddddddddddddddddddddddddd.dd
(PID.TID 0000.0001) //      7 ddd.ddddddddddddddddddddddddddddddddddddddddddddddddddddddd.dd
(PID.TID 0000.0001) //      6 ccc.ccccccccccccccccccccccccccccccccccccccccccccccccccccccc.cc
(PID.TID 0000.0001) //      5 bbb.bbbbbbbbbbbbbbbbbbbbbbbbbbbbbbbbbbbbbbbbbbbbbbbbbbbbbbb.bb
(PID.TID 0000.0001) //      4 aaa.aaaaaaaaaaaaaaaaaaaaaaaaaaaaaaaaaaaaaaaaaaaaaaaaaaaaaaa.aa
(PID.TID 0000.0001) //      3 aaa.aaaaaaaaaaaaaaaaaaaaaaaaaaaaaaaaaaaaaaaaaaaaaaaaaaaaaaa.aa
(PID.TID 0000.0001) //      2 ---.-------------------------------------------------------.--
(PID.TID 0000.0001) //      1 ..............................................................
(PID.TID 0000.0001) //      0 +++.+++++++++++++++++++++++++++++++++++++++++++++++++++++++.++
(PID.TID 0000.0001) //     -1 +++.+++++++++++++++++++++++++++++++++++++++++++++++++++++++.++
(PID.TID 0000.0001) //     -2 +++.+++++++++++++++++++++++++++++++++++++++++++++++++++++++.++
(PID.TID 0000.0001) // =======================================================
(PID.TID 0000.0001) // END OF FIELD                                          =
(PID.TID 0000.0001) // =======================================================
(PID.TID 0000.0001) 
(PID.TID 0000.0001) // =======================================================
(PID.TID 0000.0001) // Field hFacC at iteration          0
(PID.TID 0000.0001) // CMIN =          1.000000000000000E+32
(PID.TID 0000.0001) // CMAX =         -1.000000000000000E+32
(PID.TID 0000.0001) // CINT =          0.000000000000000E+00
(PID.TID 0000.0001) // SYMBOLS (CMIN->CMAX): -abcdefghijklmnopqrstuvwxyz+
(PID.TID 0000.0001) //                  0.0: .
(PID.TID 0000.0001) // RANGE I (Lo:Hi:Step):(    -2:    53:     1)
(PID.TID 0000.0001) // RANGE J (Lo:Hi:Step):(   103:    -2:    -1)
(PID.TID 0000.0001) // RANGE K (Lo:Hi:Step):(   1:   1:   1)
(PID.TID 0000.0001) // =======================================================
(PID.TID 0000.0001) // =======================================================
(PID.TID 0000.0001) // END OF FIELD                                          =
(PID.TID 0000.0001) // =======================================================
(PID.TID 0000.0001) 
(PID.TID 0000.0001) // =======================================================
(PID.TID 0000.0001) // Field hFacW at iteration          0
(PID.TID 0000.0001) // CMIN =          1.000000000000000E+32
(PID.TID 0000.0001) // CMAX =         -1.000000000000000E+32
(PID.TID 0000.0001) // CINT =          0.000000000000000E+00
(PID.TID 0000.0001) // SYMBOLS (CMIN->CMAX): -abcdefghijklmnopqrstuvwxyz+
(PID.TID 0000.0001) //                  0.0: .
(PID.TID 0000.0001) // RANGE I (Lo:Hi:Step):(    -2:    53:     1)
(PID.TID 0000.0001) // RANGE J (Lo:Hi:Step):(   103:    -2:    -1)
(PID.TID 0000.0001) // RANGE K (Lo:Hi:Step):(   1:   1:   1)
(PID.TID 0000.0001) // =======================================================
(PID.TID 0000.0001) // =======================================================
(PID.TID 0000.0001) // END OF FIELD                                          =
(PID.TID 0000.0001) // =======================================================
(PID.TID 0000.0001) 
(PID.TID 0000.0001) // =======================================================
(PID.TID 0000.0001) // Field hFacS at iteration          0
(PID.TID 0000.0001) // CMIN =          1.000000000000000E+32
(PID.TID 0000.0001) // CMAX =         -1.000000000000000E+32
(PID.TID 0000.0001) // CINT =          0.000000000000000E+00
(PID.TID 0000.0001) // SYMBOLS (CMIN->CMAX): -abcdefghijklmnopqrstuvwxyz+
(PID.TID 0000.0001) //                  0.0: .
(PID.TID 0000.0001) // RANGE I (Lo:Hi:Step):(    -2:    53:     1)
(PID.TID 0000.0001) // RANGE J (Lo:Hi:Step):(   103:    -2:    -1)
(PID.TID 0000.0001) // RANGE K (Lo:Hi:Step):(   1:   1:   1)
(PID.TID 0000.0001) // =======================================================
(PID.TID 0000.0001) // =======================================================
(PID.TID 0000.0001) // END OF FIELD                                          =
(PID.TID 0000.0001) // =======================================================
(PID.TID 0000.0001) 
(PID.TID 0000.0001) GAD_INIT_FIXED: GAD_OlMinSize=  1  0  1
(PID.TID 0000.0001) 
(PID.TID 0000.0001) // ===================================
(PID.TID 0000.0001) // GAD parameters :
(PID.TID 0000.0001) // ===================================
(PID.TID 0000.0001) tempAdvScheme =   /* Temp. Horiz.Advection scheme selector */
(PID.TID 0000.0001)                       2
(PID.TID 0000.0001)     ;
(PID.TID 0000.0001) tempVertAdvScheme =   /* Temp. Vert. Advection scheme selector */
(PID.TID 0000.0001)                       2
(PID.TID 0000.0001)     ;
(PID.TID 0000.0001) tempMultiDimAdvec =   /* use Muti-Dim Advec method for Temp */
(PID.TID 0000.0001)                   F
(PID.TID 0000.0001)     ;
(PID.TID 0000.0001) tempSOM_Advection = /* use 2nd Order Moment Advection for Temp */
(PID.TID 0000.0001)                   F
(PID.TID 0000.0001)     ;
(PID.TID 0000.0001) AdamsBashforthGt = /* apply Adams-Bashforth extrapolation on Gt */
(PID.TID 0000.0001)                   T
(PID.TID 0000.0001)     ;
(PID.TID 0000.0001) AdamsBashforth_T = /* apply Adams-Bashforth extrapolation on Temp */
(PID.TID 0000.0001)                   F
(PID.TID 0000.0001)     ;
(PID.TID 0000.0001) saltAdvScheme =   /* Salt. Horiz.advection scheme selector */
(PID.TID 0000.0001)                       2
(PID.TID 0000.0001)     ;
(PID.TID 0000.0001) saltVertAdvScheme =   /* Salt. Vert. Advection scheme selector */
(PID.TID 0000.0001)                       2
(PID.TID 0000.0001)     ;
(PID.TID 0000.0001) saltMultiDimAdvec =   /* use Muti-Dim Advec method for Salt */
(PID.TID 0000.0001)                   F
(PID.TID 0000.0001)     ;
(PID.TID 0000.0001) saltSOM_Advection = /* use 2nd Order Moment Advection for Salt */
(PID.TID 0000.0001)                   F
(PID.TID 0000.0001)     ;
(PID.TID 0000.0001) AdamsBashforthGs = /* apply Adams-Bashforth extrapolation on Gs */
(PID.TID 0000.0001)                   T
(PID.TID 0000.0001)     ;
(PID.TID 0000.0001) AdamsBashforth_S = /* apply Adams-Bashforth extrapolation on Salt */
(PID.TID 0000.0001)                   F
(PID.TID 0000.0001)     ;
(PID.TID 0000.0001) // ===================================
(PID.TID 0000.0001)  MDS_READ_FIELD: opening global file: phi0surf.exp1.jmd95z
(PID.TID 0000.0001) %MON fCori_max                    =  -1.3709057042516E-04
(PID.TID 0000.0001) %MON fCori_min                    =  -1.4360464034757E-04
(PID.TID 0000.0001) %MON fCori_mean                   =  -1.4069429304698E-04
(PID.TID 0000.0001) %MON fCori_sd                     =   1.9069739624987E-06
(PID.TID 0000.0001) %MON fCoriG_max                   =  -1.3713394327439E-04
(PID.TID 0000.0001) %MON fCoriG_min                   =  -1.4362679550910E-04
(PID.TID 0000.0001) %MON fCoriG_mean                  =  -1.4072713798624E-04
(PID.TID 0000.0001) %MON fCoriG_sd                    =   1.9008093726821E-06
(PID.TID 0000.0001) %MON fCoriCos_max                 =   4.9761447480159E-05
(PID.TID 0000.0001) %MON fCoriCos_min                 =   2.5450607565678E-05
(PID.TID 0000.0001) %MON fCoriCos_mean                =   3.7698922201606E-05
(PID.TID 0000.0001) %MON fCoriCos_sd                  =   7.0920218535055E-06
(PID.TID 0000.0001) INI_CG2D: CG2D normalisation factor =  1.0404366262810520E-03
(PID.TID 0000.0001) 
(PID.TID 0000.0001) // =======================================================
(PID.TID 0000.0001) // Model configuration
(PID.TID 0000.0001) // =======================================================
(PID.TID 0000.0001) //
(PID.TID 0000.0001) // "Physical" paramters ( PARM01 in namelist )
(PID.TID 0000.0001) //
(PID.TID 0000.0001) buoyancyRelation = /* Type of relation to get Buoyancy */
(PID.TID 0000.0001)               'OCEANIC'
(PID.TID 0000.0001)     ;
(PID.TID 0000.0001) fluidIsAir   =  /* fluid major constituent is Air */
(PID.TID 0000.0001)                   F
(PID.TID 0000.0001)     ;
(PID.TID 0000.0001) fluidIsWater =  /* fluid major constituent is Water */
(PID.TID 0000.0001)                   T
(PID.TID 0000.0001)     ;
(PID.TID 0000.0001) usingPCoords =  /* use p (or p*) vertical coordinate */
(PID.TID 0000.0001)                   F
(PID.TID 0000.0001)     ;
(PID.TID 0000.0001) usingZCoords =  /* use z (or z*) vertical coordinate */
(PID.TID 0000.0001)                   T
(PID.TID 0000.0001)     ;
(PID.TID 0000.0001) tRef =   /* Reference temperature profile ( oC or K ) */
(PID.TID 0000.0001)    30 @ -1.900000000000000E+00              /* K =  1: 30 */
(PID.TID 0000.0001)     ;
(PID.TID 0000.0001) sRef =   /* Reference salinity profile ( g/kg ) */
(PID.TID 0000.0001)    30 @  3.440000000000000E+01              /* K =  1: 30 */
(PID.TID 0000.0001)     ;
(PID.TID 0000.0001) rhoRef =   /* Density vertical profile from (Ref,sRef)( kg/m^3 ) */
(PID.TID 0000.0001)                 1.027768983359415E+03,      /* K =  1 */
(PID.TID 0000.0001)                 1.027915190977028E+03,      /* K =  2 */
(PID.TID 0000.0001)                 1.028061298013372E+03,      /* K =  3 */
(PID.TID 0000.0001)                 1.028207304511914E+03,      /* K =  4 */
(PID.TID 0000.0001)                 1.028353210516147E+03,      /* K =  5 */
(PID.TID 0000.0001)                 1.028499016069585E+03,      /* K =  6 */
(PID.TID 0000.0001)                 1.028644721215765E+03,      /* K =  7 */
(PID.TID 0000.0001)                 1.028790325998246E+03,      /* K =  8 */
(PID.TID 0000.0001)                 1.028935830460613E+03,      /* K =  9 */
(PID.TID 0000.0001)                 1.029081234646470E+03,      /* K = 10 */
(PID.TID 0000.0001)                 1.029226538599445E+03,      /* K = 11 */
(PID.TID 0000.0001)                 1.029371742363190E+03,      /* K = 12 */
(PID.TID 0000.0001)                 1.029516845981377E+03,      /* K = 13 */
(PID.TID 0000.0001)                 1.029661849497701E+03,      /* K = 14 */
(PID.TID 0000.0001)                 1.029806752955880E+03,      /* K = 15 */
(PID.TID 0000.0001)                 1.029951556399652E+03,      /* K = 16 */
(PID.TID 0000.0001)                 1.030096259872781E+03,      /* K = 17 */
(PID.TID 0000.0001)                 1.030240863419048E+03,      /* K = 18 */
(PID.TID 0000.0001)                 1.030385367082259E+03,      /* K = 19 */
(PID.TID 0000.0001)                 1.030529770906240E+03,      /* K = 20 */
(PID.TID 0000.0001)                 1.030674074934840E+03,      /* K = 21 */
(PID.TID 0000.0001)                 1.030818279211929E+03,      /* K = 22 */
(PID.TID 0000.0001)                 1.030962383781397E+03,      /* K = 23 */
(PID.TID 0000.0001)                 1.031106388687158E+03,      /* K = 24 */
(PID.TID 0000.0001)                 1.031250293973144E+03,      /* K = 25 */
(PID.TID 0000.0001)                 1.031394099683310E+03,      /* K = 26 */
(PID.TID 0000.0001)                 1.031537805861633E+03,      /* K = 27 */
(PID.TID 0000.0001)                 1.031681412552109E+03,      /* K = 28 */
(PID.TID 0000.0001)                 1.031824919798755E+03,      /* K = 29 */
(PID.TID 0000.0001)                 1.031968327645610E+03       /* K = 30 */
(PID.TID 0000.0001)     ;
(PID.TID 0000.0001) dBdrRef = /* Vertical grad. of reference buoyancy [(m/s/r)^2] */
(PID.TID 0000.0001)    30 @  0.000000000000000E+00              /* K =  1: 30 */
(PID.TID 0000.0001)     ;
(PID.TID 0000.0001) useStrainTensionVisc= /* Use StrainTension Form of Viscous Operator */
(PID.TID 0000.0001)                   F
(PID.TID 0000.0001)     ;
(PID.TID 0000.0001) useVariableVisc = /* Use variable horizontal viscosity */
(PID.TID 0000.0001)                   F
(PID.TID 0000.0001)     ;
(PID.TID 0000.0001) useHarmonicVisc = /* Use harmonic horizontal viscosity */
(PID.TID 0000.0001)                   T
(PID.TID 0000.0001)     ;
(PID.TID 0000.0001) useBiharmonicVisc= /* Use biharmonic horiz.  viscosity */
(PID.TID 0000.0001)                   F
(PID.TID 0000.0001)     ;
(PID.TID 0000.0001) useSmag3D = /* Use isotropic 3-D Smagorinsky viscosity */
(PID.TID 0000.0001)                   F
(PID.TID 0000.0001)     ;
(PID.TID 0000.0001) viscAh  =   /* Lateral harmonic viscosity ( m^2/s ) */
(PID.TID 0000.0001)                 6.000000000000000E+02
(PID.TID 0000.0001)     ;
(PID.TID 0000.0001) viscA4  =   /* Lateral biharmonic viscosity ( m^4/s ) */
(PID.TID 0000.0001)                 0.000000000000000E+00
(PID.TID 0000.0001)     ;
(PID.TID 0000.0001) no_slip_sides =  /* Viscous BCs: No-slip sides */
(PID.TID 0000.0001)                   F
(PID.TID 0000.0001)     ;
(PID.TID 0000.0001) sideDragFactor = /* side-drag scaling factor (non-dim) */
(PID.TID 0000.0001)                 2.000000000000000E+00
(PID.TID 0000.0001)     ;
(PID.TID 0000.0001) viscArNr = /* vertical profile of vertical viscosity ( m^2/s )*/
(PID.TID 0000.0001)    30 @  1.000000000000000E-03              /* K =  1: 30 */
(PID.TID 0000.0001)     ;
(PID.TID 0000.0001) no_slip_bottom =  /* Viscous BCs: No-slip bottom */
(PID.TID 0000.0001)                   F
(PID.TID 0000.0001)     ;
(PID.TID 0000.0001) bottomVisc_pCell = /* Partial-cell in bottom Visc. BC */
(PID.TID 0000.0001)                   F
(PID.TID 0000.0001)     ;
(PID.TID 0000.0001) bottomDragLinear = /* linear bottom-drag coefficient ( m/s ) */
(PID.TID 0000.0001)                 0.000000000000000E+00
(PID.TID 0000.0001)     ;
(PID.TID 0000.0001) bottomDragQuadratic = /* quadratic bottom-drag coefficient (-) */
(PID.TID 0000.0001)                 2.500000000000000E-03
(PID.TID 0000.0001)     ;
(PID.TID 0000.0001) selectBotDragQuadr = /* select quadratic bottom drag options */
(PID.TID 0000.0001)                       0
(PID.TID 0000.0001)     ;
(PID.TID 0000.0001) diffKhT =   /* Laplacian diffusion of heat laterally ( m^2/s ) */
(PID.TID 0000.0001)                 1.000000000000000E+02
(PID.TID 0000.0001)     ;
(PID.TID 0000.0001) diffK4T =   /* Biharmonic diffusion of heat laterally ( m^4/s ) */
(PID.TID 0000.0001)                 0.000000000000000E+00
(PID.TID 0000.0001)     ;
(PID.TID 0000.0001) diffKhS =   /* Laplacian diffusion of salt laterally ( m^2/s ) */
(PID.TID 0000.0001)                 1.000000000000000E+02
(PID.TID 0000.0001)     ;
(PID.TID 0000.0001) diffK4S =   /* Biharmonic diffusion of salt laterally ( m^4/s ) */
(PID.TID 0000.0001)                 0.000000000000000E+00
(PID.TID 0000.0001)     ;
(PID.TID 0000.0001) diffKrNrT = /* vertical profile of vertical diffusion of Temp ( m^2/s )*/
(PID.TID 0000.0001)    30 @  5.000000000000000E-05              /* K =  1: 30 */
(PID.TID 0000.0001)     ;
(PID.TID 0000.0001) diffKrNrS = /* vertical profile of vertical diffusion of Salt ( m^2/s )*/
(PID.TID 0000.0001)    30 @  5.000000000000000E-05              /* K =  1: 30 */
(PID.TID 0000.0001)     ;
(PID.TID 0000.0001) diffKrBL79surf = /* Surface diffusion for Bryan and Lewis 79 ( m^2/s ) */
(PID.TID 0000.0001)                 0.000000000000000E+00
(PID.TID 0000.0001)     ;
(PID.TID 0000.0001) diffKrBL79deep = /* Deep diffusion for Bryan and Lewis 1979 ( m^2/s ) */
(PID.TID 0000.0001)                 0.000000000000000E+00
(PID.TID 0000.0001)     ;
(PID.TID 0000.0001) diffKrBL79scl = /* Depth scale for Bryan and Lewis 1979 ( m ) */
(PID.TID 0000.0001)                 2.000000000000000E+02
(PID.TID 0000.0001)     ;
(PID.TID 0000.0001) diffKrBL79Ho = /* Turning depth for Bryan and Lewis 1979 ( m ) */
(PID.TID 0000.0001)                -2.000000000000000E+03
(PID.TID 0000.0001)     ;
(PID.TID 0000.0001) ivdc_kappa = /* Implicit Vertical Diffusivity for Convection ( m^2/s) */
(PID.TID 0000.0001)                 0.000000000000000E+00
(PID.TID 0000.0001)     ;
(PID.TID 0000.0001) hMixCriteria=  /* Criteria for mixed-layer diagnostic */
(PID.TID 0000.0001)                -8.000000000000000E-01
(PID.TID 0000.0001)     ;
(PID.TID 0000.0001) dRhoSmall =  /* Parameter for mixed-layer diagnostic */
(PID.TID 0000.0001)                 1.000000000000000E-06
(PID.TID 0000.0001)     ;
(PID.TID 0000.0001) hMixSmooth=  /* Smoothing parameter for mixed-layer diagnostic */
(PID.TID 0000.0001)                 0.000000000000000E+00
(PID.TID 0000.0001)     ;
(PID.TID 0000.0001) eosType =  /* Type of Equation of State */
(PID.TID 0000.0001)               'JMD95Z'
(PID.TID 0000.0001)     ;
(PID.TID 0000.0001) eosRefP0 = /* Reference atmospheric pressure for EOS ( Pa ) */
(PID.TID 0000.0001)                 1.013250000000000E+05
(PID.TID 0000.0001)     ;
(PID.TID 0000.0001) selectP_inEOS_Zc = /* select pressure to use in EOS (0,1,2,3) */
(PID.TID 0000.0001)                       0
(PID.TID 0000.0001)     0= -g*rhoConst*z ; 1= pRef (from tRef,sRef); 2= Hyd P ; 3= Hyd+NH P
(PID.TID 0000.0001)     ;
(PID.TID 0000.0001) surf_pRef = /* Surface reference pressure ( Pa ) */
(PID.TID 0000.0001)                 1.013250000000000E+05
(PID.TID 0000.0001)     ;
(PID.TID 0000.0001) HeatCapacity_Cp =  /* Specific heat capacity ( J/kg/K ) */
(PID.TID 0000.0001)                 3.974000000000000E+03
(PID.TID 0000.0001)     ;
(PID.TID 0000.0001) celsius2K = /* 0 degree Celsius converted to Kelvin ( K ) */
(PID.TID 0000.0001)                 2.731500000000000E+02
(PID.TID 0000.0001)     ;
(PID.TID 0000.0001) rhoConst  = /* Reference density (Boussinesq)  ( kg/m^3 ) */
(PID.TID 0000.0001)                 1.030000000000000E+03
(PID.TID 0000.0001)     ;
(PID.TID 0000.0001) rhoFacC = /* normalized Reference density @ cell-Center (-) */
(PID.TID 0000.0001)    30 @  1.000000000000000E+00              /* K =  1: 30 */
(PID.TID 0000.0001)     ;
(PID.TID 0000.0001) rhoFacF = /* normalized Reference density @ W-Interface (-) */
(PID.TID 0000.0001)    31 @  1.000000000000000E+00              /* K =  1: 31 */
(PID.TID 0000.0001)     ;
(PID.TID 0000.0001) rhoConstFresh = /* Fresh-water reference density ( kg/m^3 ) */
(PID.TID 0000.0001)                 1.030000000000000E+03
(PID.TID 0000.0001)     ;
(PID.TID 0000.0001) gravity =   /* Gravitational acceleration ( m/s^2 ) */
(PID.TID 0000.0001)                 9.810000000000000E+00
(PID.TID 0000.0001)     ;
(PID.TID 0000.0001) gBaro =   /* Barotropic gravity ( m/s^2 ) */
(PID.TID 0000.0001)                 9.810000000000000E+00
(PID.TID 0000.0001)     ;
(PID.TID 0000.0001) gravFacC = /* gravity factor (vs surf.) @ cell-Center (-) */
(PID.TID 0000.0001)    30 @  1.000000000000000E+00              /* K =  1: 30 */
(PID.TID 0000.0001)     ;
(PID.TID 0000.0001) gravFacF = /* gravity factor (vs surf.) @ W-Interface (-) */
(PID.TID 0000.0001)    31 @  1.000000000000000E+00              /* K =  1: 31 */
(PID.TID 0000.0001)     ;
(PID.TID 0000.0001) rotationPeriod =   /* Rotation Period ( s ) */
(PID.TID 0000.0001)                 8.616400000000000E+04
(PID.TID 0000.0001)     ;
(PID.TID 0000.0001) omega =   /* Angular velocity ( rad/s ) */
(PID.TID 0000.0001)                 7.292123516990375E-05
(PID.TID 0000.0001)     ;
(PID.TID 0000.0001) f0 =   /* Reference coriolis parameter ( 1/s ) */
(PID.TID 0000.0001)                 1.000000000000000E-04
(PID.TID 0000.0001)     ;
(PID.TID 0000.0001) beta =   /* Beta ( 1/(m.s) ) */
(PID.TID 0000.0001)                 9.999999999999999E-12
(PID.TID 0000.0001)     ;
(PID.TID 0000.0001) fPrime =   /* Second coriolis parameter ( 1/s ) */
(PID.TID 0000.0001)                 0.000000000000000E+00
(PID.TID 0000.0001)     ;
(PID.TID 0000.0001) rigidLid =   /* Rigid lid on/off flag */
(PID.TID 0000.0001)                   F
(PID.TID 0000.0001)     ;
(PID.TID 0000.0001) implicitFreeSurface =   /* Implicit free surface on/off flag */
(PID.TID 0000.0001)                   T
(PID.TID 0000.0001)     ;
(PID.TID 0000.0001) freeSurfFac =   /* Implicit free surface factor */
(PID.TID 0000.0001)                 1.000000000000000E+00
(PID.TID 0000.0001)     ;
(PID.TID 0000.0001) implicSurfPress =  /* Surface Pressure implicit factor (0-1) */
(PID.TID 0000.0001)                 1.000000000000000E+00
(PID.TID 0000.0001)     ;
(PID.TID 0000.0001) implicDiv2DFlow =  /* Barot. Flow Div. implicit factor (0-1) */
(PID.TID 0000.0001)                 1.000000000000000E+00
(PID.TID 0000.0001)     ;
(PID.TID 0000.0001) uniformLin_PhiSurf = /* use uniform Bo_surf on/off flag */
(PID.TID 0000.0001)                   T
(PID.TID 0000.0001)     ;
(PID.TID 0000.0001) uniformFreeSurfLev = /* free-surface level-index is uniform */
(PID.TID 0000.0001)                   F
(PID.TID 0000.0001)     ;
(PID.TID 0000.0001) sIceLoadFac =  /* scale factor for sIceLoad (0-1) */
(PID.TID 0000.0001)                 1.000000000000000E+00
(PID.TID 0000.0001)     ;
(PID.TID 0000.0001) hFacMin =   /* minimum partial cell factor (hFac) */
(PID.TID 0000.0001)                 5.000000000000000E-02
(PID.TID 0000.0001)     ;
(PID.TID 0000.0001) hFacMinDr = /* minimum partial cell thickness ( m) */
(PID.TID 0000.0001)                 0.000000000000000E+00
(PID.TID 0000.0001)     ;
(PID.TID 0000.0001) exactConserv =  /* Exact Volume Conservation on/off flag */
(PID.TID 0000.0001)                   T
(PID.TID 0000.0001)     ;
(PID.TID 0000.0001) linFSConserveTr = /* Tracer correction for Lin Free Surface on/off flag */
(PID.TID 0000.0001)                   F
(PID.TID 0000.0001)     ;
(PID.TID 0000.0001) nonlinFreeSurf = /* Non-linear Free Surf. options (-1,0,1,2,3)*/
(PID.TID 0000.0001)                       0
(PID.TID 0000.0001)      -1,0= Off ; 1,2,3= On, 2=+rescale gU,gV, 3=+update cg2d solv.
(PID.TID 0000.0001)     ;
(PID.TID 0000.0001) hFacInf =   /* lower threshold for hFac (nonlinFreeSurf only)*/
(PID.TID 0000.0001)                 2.000000000000000E-01
(PID.TID 0000.0001)     ;
(PID.TID 0000.0001) hFacSup =   /* upper threshold for hFac (nonlinFreeSurf only)*/
(PID.TID 0000.0001)                 2.000000000000000E+00
(PID.TID 0000.0001)     ;
(PID.TID 0000.0001) select_rStar = /* r* Vertical coord. options (=0 r coord.; >0 uses r*)*/
(PID.TID 0000.0001)                       0
(PID.TID 0000.0001)     ;
(PID.TID 0000.0001) useRealFreshWaterFlux = /* Real Fresh Water Flux on/off flag*/
(PID.TID 0000.0001)                   F
(PID.TID 0000.0001)     ;
(PID.TID 0000.0001) temp_EvPrRn = /* Temp. of Evap/Prec/R (UNSET=use local T)(oC)*/
(PID.TID 0000.0001)                 1.234567000000000E+05
(PID.TID 0000.0001)     ;
(PID.TID 0000.0001) salt_EvPrRn = /* Salin. of Evap/Prec/R (UNSET=use local S)(g/kg)*/
(PID.TID 0000.0001)                 0.000000000000000E+00
(PID.TID 0000.0001)     ;
(PID.TID 0000.0001) selectAddFluid = /* option for mass source/sink of fluid (=0: off) */
(PID.TID 0000.0001)                       0
(PID.TID 0000.0001)     ;
(PID.TID 0000.0001) temp_addMass = /* Temp. of addMass array (UNSET=use local T)(oC)*/
(PID.TID 0000.0001)                 1.234567000000000E+05
(PID.TID 0000.0001)     ;
(PID.TID 0000.0001) salt_addMass = /* Salin. of addMass array (UNSET=use local S)(g/kg)*/
(PID.TID 0000.0001)                 0.000000000000000E+00
(PID.TID 0000.0001)     ;
(PID.TID 0000.0001) convertFW2Salt = /* convert F.W. Flux to Salt Flux (-1=use local S)(g/kg)*/
(PID.TID 0000.0001)                 3.340000000000000E+01
(PID.TID 0000.0001)     ;
(PID.TID 0000.0001) use3Dsolver = /* use 3-D pressure solver on/off flag */
(PID.TID 0000.0001)                   F
(PID.TID 0000.0001)     ;
(PID.TID 0000.0001) nonHydrostatic =  /* Non-Hydrostatic on/off flag */
(PID.TID 0000.0001)                   F
(PID.TID 0000.0001)     ;
(PID.TID 0000.0001) nh_Am2 = /* Non-Hydrostatic terms scaling factor */
(PID.TID 0000.0001)                 1.000000000000000E+00
(PID.TID 0000.0001)     ;
(PID.TID 0000.0001) implicitNHPress = /* Non-Hyd Pressure implicit factor (0-1)*/
(PID.TID 0000.0001)                 1.000000000000000E+00
(PID.TID 0000.0001)     ;
(PID.TID 0000.0001) selectNHfreeSurf = /* Non-Hyd (free-)Surface option */
(PID.TID 0000.0001)                       0
(PID.TID 0000.0001)     ;
(PID.TID 0000.0001) quasiHydrostatic = /* Quasi-Hydrostatic on/off flag */
(PID.TID 0000.0001)                   F
(PID.TID 0000.0001)     ;
(PID.TID 0000.0001) calc_wVelocity = /* vertical velocity calculation on/off flag */
(PID.TID 0000.0001)                   T
(PID.TID 0000.0001)     ;
(PID.TID 0000.0001) momStepping =  /* Momentum equation on/off flag */
(PID.TID 0000.0001)                   T
(PID.TID 0000.0001)     ;
(PID.TID 0000.0001) vectorInvariantMomentum= /* Vector-Invariant Momentum on/off */
(PID.TID 0000.0001)                   F
(PID.TID 0000.0001)     ;
(PID.TID 0000.0001) momAdvection =  /* Momentum advection on/off flag */
(PID.TID 0000.0001)                   T
(PID.TID 0000.0001)     ;
(PID.TID 0000.0001) momViscosity =  /* Momentum viscosity on/off flag */
(PID.TID 0000.0001)                   T
(PID.TID 0000.0001)     ;
(PID.TID 0000.0001) momImplVertAdv= /* Momentum implicit vert. advection on/off*/
(PID.TID 0000.0001)                   F
(PID.TID 0000.0001)     ;
(PID.TID 0000.0001) implicitViscosity = /* Implicit viscosity on/off flag */
(PID.TID 0000.0001)                   F
(PID.TID 0000.0001)     ;
(PID.TID 0000.0001) selectImplicitDrag= /* Implicit bot Drag options (0,1,2)*/
(PID.TID 0000.0001)                       0
(PID.TID 0000.0001)     0= Expl. ; 1= Impl. on provis. Vel ; 2= Fully Impl (with surf.P)
(PID.TID 0000.0001)     ;
(PID.TID 0000.0001) metricTerms =  /* metric-Terms on/off flag */
(PID.TID 0000.0001)                   T
(PID.TID 0000.0001)     ;
(PID.TID 0000.0001) useNHMTerms = /* Non-Hydrostatic Metric-Terms on/off */
(PID.TID 0000.0001)                   F
(PID.TID 0000.0001)     ;
(PID.TID 0000.0001) selectCoriMap = /* Coriolis Map options (0,1,2,3)*/
(PID.TID 0000.0001)                       2
(PID.TID 0000.0001)     0= f-Plane ; 1= Beta-Plane ; 2= Spherical ; 3= read from file
(PID.TID 0000.0001)     ;
(PID.TID 0000.0001) use3dCoriolis = /* 3-D Coriolis on/off flag */
(PID.TID 0000.0001)                   F
(PID.TID 0000.0001)     ;
(PID.TID 0000.0001) useCoriolis =  /* Coriolis on/off flag */
(PID.TID 0000.0001)                   T
(PID.TID 0000.0001)     ;
(PID.TID 0000.0001) useCDscheme =  /* CD scheme on/off flag */
(PID.TID 0000.0001)                   T
(PID.TID 0000.0001)     ;
(PID.TID 0000.0001) selectCoriScheme= /* Scheme selector for Coriolis-Term */
(PID.TID 0000.0001)                       0
(PID.TID 0000.0001)    = 0 : original discretization (simple averaging, no hFac)
(PID.TID 0000.0001)    = 1 : Wet-point averaging (Jamar & Ozer 1986)
(PID.TID 0000.0001)    = 2 : energy conserving scheme (no hFac weight)
(PID.TID 0000.0001)    = 3 : energy conserving scheme using Wet-point averaging
(PID.TID 0000.0001)     ;
(PID.TID 0000.0001) momForcing =  /* Momentum forcing on/off flag */
(PID.TID 0000.0001)                   T
(PID.TID 0000.0001)     ;
(PID.TID 0000.0001) momTidalForcing = /* Momentum Tidal forcing on/off flag */
(PID.TID 0000.0001)                   T
(PID.TID 0000.0001)     ;
(PID.TID 0000.0001) momPressureForcing =  /* Momentum pressure term on/off flag */
(PID.TID 0000.0001)                   T
(PID.TID 0000.0001)     ;
(PID.TID 0000.0001) implicitIntGravWave= /* Implicit Internal Gravity Wave flag */
(PID.TID 0000.0001)                   F
(PID.TID 0000.0001)     ;
(PID.TID 0000.0001) staggerTimeStep =    /* Stagger time stepping on/off flag */
(PID.TID 0000.0001)                   F
(PID.TID 0000.0001)     ;
(PID.TID 0000.0001) doResetHFactors = /* reset thickness factors @ each time-step */
(PID.TID 0000.0001)                   F
(PID.TID 0000.0001)     ;
(PID.TID 0000.0001) multiDimAdvection =  /* enable/disable Multi-Dim Advection */
(PID.TID 0000.0001)                   T
(PID.TID 0000.0001)     ;
(PID.TID 0000.0001) useMultiDimAdvec =   /* Multi-Dim Advection is/is-not used */
(PID.TID 0000.0001)                   F
(PID.TID 0000.0001)     ;
(PID.TID 0000.0001) implicitDiffusion = /* Implicit Diffusion on/off flag */
(PID.TID 0000.0001)                   F
(PID.TID 0000.0001)     ;
(PID.TID 0000.0001) tempStepping =  /* Temperature equation on/off flag */
(PID.TID 0000.0001)                   T
(PID.TID 0000.0001)     ;
(PID.TID 0000.0001) tempAdvection = /* Temperature advection on/off flag */
(PID.TID 0000.0001)                   T
(PID.TID 0000.0001)     ;
(PID.TID 0000.0001) tempImplVertAdv = /* Temp. implicit vert. advection on/off */
(PID.TID 0000.0001)                   F
(PID.TID 0000.0001)     ;
(PID.TID 0000.0001) tempForcing  =  /* Temperature forcing on/off flag */
(PID.TID 0000.0001)                   T
(PID.TID 0000.0001)     ;
(PID.TID 0000.0001) doThetaClimRelax = /* apply SST relaxation on/off flag */
(PID.TID 0000.0001)                   F
(PID.TID 0000.0001)     ;
(PID.TID 0000.0001) tempIsActiveTr = /* Temp. is a dynamically Active Tracer */
(PID.TID 0000.0001)                   T
(PID.TID 0000.0001)     ;
(PID.TID 0000.0001) saltStepping =  /* Salinity equation on/off flag */
(PID.TID 0000.0001)                   T
(PID.TID 0000.0001)     ;
(PID.TID 0000.0001) saltAdvection = /* Salinity advection on/off flag */
(PID.TID 0000.0001)                   T
(PID.TID 0000.0001)     ;
(PID.TID 0000.0001) saltImplVertAdv = /* Sali. implicit vert. advection on/off */
(PID.TID 0000.0001)                   F
(PID.TID 0000.0001)     ;
(PID.TID 0000.0001) saltForcing  =  /* Salinity forcing on/off flag */
(PID.TID 0000.0001)                   T
(PID.TID 0000.0001)     ;
(PID.TID 0000.0001) doSaltClimRelax = /* apply SSS relaxation on/off flag */
(PID.TID 0000.0001)                   F
(PID.TID 0000.0001)     ;
(PID.TID 0000.0001) saltIsActiveTr = /* Salt  is a dynamically Active Tracer */
(PID.TID 0000.0001)                   T
(PID.TID 0000.0001)     ;
(PID.TID 0000.0001)  readBinaryPrec = /* Precision used for reading binary files */
(PID.TID 0000.0001)                      64
(PID.TID 0000.0001)     ;
(PID.TID 0000.0001) writeBinaryPrec = /* Precision used for writing binary files */
(PID.TID 0000.0001)                      32
(PID.TID 0000.0001)     ;
(PID.TID 0000.0001)  rwSuffixType =   /* select format of mds file suffix */
(PID.TID 0000.0001)                       0
(PID.TID 0000.0001)    = 0 : myIter (I10.10) ;   = 1 : 100*myTime (100th sec) ;
(PID.TID 0000.0001)    = 2 : myTime (seconds);   = 3 : myTime/360 (10th of hr);
(PID.TID 0000.0001)    = 4 : myTime/3600 (hours)
(PID.TID 0000.0001)     ;
(PID.TID 0000.0001)  globalFiles = /* write "global" (=not per tile) files */
(PID.TID 0000.0001)                   F
(PID.TID 0000.0001)     ;
(PID.TID 0000.0001)  useSingleCpuIO = /* only master MPI process does I/O */
(PID.TID 0000.0001)                   F
(PID.TID 0000.0001)     ;
(PID.TID 0000.0001)  useSingleCpuInput = /* only master process reads input */
(PID.TID 0000.0001)                   F
(PID.TID 0000.0001)     ;
(PID.TID 0000.0001) /* debLev[*]  : level of debug & auxiliary message printing */
(PID.TID 0000.0001) debLevZero =  0 ; /* level of disabled aux. msg printing */
(PID.TID 0000.0001)    debLevA =  1 ; /* level of minimum  aux. msg printing */
(PID.TID 0000.0001)    debLevB =  2 ; /* level of low aux. print (report read-file opening)*/
(PID.TID 0000.0001)    debLevC =  3 ; /* level of moderate debug prt (most pkgs debug msg) */
(PID.TID 0000.0001)    debLevD =  4 ; /* level of enhanced debug prt (add DEBUG_STATS prt) */
(PID.TID 0000.0001)    debLevE =  5 ; /* level of extensive debug printing */
(PID.TID 0000.0001) debugLevel =  /* select debug printing level */
(PID.TID 0000.0001)                       2
(PID.TID 0000.0001)     ;
(PID.TID 0000.0001)  plotLevel =  /* select PLOT_FIELD printing level */
(PID.TID 0000.0001)                       2
(PID.TID 0000.0001)     ;
(PID.TID 0000.0001) //
(PID.TID 0000.0001) // Elliptic solver(s) paramters ( PARM02 in namelist )
(PID.TID 0000.0001) //
(PID.TID 0000.0001) cg2dMaxIters =   /* Upper limit on 2d con. grad iterations  */
(PID.TID 0000.0001)                    1000
(PID.TID 0000.0001)     ;
(PID.TID 0000.0001) cg2dMinItersNSA =   /* Minimum number of iterations of 2d con. grad solver  */
(PID.TID 0000.0001)                       0
(PID.TID 0000.0001)     ;
(PID.TID 0000.0001) cg2dUseMinResSol= /* use cg2d last-iter(=0) / min-resid.(=1) solution */
(PID.TID 0000.0001)                       0
(PID.TID 0000.0001)     ;
(PID.TID 0000.0001) cg2dTargetResidual =   /* 2d con. grad target residual  */
(PID.TID 0000.0001)                 1.000000000000000E-13
(PID.TID 0000.0001)     ;
(PID.TID 0000.0001) cg2dTargetResWunit =   /* CG2d target residual [W units] */
(PID.TID 0000.0001)                -1.000000000000000E+00
(PID.TID 0000.0001)     ;
(PID.TID 0000.0001) cg2dPreCondFreq =   /* Freq. for updating cg2d preconditioner */
(PID.TID 0000.0001)                       1
(PID.TID 0000.0001)     ;
(PID.TID 0000.0001) useSRCGSolver =  /* use single reduction CG solver(s) */
(PID.TID 0000.0001)                   F
(PID.TID 0000.0001)     ;
(PID.TID 0000.0001) useNSACGSolver =  /* use not-self-adjoint CG solver */
(PID.TID 0000.0001)                   F
(PID.TID 0000.0001)     ;
(PID.TID 0000.0001) printResidualFreq = /* Freq. for printing CG residual */
(PID.TID 0000.0001)                       0
(PID.TID 0000.0001)     ;
(PID.TID 0000.0001) //
(PID.TID 0000.0001) // Time stepping paramters ( PARM03 in namelist )
(PID.TID 0000.0001) //
(PID.TID 0000.0001) deltaTMom =   /* Momentum equation timestep ( s ) */
(PID.TID 0000.0001)                 1.800000000000000E+03
(PID.TID 0000.0001)     ;
(PID.TID 0000.0001) deltaTFreeSurf = /* FreeSurface equation timestep ( s ) */
(PID.TID 0000.0001)                 1.800000000000000E+03
(PID.TID 0000.0001)     ;
(PID.TID 0000.0001) dTtracerLev =  /* Tracer equation timestep ( s ) */
(PID.TID 0000.0001)    30 @  1.800000000000000E+03              /* K =  1: 30 */
(PID.TID 0000.0001)     ;
(PID.TID 0000.0001) deltaTClock  =   /* Model clock timestep ( s ) */
(PID.TID 0000.0001)                 1.800000000000000E+03
(PID.TID 0000.0001)     ;
(PID.TID 0000.0001) cAdjFreq =   /* Convective adjustment interval ( s ) */
(PID.TID 0000.0001)                 1.800000000000000E+03
(PID.TID 0000.0001)     ;
(PID.TID 0000.0001) momForcingOutAB = /* =1: take Momentum Forcing out of Adams-Bash. stepping */
(PID.TID 0000.0001)                       0
(PID.TID 0000.0001)     ;
(PID.TID 0000.0001) tracForcingOutAB = /* =1: take T,S,pTr Forcing out of Adams-Bash. stepping */
(PID.TID 0000.0001)                       0
(PID.TID 0000.0001)     ;
(PID.TID 0000.0001) momDissip_In_AB = /* put Dissipation Tendency in Adams-Bash. stepping */
(PID.TID 0000.0001)                   T
(PID.TID 0000.0001)     ;
(PID.TID 0000.0001) doAB_onGtGs = /* apply AB on Tendencies (rather than on T,S)*/
(PID.TID 0000.0001)                   T
(PID.TID 0000.0001)     ;
(PID.TID 0000.0001) abEps =   /* Adams-Bashforth-2 stabilizing weight */
(PID.TID 0000.0001)                 1.000000000000000E-01
(PID.TID 0000.0001)     ;
(PID.TID 0000.0001) applyExchUV_early = /* Apply EXCH to U,V earlier in time-step */
(PID.TID 0000.0001)                   F
(PID.TID 0000.0001)     ;
(PID.TID 0000.0001) tauCD =   /* CD coupling time-scale ( s ) */
(PID.TID 0000.0001)                 4.000000000000000E+05
(PID.TID 0000.0001)     ;
(PID.TID 0000.0001) rCD =   /* Normalised CD coupling parameter */
(PID.TID 0000.0001)                 9.955000000000001E-01
(PID.TID 0000.0001)     ;
(PID.TID 0000.0001) epsAB_CD = /* AB-2 stabilizing weight for CD-scheme*/
(PID.TID 0000.0001)                 1.000000000000000E-01
(PID.TID 0000.0001)     ;
(PID.TID 0000.0001) pickupStrictlyMatch= /* stop if pickup do not strictly match */
(PID.TID 0000.0001)                   T
(PID.TID 0000.0001)     ;
(PID.TID 0000.0001) nIter0   =   /* Run starting timestep number */
(PID.TID 0000.0001)                       0
(PID.TID 0000.0001)     ;
(PID.TID 0000.0001) nTimeSteps = /* Number of timesteps */
(PID.TID 0000.0001)                      20
(PID.TID 0000.0001)     ;
(PID.TID 0000.0001) nEndIter =   /* Run ending timestep number */
(PID.TID 0000.0001)                      20
(PID.TID 0000.0001)     ;
(PID.TID 0000.0001) baseTime =   /* Model base time ( s ) */
(PID.TID 0000.0001)                 0.000000000000000E+00
(PID.TID 0000.0001)     ;
(PID.TID 0000.0001) startTime =  /* Run start time ( s ) */
(PID.TID 0000.0001)                 0.000000000000000E+00
(PID.TID 0000.0001)     ;
(PID.TID 0000.0001) endTime  =   /* Integration ending time ( s ) */
(PID.TID 0000.0001)                 3.600000000000000E+04
(PID.TID 0000.0001)     ;
(PID.TID 0000.0001) pChkPtFreq = /* Permanent restart/pickup file interval ( s ) */
(PID.TID 0000.0001)                 0.000000000000000E+00
(PID.TID 0000.0001)     ;
(PID.TID 0000.0001) chkPtFreq  = /* Rolling restart/pickup file interval ( s ) */
(PID.TID 0000.0001)                 0.000000000000000E+00
(PID.TID 0000.0001)     ;
(PID.TID 0000.0001) pickup_write_mdsio =   /* Model IO flag. */
(PID.TID 0000.0001)                   T
(PID.TID 0000.0001)     ;
(PID.TID 0000.0001) pickup_read_mdsio =   /* Model IO flag. */
(PID.TID 0000.0001)                   T
(PID.TID 0000.0001)     ;
(PID.TID 0000.0001) pickup_write_mnc =   /* Model IO flag. */
(PID.TID 0000.0001)                   F
(PID.TID 0000.0001)     ;
(PID.TID 0000.0001) pickup_read_mnc =   /* Model IO flag. */
(PID.TID 0000.0001)                   F
(PID.TID 0000.0001)     ;
(PID.TID 0000.0001) writePickupAtEnd =   /* Model IO flag. */
(PID.TID 0000.0001)                   T
(PID.TID 0000.0001)     ;
(PID.TID 0000.0001) dumpFreq =   /* Model state write out interval ( s ). */
(PID.TID 0000.0001)                 0.000000000000000E+00
(PID.TID 0000.0001)     ;
(PID.TID 0000.0001) dumpInitAndLast= /* write out Initial & Last iter. model state */
(PID.TID 0000.0001)                   T
(PID.TID 0000.0001)     ;
(PID.TID 0000.0001) snapshot_mdsio =   /* Model IO flag. */
(PID.TID 0000.0001)                   T
(PID.TID 0000.0001)     ;
(PID.TID 0000.0001) snapshot_mnc =   /* Model IO flag. */
(PID.TID 0000.0001)                   F
(PID.TID 0000.0001)     ;
(PID.TID 0000.0001) monitorFreq =   /* Monitor output interval ( s ). */
(PID.TID 0000.0001)                 1.000000000000000E+00
(PID.TID 0000.0001)     ;
(PID.TID 0000.0001) monitorSelect = /* select group of variables to monitor */
(PID.TID 0000.0001)                       2
(PID.TID 0000.0001)     ;
(PID.TID 0000.0001) monitor_stdio =   /* Model IO flag. */
(PID.TID 0000.0001)                   T
(PID.TID 0000.0001)     ;
(PID.TID 0000.0001) monitor_mnc =   /* Model IO flag. */
(PID.TID 0000.0001)                   F
(PID.TID 0000.0001)     ;
(PID.TID 0000.0001) externForcingPeriod =   /* forcing period (s) */
(PID.TID 0000.0001)                 0.000000000000000E+00
(PID.TID 0000.0001)     ;
(PID.TID 0000.0001) externForcingCycle =   /* period of the cyle (s). */
(PID.TID 0000.0001)                 0.000000000000000E+00
(PID.TID 0000.0001)     ;
(PID.TID 0000.0001) tauThetaClimRelax =   /* relaxation time scale (s) */
(PID.TID 0000.0001)                 0.000000000000000E+00
(PID.TID 0000.0001)     ;
(PID.TID 0000.0001) tauSaltClimRelax =   /* relaxation time scale (s) */
(PID.TID 0000.0001)                 0.000000000000000E+00
(PID.TID 0000.0001)     ;
(PID.TID 0000.0001) latBandClimRelax =   /* max. Lat. where relaxation */
(PID.TID 0000.0001)                 1.800000000000000E+02
(PID.TID 0000.0001)     ;
(PID.TID 0000.0001) //
(PID.TID 0000.0001) // Gridding paramters ( PARM04 in namelist )
(PID.TID 0000.0001) //
(PID.TID 0000.0001) usingCartesianGrid = /* Cartesian coordinates flag ( True/False ) */
(PID.TID 0000.0001)                   F
(PID.TID 0000.0001)     ;
(PID.TID 0000.0001) usingCylindricalGrid = /* Cylindrical coordinates flag ( True/False ) */
(PID.TID 0000.0001)                   F
(PID.TID 0000.0001)     ;
(PID.TID 0000.0001) usingSphericalPolarGrid = /* Spherical coordinates flag ( True/False ) */
(PID.TID 0000.0001)                   T
(PID.TID 0000.0001)     ;
(PID.TID 0000.0001) usingCurvilinearGrid = /* Curvilinear coordinates flag ( True/False ) */
(PID.TID 0000.0001)                   F
(PID.TID 0000.0001)     ;
(PID.TID 0000.0001) useMin4hFacEdges = /* set hFacW,S as minimum of adjacent hFacC factor */
(PID.TID 0000.0001)                   F
(PID.TID 0000.0001)     ;
(PID.TID 0000.0001) interViscAr_pCell = /* account for partial-cell in interior vert. viscosity */
(PID.TID 0000.0001)                   F
(PID.TID 0000.0001)     ;
(PID.TID 0000.0001) interDiffKr_pCell = /* account for partial-cell in interior vert. diffusion */
(PID.TID 0000.0001)                   F
(PID.TID 0000.0001)     ;
(PID.TID 0000.0001) pCellMix_select = /* option to enhance mixing near surface & bottom */
(PID.TID 0000.0001)                       0
(PID.TID 0000.0001)     ;
(PID.TID 0000.0001) selectSigmaCoord = /* Hybrid-Sigma Vert. Coordinate option */
(PID.TID 0000.0001)                       0
(PID.TID 0000.0001)     ;
(PID.TID 0000.0001) rSigmaBnd = /* r/sigma transition ( units of r ==  m ) */
(PID.TID 0000.0001)                 1.234567000000000E+05
(PID.TID 0000.0001)     ;
(PID.TID 0000.0001) rkSign =   /* index orientation relative to vertical coordinate */
(PID.TID 0000.0001)                -1.000000000000000E+00
(PID.TID 0000.0001)     ;
(PID.TID 0000.0001) gravitySign = /* gravity orientation relative to vertical coordinate */
(PID.TID 0000.0001)                -1.000000000000000E+00
(PID.TID 0000.0001)     ;
(PID.TID 0000.0001) seaLev_Z =  /* reference height of sea-level [m] */
(PID.TID 0000.0001)                 0.000000000000000E+00
(PID.TID 0000.0001)     ;
(PID.TID 0000.0001) top_Pres =  /* reference pressure at the top [Pa] */
(PID.TID 0000.0001)                 0.000000000000000E+00
(PID.TID 0000.0001)     ;
(PID.TID 0000.0001) mass2rUnit = /* convert mass per unit area [kg/m2] to r-units [m] */
(PID.TID 0000.0001)                 9.708737864077669E-04
(PID.TID 0000.0001)     ;
(PID.TID 0000.0001) rUnit2mass = /* convert r-units [m] to mass per unit area [kg/m2] */
(PID.TID 0000.0001)                 1.030000000000000E+03
(PID.TID 0000.0001)     ;
(PID.TID 0000.0001) drC =   /* C spacing ( units of r ) */
(PID.TID 0000.0001)                 1.500000000000000E+01,      /* K =  1 */
(PID.TID 0000.0001)    29 @  3.000000000000000E+01,             /* K =  2: 30 */
(PID.TID 0000.0001)                 1.500000000000000E+01       /* K = 31 */
(PID.TID 0000.0001)     ;
(PID.TID 0000.0001) drF =   /* W spacing ( units of r ) */
(PID.TID 0000.0001)    30 @  3.000000000000000E+01              /* K =  1: 30 */
(PID.TID 0000.0001)     ;
(PID.TID 0000.0001) delX = /* U spacing ( m - cartesian, degrees - spherical ) */
(PID.TID 0000.0001)    50 @  3.000000000000000E-01              /* I =  1: 50 */
(PID.TID 0000.0001)     ;
(PID.TID 0000.0001) delY = /* V spacing ( m - cartesian, degrees - spherical ) */
(PID.TID 0000.0001)   100 @  1.000000000000000E-01              /* J =  1:100 */
(PID.TID 0000.0001)     ;
(PID.TID 0000.0001) xgOrigin = /* X-axis origin of West  edge (cartesian: m, lat-lon: deg) */
(PID.TID 0000.0001)                 0.000000000000000E+00
(PID.TID 0000.0001)     ;
(PID.TID 0000.0001) ygOrigin = /* Y-axis origin of South edge (cartesian: m, lat-lon: deg) */
(PID.TID 0000.0001)                -8.000000000000000E+01
(PID.TID 0000.0001)     ;
(PID.TID 0000.0001) rSphere =  /* Radius ( ignored - cartesian, m - spherical ) */
(PID.TID 0000.0001)                 6.370000000000000E+06
(PID.TID 0000.0001)     ;
(PID.TID 0000.0001) deepAtmosphere = /* Deep/Shallow Atmosphere flag (True/False) */
(PID.TID 0000.0001)                   F
(PID.TID 0000.0001)     ;
(PID.TID 0000.0001) xC =  /* xC(:,1,:,1) : P-point X coord ( deg. or m if cartesian) */
(PID.TID 0000.0001)                 1.500000000000001E-01,      /* I =  1 */
(PID.TID 0000.0001)                 4.500000000000001E-01,      /* I =  2 */
(PID.TID 0000.0001)                 7.500000000000002E-01,      /* I =  3 */
(PID.TID 0000.0001)                 1.050000000000000E+00,      /* I =  4 */
(PID.TID 0000.0001)                 1.350000000000000E+00,      /* I =  5 */
(PID.TID 0000.0001)                 1.650000000000000E+00,      /* I =  6 */
(PID.TID 0000.0001)                 1.950000000000000E+00,      /* I =  7 */
(PID.TID 0000.0001)                 2.250000000000000E+00,      /* I =  8 */
(PID.TID 0000.0001)                 2.550000000000000E+00,      /* I =  9 */
(PID.TID 0000.0001)                 2.850000000000000E+00,      /* I = 10 */
(PID.TID 0000.0001)                 3.149999999999999E+00,      /* I = 11 */
(PID.TID 0000.0001)                 3.449999999999999E+00,      /* I = 12 */
(PID.TID 0000.0001)                 3.749999999999999E+00,      /* I = 13 */
(PID.TID 0000.0001)                 4.049999999999999E+00,      /* I = 14 */
(PID.TID 0000.0001)                 4.350000000000000E+00,      /* I = 15 */
(PID.TID 0000.0001)                 4.649999999999999E+00,      /* I = 16 */
(PID.TID 0000.0001)                 4.949999999999999E+00,      /* I = 17 */
(PID.TID 0000.0001)                 5.249999999999998E+00,      /* I = 18 */
(PID.TID 0000.0001)                 5.549999999999999E+00,      /* I = 19 */
(PID.TID 0000.0001)                 5.849999999999998E+00,      /* I = 20 */
(PID.TID 0000.0001)                 6.149999999999999E+00,      /* I = 21 */
(PID.TID 0000.0001)                 6.449999999999998E+00,      /* I = 22 */
(PID.TID 0000.0001)                 6.749999999999998E+00,      /* I = 23 */
(PID.TID 0000.0001)                 7.049999999999997E+00,      /* I = 24 */
(PID.TID 0000.0001)                 7.349999999999997E+00,      /* I = 25 */
(PID.TID 0000.0001)                 7.649999999999997E+00,      /* I = 26 */
(PID.TID 0000.0001)                 7.949999999999998E+00,      /* I = 27 */
(PID.TID 0000.0001)                 8.249999999999998E+00,      /* I = 28 */
(PID.TID 0000.0001)                 8.549999999999999E+00,      /* I = 29 */
(PID.TID 0000.0001)                 8.850000000000000E+00,      /* I = 30 */
(PID.TID 0000.0001)                 9.150000000000000E+00,      /* I = 31 */
(PID.TID 0000.0001)                 9.450000000000001E+00,      /* I = 32 */
(PID.TID 0000.0001)                 9.750000000000002E+00,      /* I = 33 */
(PID.TID 0000.0001)                 1.005000000000000E+01,      /* I = 34 */
(PID.TID 0000.0001)                 1.035000000000000E+01,      /* I = 35 */
(PID.TID 0000.0001)                 1.065000000000000E+01,      /* I = 36 */
(PID.TID 0000.0001)                 1.095000000000001E+01,      /* I = 37 */
(PID.TID 0000.0001)                 1.125000000000001E+01,      /* I = 38 */
(PID.TID 0000.0001)                 1.155000000000000E+01,      /* I = 39 */
(PID.TID 0000.0001)                 1.185000000000001E+01,      /* I = 40 */
(PID.TID 0000.0001)                 1.215000000000001E+01,      /* I = 41 */
(PID.TID 0000.0001)                 1.245000000000001E+01,      /* I = 42 */
(PID.TID 0000.0001)                 1.275000000000001E+01,      /* I = 43 */
(PID.TID 0000.0001)                 1.305000000000001E+01,      /* I = 44 */
(PID.TID 0000.0001)                 1.335000000000001E+01,      /* I = 45 */
(PID.TID 0000.0001)                 1.365000000000001E+01,      /* I = 46 */
(PID.TID 0000.0001)                 1.395000000000001E+01,      /* I = 47 */
(PID.TID 0000.0001)                 1.425000000000001E+01,      /* I = 48 */
(PID.TID 0000.0001)                 1.455000000000001E+01,      /* I = 49 */
(PID.TID 0000.0001)                 1.485000000000001E+01       /* I = 50 */
(PID.TID 0000.0001)     ;
(PID.TID 0000.0001) yC =  /* yC(1,:,1,:) : P-point Y coord ( deg. or m if cartesian) */
(PID.TID 0000.0001)                -7.995000000000000E+01,      /* J =  1 */
(PID.TID 0000.0001)                -7.985000000000001E+01,      /* J =  2 */
(PID.TID 0000.0001)                -7.975000000000001E+01,      /* J =  3 */
(PID.TID 0000.0001)      . . .
(PID.TID 0000.0001)                -7.775000000000013E+01,      /* J = 23 */
(PID.TID 0000.0001)                -7.765000000000013E+01,      /* J = 24 */
(PID.TID 0000.0001)                -7.755000000000014E+01,      /* J = 25 */
(PID.TID 0000.0001)                -7.745000000000014E+01,      /* J = 26 */
(PID.TID 0000.0001)                -7.735000000000015E+01,      /* J = 27 */
(PID.TID 0000.0001)                -7.725000000000016E+01,      /* J = 28 */
(PID.TID 0000.0001)      . . .
(PID.TID 0000.0001)                -7.525000000000027E+01,      /* J = 48 */
(PID.TID 0000.0001)                -7.515000000000028E+01,      /* J = 49 */
(PID.TID 0000.0001)                -7.505000000000028E+01,      /* J = 50 */
(PID.TID 0000.0001)                -7.495000000000029E+01,      /* J = 51 */
(PID.TID 0000.0001)                -7.485000000000029E+01,      /* J = 52 */
(PID.TID 0000.0001)                -7.475000000000030E+01,      /* J = 53 */
(PID.TID 0000.0001)      . . .
(PID.TID 0000.0001)                -7.275000000000041E+01,      /* J = 73 */
(PID.TID 0000.0001)                -7.265000000000042E+01,      /* J = 74 */
(PID.TID 0000.0001)                -7.255000000000042E+01,      /* J = 75 */
(PID.TID 0000.0001)                -7.245000000000043E+01,      /* J = 76 */
(PID.TID 0000.0001)                -7.235000000000043E+01,      /* J = 77 */
(PID.TID 0000.0001)                -7.225000000000044E+01,      /* J = 78 */
(PID.TID 0000.0001)      . . .
(PID.TID 0000.0001)                -7.025000000000055E+01,      /* J = 98 */
(PID.TID 0000.0001)                -7.015000000000056E+01,      /* J = 99 */
(PID.TID 0000.0001)                -7.005000000000057E+01       /* J =100 */
(PID.TID 0000.0001)     ;
(PID.TID 0000.0001) rcoord = /* P-point R coordinate (  units of r ) */
(PID.TID 0000.0001)                -1.500000000000000E+01,      /* K =  1 */
(PID.TID 0000.0001)                -4.500000000000000E+01,      /* K =  2 */
(PID.TID 0000.0001)                -7.500000000000000E+01,      /* K =  3 */
(PID.TID 0000.0001)                -1.050000000000000E+02,      /* K =  4 */
(PID.TID 0000.0001)                -1.350000000000000E+02,      /* K =  5 */
(PID.TID 0000.0001)                -1.650000000000000E+02,      /* K =  6 */
(PID.TID 0000.0001)                -1.950000000000000E+02,      /* K =  7 */
(PID.TID 0000.0001)                -2.250000000000000E+02,      /* K =  8 */
(PID.TID 0000.0001)                -2.550000000000000E+02,      /* K =  9 */
(PID.TID 0000.0001)                -2.850000000000000E+02,      /* K = 10 */
(PID.TID 0000.0001)                -3.150000000000000E+02,      /* K = 11 */
(PID.TID 0000.0001)                -3.450000000000000E+02,      /* K = 12 */
(PID.TID 0000.0001)                -3.750000000000000E+02,      /* K = 13 */
(PID.TID 0000.0001)                -4.050000000000000E+02,      /* K = 14 */
(PID.TID 0000.0001)                -4.350000000000000E+02,      /* K = 15 */
(PID.TID 0000.0001)                -4.650000000000000E+02,      /* K = 16 */
(PID.TID 0000.0001)                -4.950000000000000E+02,      /* K = 17 */
(PID.TID 0000.0001)                -5.250000000000000E+02,      /* K = 18 */
(PID.TID 0000.0001)                -5.550000000000000E+02,      /* K = 19 */
(PID.TID 0000.0001)                -5.850000000000000E+02,      /* K = 20 */
(PID.TID 0000.0001)                -6.150000000000000E+02,      /* K = 21 */
(PID.TID 0000.0001)                -6.450000000000000E+02,      /* K = 22 */
(PID.TID 0000.0001)                -6.750000000000000E+02,      /* K = 23 */
(PID.TID 0000.0001)                -7.050000000000000E+02,      /* K = 24 */
(PID.TID 0000.0001)                -7.350000000000000E+02,      /* K = 25 */
(PID.TID 0000.0001)                -7.650000000000000E+02,      /* K = 26 */
(PID.TID 0000.0001)                -7.950000000000000E+02,      /* K = 27 */
(PID.TID 0000.0001)                -8.250000000000000E+02,      /* K = 28 */
(PID.TID 0000.0001)                -8.550000000000000E+02,      /* K = 29 */
(PID.TID 0000.0001)                -8.850000000000000E+02       /* K = 30 */
(PID.TID 0000.0001)     ;
(PID.TID 0000.0001) rF =   /* W-Interf. R coordinate (  units of r ) */
(PID.TID 0000.0001)                 0.000000000000000E+00,      /* K =  1 */
(PID.TID 0000.0001)                -3.000000000000000E+01,      /* K =  2 */
(PID.TID 0000.0001)                -6.000000000000000E+01,      /* K =  3 */
(PID.TID 0000.0001)                -9.000000000000000E+01,      /* K =  4 */
(PID.TID 0000.0001)                -1.200000000000000E+02,      /* K =  5 */
(PID.TID 0000.0001)                -1.500000000000000E+02,      /* K =  6 */
(PID.TID 0000.0001)                -1.800000000000000E+02,      /* K =  7 */
(PID.TID 0000.0001)                -2.100000000000000E+02,      /* K =  8 */
(PID.TID 0000.0001)                -2.400000000000000E+02,      /* K =  9 */
(PID.TID 0000.0001)                -2.700000000000000E+02,      /* K = 10 */
(PID.TID 0000.0001)                -3.000000000000000E+02,      /* K = 11 */
(PID.TID 0000.0001)                -3.300000000000000E+02,      /* K = 12 */
(PID.TID 0000.0001)                -3.600000000000000E+02,      /* K = 13 */
(PID.TID 0000.0001)                -3.900000000000000E+02,      /* K = 14 */
(PID.TID 0000.0001)                -4.200000000000000E+02,      /* K = 15 */
(PID.TID 0000.0001)                -4.500000000000000E+02,      /* K = 16 */
(PID.TID 0000.0001)                -4.800000000000000E+02,      /* K = 17 */
(PID.TID 0000.0001)                -5.100000000000000E+02,      /* K = 18 */
(PID.TID 0000.0001)                -5.400000000000000E+02,      /* K = 19 */
(PID.TID 0000.0001)                -5.700000000000000E+02,      /* K = 20 */
(PID.TID 0000.0001)                -6.000000000000000E+02,      /* K = 21 */
(PID.TID 0000.0001)                -6.300000000000000E+02,      /* K = 22 */
(PID.TID 0000.0001)                -6.600000000000000E+02,      /* K = 23 */
(PID.TID 0000.0001)                -6.900000000000000E+02,      /* K = 24 */
(PID.TID 0000.0001)                -7.200000000000000E+02,      /* K = 25 */
(PID.TID 0000.0001)                -7.500000000000000E+02,      /* K = 26 */
(PID.TID 0000.0001)                -7.800000000000000E+02,      /* K = 27 */
(PID.TID 0000.0001)                -8.100000000000000E+02,      /* K = 28 */
(PID.TID 0000.0001)                -8.400000000000000E+02,      /* K = 29 */
(PID.TID 0000.0001)                -8.700000000000000E+02,      /* K = 30 */
(PID.TID 0000.0001)                -9.000000000000000E+02       /* K = 31 */
(PID.TID 0000.0001)     ;
(PID.TID 0000.0001) deepFacC = /* deep-model grid factor @ cell-Center (-) */
(PID.TID 0000.0001)    30 @  1.000000000000000E+00              /* K =  1: 30 */
(PID.TID 0000.0001)     ;
(PID.TID 0000.0001) deepFacF = /* deep-model grid factor @ W-Interface (-) */
(PID.TID 0000.0001)    31 @  1.000000000000000E+00              /* K =  1: 31 */
(PID.TID 0000.0001)     ;
(PID.TID 0000.0001) rotateGrid = /* use rotated grid ( True/False ) */
(PID.TID 0000.0001)                   F
(PID.TID 0000.0001)     ;
(PID.TID 0000.0001) phiEuler = /* Euler angle, rotation about original z-coordinate [rad] */
(PID.TID 0000.0001)                 0.000000000000000E+00
(PID.TID 0000.0001)     ;
(PID.TID 0000.0001) thetaEuler = /* Euler angle, rotation about new x-coordinate [rad] */
(PID.TID 0000.0001)                 0.000000000000000E+00
(PID.TID 0000.0001)     ;
(PID.TID 0000.0001) psiEuler = /* Euler angle, rotation about new z-coordinate [rad] */
(PID.TID 0000.0001)                 0.000000000000000E+00
(PID.TID 0000.0001)     ;
(PID.TID 0000.0001) dxF =  /* dxF(:,1,:,1) ( units: m ) */
(PID.TID 0000.0001)    50 @  5.820391490558872E+03              /* I =  1: 50 */
(PID.TID 0000.0001)     ;
(PID.TID 0000.0001) dxF =  /* dxF(1,:,1,:) ( units: m ) */
(PID.TID 0000.0001)                 5.820391490558872E+03,      /* J =  1 */
(PID.TID 0000.0001)                 5.877701765291692E+03,      /* J =  2 */
(PID.TID 0000.0001)                 5.934994135525598E+03,      /* J =  3 */
(PID.TID 0000.0001)      . . .
(PID.TID 0000.0001)                 7.076813247621209E+03,      /* J = 23 */
(PID.TID 0000.0001)                 7.133689397375063E+03,      /* J = 24 */
(PID.TID 0000.0001)                 7.190543816673855E+03,      /* J = 25 */
(PID.TID 0000.0001)                 7.247376332329164E+03,      /* J = 26 */
(PID.TID 0000.0001)                 7.304186771219292E+03,      /* J = 27 */
(PID.TID 0000.0001)                 7.360974960289787E+03,      /* J = 28 */
(PID.TID 0000.0001)      . . .
(PID.TID 0000.0001)                 8.491800393599013E+03,      /* J = 48 */
(PID.TID 0000.0001)                 8.548081485571185E+03,      /* J = 49 */
(PID.TID 0000.0001)                 8.604336538604706E+03,      /* J = 50 */
(PID.TID 0000.0001)                 8.660565381336924E+03,      /* J = 51 */
(PID.TID 0000.0001)                 8.716767842485036E+03,      /* J = 52 */
(PID.TID 0000.0001)                 8.772943750846600E+03,      /* J = 53 */
(PID.TID 0000.0001)      . . .
(PID.TID 0000.0001)                 9.890622914885218E+03,      /* J = 73 */
(PID.TID 0000.0001)                 9.946201814818334E+03,      /* J = 74 */
(PID.TID 0000.0001)                 1.000175041689580E+04,      /* J = 75 */
(PID.TID 0000.0001)                 1.005726855190695E+04,      /* J = 76 */
(PID.TID 0000.0001)                 1.011275605073392E+04,      /* J = 77 */
(PID.TID 0000.0001)                 1.016821274435215E+04,      /* J = 78 */
(PID.TID 0000.0001)      . . .
(PID.TID 0000.0001)                 1.127061807330669E+04,      /* J = 98 */
(PID.TID 0000.0001)                 1.132538898360582E+04,      /* J = 99 */
(PID.TID 0000.0001)                 1.138012539480601E+04       /* J =100 */
(PID.TID 0000.0001)     ;
(PID.TID 0000.0001) dyF =  /* dyF(:,1,:,1) ( units: m ) */
(PID.TID 0000.0001)    50 @  1.111774733520388E+04              /* I =  1: 50 */
(PID.TID 0000.0001)     ;
(PID.TID 0000.0001) dyF =  /* dyF(1,:,1,:) ( units: m ) */
(PID.TID 0000.0001)   100 @  1.111774733520388E+04              /* J =  1:100 */
(PID.TID 0000.0001)     ;
(PID.TID 0000.0001) dxG =  /* dxG(:,1,:,1) ( units: m ) */
(PID.TID 0000.0001)    50 @  5.791729693558576E+03              /* I =  1: 50 */
(PID.TID 0000.0001)     ;
(PID.TID 0000.0001) dxG =  /* dxG(1,:,1,:) ( units: m ) */
(PID.TID 0000.0001)                 5.791729693558576E+03,      /* J =  1 */
(PID.TID 0000.0001)                 5.849048855077854E+03,      /* J =  2 */
(PID.TID 0000.0001)                 5.906350199379949E+03,      /* J =  3 */
(PID.TID 0000.0001)      . . .
(PID.TID 0000.0001)                 7.048367077963129E+03,      /* J = 23 */
(PID.TID 0000.0001)                 7.105254027978149E+03,      /* J = 24 */
(PID.TID 0000.0001)                 7.162119334157175E+03,      /* J = 25 */
(PID.TID 0000.0001)                 7.218962823278620E+03,      /* J = 26 */
(PID.TID 0000.0001)                 7.275784322187360E+03,      /* J = 27 */
(PID.TID 0000.0001)                 7.332583657795253E+03,      /* J = 28 */
(PID.TID 0000.0001)      . . .
(PID.TID 0000.0001)                 8.463650136583461E+03,      /* J = 48 */
(PID.TID 0000.0001)                 8.519944183739159E+03,      /* J = 49 */
(PID.TID 0000.0001)                 8.576212277667308E+03,      /* J = 50 */
(PID.TID 0000.0001)                 8.632454246965530E+03,      /* J = 51 */
(PID.TID 0000.0001)                 8.688669920311038E+03,      /* J = 52 */
(PID.TID 0000.0001)                 8.744859126461139E+03,      /* J = 53 */
(PID.TID 0000.0001)      . . .
(PID.TID 0000.0001)                 9.862822156126382E+03,      /* J = 73 */
(PID.TID 0000.0001)                 9.918416141504455E+03,      /* J = 74 */
(PID.TID 0000.0001)                 9.973979913666863E+03,      /* J = 75 */
(PID.TID 0000.0001)                 1.002951330335672E+04,      /* J = 76 */
(PID.TID 0000.0001)                 1.008501614140969E+04,      /* J = 77 */
(PID.TID 0000.0001)                 1.014048825875450E+04,      /* J = 78 */
(PID.TID 0000.0001)      . . .
(PID.TID 0000.0001)                 1.124321973312895E+04,      /* J = 98 */
(PID.TID 0000.0001)                 1.129800783041847E+04,      /* J = 99 */
(PID.TID 0000.0001)                 1.135276151201679E+04       /* J =100 */
(PID.TID 0000.0001)     ;
(PID.TID 0000.0001) dyG =  /* dyG(:,1,:,1) ( units: m ) */
(PID.TID 0000.0001)    50 @  1.111774733520388E+04              /* I =  1: 50 */
(PID.TID 0000.0001)     ;
(PID.TID 0000.0001) dyG =  /* dyG(1,:,1,:) ( units: m ) */
(PID.TID 0000.0001)   100 @  1.111774733520388E+04              /* J =  1:100 */
(PID.TID 0000.0001)     ;
(PID.TID 0000.0001) dxC =  /* dxC(:,1,:,1) ( units: m ) */
(PID.TID 0000.0001)    50 @  5.820391490558872E+03              /* I =  1: 50 */
(PID.TID 0000.0001)     ;
(PID.TID 0000.0001) dxC =  /* dxC(1,:,1,:) ( units: m ) */
(PID.TID 0000.0001)                 5.820391490558872E+03,      /* J =  1 */
(PID.TID 0000.0001)                 5.877701765291692E+03,      /* J =  2 */
(PID.TID 0000.0001)                 5.934994135525598E+03,      /* J =  3 */
(PID.TID 0000.0001)      . . .
(PID.TID 0000.0001)                 7.076813247621209E+03,      /* J = 23 */
(PID.TID 0000.0001)                 7.133689397375063E+03,      /* J = 24 */
(PID.TID 0000.0001)                 7.190543816673855E+03,      /* J = 25 */
(PID.TID 0000.0001)                 7.247376332329164E+03,      /* J = 26 */
(PID.TID 0000.0001)                 7.304186771219292E+03,      /* J = 27 */
(PID.TID 0000.0001)                 7.360974960289787E+03,      /* J = 28 */
(PID.TID 0000.0001)      . . .
(PID.TID 0000.0001)                 8.491800393599013E+03,      /* J = 48 */
(PID.TID 0000.0001)                 8.548081485571185E+03,      /* J = 49 */
(PID.TID 0000.0001)                 8.604336538604706E+03,      /* J = 50 */
(PID.TID 0000.0001)                 8.660565381336924E+03,      /* J = 51 */
(PID.TID 0000.0001)                 8.716767842485036E+03,      /* J = 52 */
(PID.TID 0000.0001)                 8.772943750846600E+03,      /* J = 53 */
(PID.TID 0000.0001)      . . .
(PID.TID 0000.0001)                 9.890622914885218E+03,      /* J = 73 */
(PID.TID 0000.0001)                 9.946201814818334E+03,      /* J = 74 */
(PID.TID 0000.0001)                 1.000175041689580E+04,      /* J = 75 */
(PID.TID 0000.0001)                 1.005726855190695E+04,      /* J = 76 */
(PID.TID 0000.0001)                 1.011275605073392E+04,      /* J = 77 */
(PID.TID 0000.0001)                 1.016821274435215E+04,      /* J = 78 */
(PID.TID 0000.0001)      . . .
(PID.TID 0000.0001)                 1.127061807330669E+04,      /* J = 98 */
(PID.TID 0000.0001)                 1.132538898360582E+04,      /* J = 99 */
(PID.TID 0000.0001)                 1.138012539480601E+04       /* J =100 */
(PID.TID 0000.0001)     ;
(PID.TID 0000.0001) dyC =  /* dyC(:,1,:,1) ( units: m ) */
(PID.TID 0000.0001)    50 @  1.111774733520388E+04              /* I =  1: 50 */
(PID.TID 0000.0001)     ;
(PID.TID 0000.0001) dyC =  /* dyC(1,:,1,:) ( units: m ) */
(PID.TID 0000.0001)   100 @  1.111774733520388E+04              /* J =  1:100 */
(PID.TID 0000.0001)     ;
(PID.TID 0000.0001) dxV =  /* dxV(:,1,:,1) ( units: m ) */
(PID.TID 0000.0001)    50 @  5.791729693558576E+03              /* I =  1: 50 */
(PID.TID 0000.0001)     ;
(PID.TID 0000.0001) dxV =  /* dxV(1,:,1,:) ( units: m ) */
(PID.TID 0000.0001)                 5.791729693558576E+03,      /* J =  1 */
(PID.TID 0000.0001)                 5.849048855077854E+03,      /* J =  2 */
(PID.TID 0000.0001)                 5.906350199379949E+03,      /* J =  3 */
(PID.TID 0000.0001)      . . .
(PID.TID 0000.0001)                 7.048367077963129E+03,      /* J = 23 */
(PID.TID 0000.0001)                 7.105254027978149E+03,      /* J = 24 */
(PID.TID 0000.0001)                 7.162119334157175E+03,      /* J = 25 */
(PID.TID 0000.0001)                 7.218962823278620E+03,      /* J = 26 */
(PID.TID 0000.0001)                 7.275784322187360E+03,      /* J = 27 */
(PID.TID 0000.0001)                 7.332583657795253E+03,      /* J = 28 */
(PID.TID 0000.0001)      . . .
(PID.TID 0000.0001)                 8.463650136583461E+03,      /* J = 48 */
(PID.TID 0000.0001)                 8.519944183739159E+03,      /* J = 49 */
(PID.TID 0000.0001)                 8.576212277667308E+03,      /* J = 50 */
(PID.TID 0000.0001)                 8.632454246965530E+03,      /* J = 51 */
(PID.TID 0000.0001)                 8.688669920311038E+03,      /* J = 52 */
(PID.TID 0000.0001)                 8.744859126461139E+03,      /* J = 53 */
(PID.TID 0000.0001)      . . .
(PID.TID 0000.0001)                 9.862822156126382E+03,      /* J = 73 */
(PID.TID 0000.0001)                 9.918416141504455E+03,      /* J = 74 */
(PID.TID 0000.0001)                 9.973979913666863E+03,      /* J = 75 */
(PID.TID 0000.0001)                 1.002951330335672E+04,      /* J = 76 */
(PID.TID 0000.0001)                 1.008501614140969E+04,      /* J = 77 */
(PID.TID 0000.0001)                 1.014048825875450E+04,      /* J = 78 */
(PID.TID 0000.0001)      . . .
(PID.TID 0000.0001)                 1.124321973312895E+04,      /* J = 98 */
(PID.TID 0000.0001)                 1.129800783041847E+04,      /* J = 99 */
(PID.TID 0000.0001)                 1.135276151201679E+04       /* J =100 */
(PID.TID 0000.0001)     ;
(PID.TID 0000.0001) dyU =  /* dyU(:,1,:,1) ( units: m ) */
(PID.TID 0000.0001)    50 @  1.111774733520388E+04              /* I =  1: 50 */
(PID.TID 0000.0001)     ;
(PID.TID 0000.0001) dyU =  /* dyU(1,:,1,:) ( units: m ) */
(PID.TID 0000.0001)   100 @  1.111774733520388E+04              /* J =  1:100 */
(PID.TID 0000.0001)     ;
(PID.TID 0000.0001) rA  =  /* rA (:,1,:,1) ( units: m^2 ) */
(PID.TID 0000.0001)    50 @  6.470963377080289E+07              /* I =  1: 50 */
(PID.TID 0000.0001)     ;
(PID.TID 0000.0001) rA  =  /* rA (1,:,1,:) ( units: m^2 ) */
(PID.TID 0000.0001)                 6.470963377080289E+07,      /* J =  1 */
(PID.TID 0000.0001)                 6.534679484410104E+07,      /* J =  2 */
(PID.TID 0000.0001)                 6.598375685977945E+07,      /* J =  3 */
(PID.TID 0000.0001)      . . .
(PID.TID 0000.0001)                 7.867821163932665E+07,      /* J = 23 */
(PID.TID 0000.0001)                 7.931054622142966E+07,      /* J = 24 */
(PID.TID 0000.0001)                 7.994263920984067E+07,      /* J = 25 */
(PID.TID 0000.0001)                 8.057448867913349E+07,      /* J = 26 */
(PID.TID 0000.0001)                 8.120609270456599E+07,      /* J = 27 */
(PID.TID 0000.0001)                 8.183744936212724E+07,      /* J = 28 */
(PID.TID 0000.0001)      . . .
(PID.TID 0000.0001)                 9.440967921416211E+07,      /* J = 48 */
(PID.TID 0000.0001)                 9.503539809503193E+07,      /* J = 49 */
(PID.TID 0000.0001)                 9.566082748163140E+07,      /* J = 50 */
(PID.TID 0000.0001)                 9.628596546870193E+07,      /* J = 51 */
(PID.TID 0000.0001)                 9.691081015209354E+07,      /* J = 52 */
(PID.TID 0000.0001)                 9.753535962826957E+07,      /* J = 53 */
(PID.TID 0000.0001)      . . .
(PID.TID 0000.0001)                 1.099614325987181E+08,      /* J = 73 */
(PID.TID 0000.0001)                 1.105793446869293E+08,      /* J = 74 */
(PID.TID 0000.0001)                 1.111969199312560E+08,      /* J = 75 */
(PID.TID 0000.0001)                 1.118141564504991E+08,      /* J = 76 */
(PID.TID 0000.0001)                 1.124310523644033E+08,      /* J = 77 */
(PID.TID 0000.0001)                 1.130476057938687E+08,      /* J = 78 */
(PID.TID 0000.0001)      . . .
(PID.TID 0000.0001)                 1.253038681465364E+08,      /* J = 98 */
(PID.TID 0000.0001)                 1.259127972112936E+08,      /* J = 99 */
(PID.TID 0000.0001)                 1.265213427237870E+08       /* J =100 */
(PID.TID 0000.0001)     ;
(PID.TID 0000.0001) rAw =  /* rAw(:,1,:,1) ( units: m^2 ) */
(PID.TID 0000.0001)    50 @  6.470963377080289E+07              /* I =  1: 50 */
(PID.TID 0000.0001)     ;
(PID.TID 0000.0001) rAw =  /* rAw(1,:,1,:) ( units: m^2 ) */
(PID.TID 0000.0001)                 6.470963377080289E+07,      /* J =  1 */
(PID.TID 0000.0001)                 6.534679484410104E+07,      /* J =  2 */
(PID.TID 0000.0001)                 6.598375685977945E+07,      /* J =  3 */
(PID.TID 0000.0001)      . . .
(PID.TID 0000.0001)                 7.867821163932665E+07,      /* J = 23 */
(PID.TID 0000.0001)                 7.931054622142966E+07,      /* J = 24 */
(PID.TID 0000.0001)                 7.994263920984067E+07,      /* J = 25 */
(PID.TID 0000.0001)                 8.057448867913349E+07,      /* J = 26 */
(PID.TID 0000.0001)                 8.120609270456599E+07,      /* J = 27 */
(PID.TID 0000.0001)                 8.183744936212724E+07,      /* J = 28 */
(PID.TID 0000.0001)      . . .
(PID.TID 0000.0001)                 9.440967921416211E+07,      /* J = 48 */
(PID.TID 0000.0001)                 9.503539809503193E+07,      /* J = 49 */
(PID.TID 0000.0001)                 9.566082748163140E+07,      /* J = 50 */
(PID.TID 0000.0001)                 9.628596546870193E+07,      /* J = 51 */
(PID.TID 0000.0001)                 9.691081015209354E+07,      /* J = 52 */
(PID.TID 0000.0001)                 9.753535962826957E+07,      /* J = 53 */
(PID.TID 0000.0001)      . . .
(PID.TID 0000.0001)                 1.099614325987181E+08,      /* J = 73 */
(PID.TID 0000.0001)                 1.105793446869293E+08,      /* J = 74 */
(PID.TID 0000.0001)                 1.111969199312560E+08,      /* J = 75 */
(PID.TID 0000.0001)                 1.118141564504991E+08,      /* J = 76 */
(PID.TID 0000.0001)                 1.124310523644033E+08,      /* J = 77 */
(PID.TID 0000.0001)                 1.130476057938687E+08,      /* J = 78 */
(PID.TID 0000.0001)      . . .
(PID.TID 0000.0001)                 1.253038681465364E+08,      /* J = 98 */
(PID.TID 0000.0001)                 1.259127972112936E+08,      /* J = 99 */
(PID.TID 0000.0001)                 1.265213427237870E+08       /* J =100 */
(PID.TID 0000.0001)     ;
(PID.TID 0000.0001) rAs =  /* rAs(:,1,:,1) ( units: m^2 ) */
(PID.TID 0000.0001)    50 @  6.439097919401864E+07              /* I =  1: 50 */
(PID.TID 0000.0001)     ;
(PID.TID 0000.0001) rAs =  /* rAs(1,:,1,:) ( units: m^2 ) */
(PID.TID 0000.0001)                 6.439097919401864E+07,      /* J =  1 */
(PID.TID 0000.0001)                 6.502823906837179E+07,      /* J =  2 */
(PID.TID 0000.0001)                 6.566530085543716E+07,      /* J =  3 */
(PID.TID 0000.0001)      . . .
(PID.TID 0000.0001)                 7.836195435256335E+07,      /* J = 23 */
(PID.TID 0000.0001)                 7.899440900921808E+07,      /* J = 24 */
(PID.TID 0000.0001)                 7.962662303520055E+07,      /* J = 25 */
(PID.TID 0000.0001)                 8.025859450470714E+07,      /* J = 26 */
(PID.TID 0000.0001)                 8.089032149259475E+07,      /* J = 27 */
(PID.TID 0000.0001)                 8.152180207452223E+07,      /* J = 28 */
(PID.TID 0000.0001)      . . .
(PID.TID 0000.0001)                 9.409671180898291E+07,      /* J = 48 */
(PID.TID 0000.0001)                 9.472257472228888E+07,      /* J = 49 */
(PID.TID 0000.0001)                 9.534814909420149E+07,      /* J = 50 */
(PID.TID 0000.0001)                 9.597343301913190E+07,      /* J = 51 */
(PID.TID 0000.0001)                 9.659842459236403E+07,      /* J = 52 */
(PID.TID 0000.0001)                 9.722312190998378E+07,      /* J = 53 */
(PID.TID 0000.0001)      . . .
(PID.TID 0000.0001)                 1.096523508263446E+08,      /* J = 73 */
(PID.TID 0000.0001)                 1.102704306306916E+08,      /* J = 74 */
(PID.TID 0000.0001)                 1.108881745321664E+08,      /* J = 75 */
(PID.TID 0000.0001)                 1.115055806490511E+08,      /* J = 76 */
(PID.TID 0000.0001)                 1.121226471005947E+08,      /* J = 77 */
(PID.TID 0000.0001)                 1.127393720071080E+08,      /* J = 78 */
(PID.TID 0000.0001)      . . .
(PID.TID 0000.0001)                 1.249992603617116E+08,      /* J = 98 */
(PID.TID 0000.0001)                 1.256083805070198E+08,      /* J = 99 */
(PID.TID 0000.0001)                 1.262171180274426E+08       /* J =100 */
(PID.TID 0000.0001)     ;
(PID.TID 0000.0001) globalArea = /* Integrated horizontal Area (m^2) */
(PID.TID 0000.0001)                 4.665024516720074E+11
(PID.TID 0000.0001)     ;
(PID.TID 0000.0001) // =======================================================
(PID.TID 0000.0001) // End of Model config. summary
(PID.TID 0000.0001) // =======================================================
(PID.TID 0000.0001) 
(PID.TID 0000.0001) == Packages configuration : Check & print summary ==
(PID.TID 0000.0001) 
(PID.TID 0000.0001) SHELFICE_CHECK: #define ALLOW_SHELFICE
(PID.TID 0000.0001) 
(PID.TID 0000.0001) SHELFICE_CHECK: start of SHELFICE config. summary
(PID.TID 0000.0001) SHELFICEisOn = /* package is turned on */
(PID.TID 0000.0001)                   T
(PID.TID 0000.0001)     ;
(PID.TID 0000.0001) useISOMIPTD = /* use simple isomip thermodynamics */
(PID.TID 0000.0001)                   F
(PID.TID 0000.0001)     ;
(PID.TID 0000.0001) SHELFICEconserve = /* use a conservative form of boundary conditions */
(PID.TID 0000.0001)                   T
(PID.TID 0000.0001)     ;
(PID.TID 0000.0001) SHELFICEboundaryLayer = /* use simple boundary layer scheme to suppress noise */
(PID.TID 0000.0001)                   F
(PID.TID 0000.0001)     ;
(PID.TID 0000.0001) SHELFICEadvDiffHeatFlux = /* use adv.-diff. instead of just diff. heat flux into the ice shelf */
(PID.TID 0000.0001)                   T
(PID.TID 0000.0001)     ;
(PID.TID 0000.0001) SHELFICEMassStepping = /* step forward ice shelf mass/thickness */
(PID.TID 0000.0001)                   F
(PID.TID 0000.0001)     ;
(PID.TID 0000.0001) no_slip_shelfice = /* use no slip boundary conditions */
(PID.TID 0000.0001)                   F
(PID.TID 0000.0001)     ;
(PID.TID 0000.0001) SHELFICEdragLinear    = /* linear drag coefficient */
(PID.TID 0000.0001)                 0.000000000000000E+00
(PID.TID 0000.0001)     ;
(PID.TID 0000.0001) SHELFICEdragQuadratic = /* quadratic drag coefficient */
(PID.TID 0000.0001)                 2.500000000000000E-03
(PID.TID 0000.0001)     ;
(PID.TID 0000.0001) SHELFICEselectDragQuadr = /* select quadratic drag option */
(PID.TID 0000.0001)                       0
(PID.TID 0000.0001)     ;
(PID.TID 0000.0001) SHELFICElatentHeat      = /* latent heat of ice */
(PID.TID 0000.0001)                 3.340000000000000E+05
(PID.TID 0000.0001)     ;
(PID.TID 0000.0001) SHELFICEheatCapacity_Cp = /* heat capacity of ice shelf */
(PID.TID 0000.0001)                 2.000000000000000E+03
(PID.TID 0000.0001)     ;
(PID.TID 0000.0001) rhoShelfice   = /* density of ice shelf */
(PID.TID 0000.0001)                 9.170000000000000E+02
(PID.TID 0000.0001)     ;
(PID.TID 0000.0001) SHELFICEkappa = /* thermal conductivity of ice shelf */
(PID.TID 0000.0001)                 0.000000000000000E+00
(PID.TID 0000.0001)     ;
(PID.TID 0000.0001) SHELFICEthetaSurface = /* surface temperature above i.s. */
(PID.TID 0000.0001)                -2.000000000000000E+01
(PID.TID 0000.0001)     ;
(PID.TID 0000.0001) SHELFICEheatTransCoeff = /* heat transfer coefficient */
(PID.TID 0000.0001)                 1.000000000000000E-04
(PID.TID 0000.0001)     ;
(PID.TID 0000.0001) SHELFICEsaltTransCoeff = /* salt transfer coefficient */
(PID.TID 0000.0001)                 5.050000000000000E-07
(PID.TID 0000.0001)     ;
(PID.TID 0000.0001) SHELFICEuseGammaFrict = /* use velocity dependent exchange coefficients */
(PID.TID 0000.0001)                   F
(PID.TID 0000.0001)     ;
(PID.TID 0000.0001) SHELFICEremeshFrequency = /* Frequency (in s) of Remeshing */
(PID.TID 0000.0001)                 0.000000000000000E+00
(PID.TID 0000.0001)     ;
(PID.TID 0000.0001) SHELFICEloadAnomalyFile = /* file name of loaded loadAnomaly field */
(PID.TID 0000.0001)               'phi0surf.exp1.jmd95z'
(PID.TID 0000.0001)     ;
(PID.TID 0000.0001) SHELFICEmassFile = /* file name of loaded mass field */
(PID.TID 0000.0001)               ''
(PID.TID 0000.0001)     ;
(PID.TID 0000.0001) SHELFICEtopoFile = /* file name of loaded under-ice topography */
(PID.TID 0000.0001)               'icetopo.exp1'
(PID.TID 0000.0001)     ;
(PID.TID 0000.0001) SHELFICEMassDynTendFile = /* file name of loaded dynamic mass tendency field */
(PID.TID 0000.0001)               ''
(PID.TID 0000.0001)     ;
(PID.TID 0000.0001) SHELFICEwriteState  = /* do simple standard output */
(PID.TID 0000.0001)                   T
(PID.TID 0000.0001)     ;
(PID.TID 0000.0001) SHELFICE_dump_mdsio = /* use mdsio for snapshots */
(PID.TID 0000.0001)                   T
(PID.TID 0000.0001)     ;
(PID.TID 0000.0001) SHELFICE_tave_mdsio = /* use mdsio for time averages */
(PID.TID 0000.0001)                   T
(PID.TID 0000.0001)     ;
(PID.TID 0000.0001) SHELFICE_dump_mnc   = /* use netcdf for snapshots */
(PID.TID 0000.0001)                   F
(PID.TID 0000.0001)     ;
(PID.TID 0000.0001) SHELFICE_tave_mnc   = /* use netcdf for time averages */
(PID.TID 0000.0001)                   F
(PID.TID 0000.0001)     ;
(PID.TID 0000.0001) SHELFICE_dumpFreq = /* analoguous to dumpFreq */
(PID.TID 0000.0001)                 0.000000000000000E+00
(PID.TID 0000.0001)     ;
(PID.TID 0000.0001) SHELFICE_taveFreq = /* analoguous to taveFreq */
(PID.TID 0000.0001)                 0.000000000000000E+00
(PID.TID 0000.0001)     ;
(PID.TID 0000.0001) SHELFICE_CHECK: end of SHELFICE config. summary
(PID.TID 0000.0001) GAD_CHECK: #define ALLOW_GENERIC_ADVDIFF
(PID.TID 0000.0001) // =======================================================
(PID.TID 0000.0001) // Check Model config. (CONFIG_CHECK):
(PID.TID 0000.0001) // CONFIG_CHECK : Normal End
(PID.TID 0000.0001) // =======================================================
(PID.TID 0000.0001) 
(PID.TID 0000.0001) Start initial hydrostatic pressure computation
(PID.TID 0000.0001) Pressure is predetermined for buoyancyRelation OCEANIC
(PID.TID 0000.0001) 
(PID.TID 0000.0001) // =======================================================
(PID.TID 0000.0001) // Model current state
(PID.TID 0000.0001) // =======================================================
(PID.TID 0000.0001) 
(PID.TID 0000.0001) // =======================================================
(PID.TID 0000.0001) // Begin MONITOR dynamic field statistics
(PID.TID 0000.0001) // =======================================================
(PID.TID 0000.0001) %MON time_tsnumber                =                     0
(PID.TID 0000.0001) %MON time_secondsf                =   0.0000000000000E+00
(PID.TID 0000.0001) %MON dynstat_eta_max              =   0.0000000000000E+00
(PID.TID 0000.0001) %MON dynstat_eta_min              =   0.0000000000000E+00
(PID.TID 0000.0001) %MON dynstat_eta_mean             =   0.0000000000000E+00
(PID.TID 0000.0001) %MON dynstat_eta_sd               =   0.0000000000000E+00
(PID.TID 0000.0001) %MON dynstat_eta_del2             =   0.0000000000000E+00
(PID.TID 0000.0001) %MON dynstat_uvel_max             =   0.0000000000000E+00
(PID.TID 0000.0001) %MON dynstat_uvel_min             =   0.0000000000000E+00
(PID.TID 0000.0001) %MON dynstat_uvel_mean            =   0.0000000000000E+00
(PID.TID 0000.0001) %MON dynstat_uvel_sd              =   0.0000000000000E+00
(PID.TID 0000.0001) %MON dynstat_uvel_del2            =   0.0000000000000E+00
(PID.TID 0000.0001) %MON dynstat_vvel_max             =   0.0000000000000E+00
(PID.TID 0000.0001) %MON dynstat_vvel_min             =   0.0000000000000E+00
(PID.TID 0000.0001) %MON dynstat_vvel_mean            =   0.0000000000000E+00
(PID.TID 0000.0001) %MON dynstat_vvel_sd              =   0.0000000000000E+00
(PID.TID 0000.0001) %MON dynstat_vvel_del2            =   0.0000000000000E+00
(PID.TID 0000.0001) %MON dynstat_wvel_max             =  -0.0000000000000E+00
(PID.TID 0000.0001) %MON dynstat_wvel_min             =  -0.0000000000000E+00
(PID.TID 0000.0001) %MON dynstat_wvel_mean            =   0.0000000000000E+00
(PID.TID 0000.0001) %MON dynstat_wvel_sd              =   0.0000000000000E+00
(PID.TID 0000.0001) %MON dynstat_wvel_del2            =   0.0000000000000E+00
(PID.TID 0000.0001) %MON dynstat_theta_max            =  -1.9000000000000E+00
(PID.TID 0000.0001) %MON dynstat_theta_min            =  -1.9000000000000E+00
(PID.TID 0000.0001) %MON dynstat_theta_mean           =  -1.9000000000001E+00
(PID.TID 0000.0001) %MON dynstat_theta_sd             =   5.8175686490360E-14
(PID.TID 0000.0001) %MON dynstat_theta_del2           =   0.0000000000000E+00
(PID.TID 0000.0001) %MON dynstat_salt_max             =   3.4400000000000E+01
(PID.TID 0000.0001) %MON dynstat_salt_min             =   3.4400000000000E+01
(PID.TID 0000.0001) %MON dynstat_salt_mean            =   3.4400000000001E+01
(PID.TID 0000.0001) %MON dynstat_salt_sd              =   5.9685589803848E-13
(PID.TID 0000.0001) %MON dynstat_salt_del2            =   0.0000000000000E+00
(PID.TID 0000.0001) %MON trAdv_CFL_u_max              =   0.0000000000000E+00
(PID.TID 0000.0001) %MON trAdv_CFL_v_max              =   0.0000000000000E+00
(PID.TID 0000.0001) %MON trAdv_CFL_w_max              =   0.0000000000000E+00
(PID.TID 0000.0001) %MON advcfl_uvel_max              =   0.0000000000000E+00
(PID.TID 0000.0001) %MON advcfl_vvel_max              =   0.0000000000000E+00
(PID.TID 0000.0001) %MON advcfl_wvel_max              =   0.0000000000000E+00
(PID.TID 0000.0001) %MON advcfl_W_hf_max              =   0.0000000000000E+00
(PID.TID 0000.0001) %MON pe_b_mean                    =   0.0000000000000E+00
(PID.TID 0000.0001) %MON ke_max                       =   0.0000000000000E+00
(PID.TID 0000.0001) %MON ke_mean                      =   0.0000000000000E+00
(PID.TID 0000.0001) %MON ke_vol                       =   2.9241705273105E+14
(PID.TID 0000.0001) %MON vort_r_min                   =   0.0000000000000E+00
(PID.TID 0000.0001) %MON vort_r_max                   =   0.0000000000000E+00
(PID.TID 0000.0001) %MON vort_a_mean                  =  -1.4007437277914E-04
(PID.TID 0000.0001) %MON vort_a_sd                    =   1.7682771475722E-06
(PID.TID 0000.0001) %MON vort_p_mean                  =  -1.5039772194954E-04
(PID.TID 0000.0001) %MON vort_p_sd                    =   8.7081213929730E-05
(PID.TID 0000.0001) %MON surfExpan_theta_mean         =   0.0000000000000E+00
(PID.TID 0000.0001) %MON surfExpan_salt_mean          =   0.0000000000000E+00
(PID.TID 0000.0001) // =======================================================
(PID.TID 0000.0001) // End MONITOR dynamic field statistics
(PID.TID 0000.0001) // =======================================================
(PID.TID 0000.0001) SOLVE_FOR_PRESSURE: putPmEinXvector =    F
(PID.TID 0000.0001) SOLVE_FOR_PRESSURE: zeroPsNH=    F , zeroMeanPnh=    F
(PID.TID 0000.0001) SOLVE_FOR_PRESSURE: oldFreeSurfTerm =    F
 cg2d: Sum(rhs),rhsMax =   2.04281036531029E-14  2.93733620583064E-13
(PID.TID 0000.0001)      cg2d_init_res =   1.98627929058536E+01
(PID.TID 0000.0001)      cg2d_iters(min,last) =      -1     213
(PID.TID 0000.0001)      cg2d_last_res =   8.51519638363648E-14
(PID.TID 0000.0001) // =======================================================
(PID.TID 0000.0001) // Begin MONITOR dynamic field statistics
(PID.TID 0000.0001) // =======================================================
(PID.TID 0000.0001) %MON time_tsnumber                =                     1
(PID.TID 0000.0001) %MON time_secondsf                =   1.8000000000000E+03
(PID.TID 0000.0001) %MON dynstat_eta_max              =   6.4489366259485E-14
(PID.TID 0000.0001) %MON dynstat_eta_min              =  -3.6172495628169E-14
(PID.TID 0000.0001) %MON dynstat_eta_mean             =   6.7399137752412E-31
(PID.TID 0000.0001) %MON dynstat_eta_sd               =   1.3932096145382E-14
(PID.TID 0000.0001) %MON dynstat_eta_del2             =   4.4441285693597E-16
(PID.TID 0000.0001) %MON dynstat_uvel_max             =   1.8202127888508E-14
(PID.TID 0000.0001) %MON dynstat_uvel_min             =  -1.0974052134043E-14
(PID.TID 0000.0001) %MON dynstat_uvel_mean            =   8.0982295754572E-17
(PID.TID 0000.0001) %MON dynstat_uvel_sd              =   2.5578230812468E-15
(PID.TID 0000.0001) %MON dynstat_uvel_del2            =   1.7874272229403E-17
(PID.TID 0000.0001) %MON dynstat_vvel_max             =   1.2102977817343E-14
(PID.TID 0000.0001) %MON dynstat_vvel_min             =  -1.5644893150655E-14
(PID.TID 0000.0001) %MON dynstat_vvel_mean            =  -8.6595007985510E-16
(PID.TID 0000.0001) %MON dynstat_vvel_sd              =   1.3541078193366E-15
(PID.TID 0000.0001) %MON dynstat_vvel_del2            =   2.7283604765974E-18
(PID.TID 0000.0001) %MON dynstat_wvel_max             =   4.3644681172138E-17
(PID.TID 0000.0001) %MON dynstat_wvel_min             =  -2.6054641419737E-17
(PID.TID 0000.0001) %MON dynstat_wvel_mean            =  -7.5552037884627E-19
(PID.TID 0000.0001) %MON dynstat_wvel_sd              =   3.9876744935767E-18
(PID.TID 0000.0001) %MON dynstat_wvel_del2            =   2.6636016016166E-20
(PID.TID 0000.0001) %MON dynstat_theta_max            =  -1.9000000000000E+00
(PID.TID 0000.0001) %MON dynstat_theta_min            =  -1.9000018610584E+00
(PID.TID 0000.0001) %MON dynstat_theta_mean           =  -1.9000000071227E+00
(PID.TID 0000.0001) %MON dynstat_theta_sd             =   7.5321155522405E-08
(PID.TID 0000.0001) %MON dynstat_theta_del2           =   1.7214577682802E-10
(PID.TID 0000.0001) %MON dynstat_salt_max             =   3.4400000000000E+01
(PID.TID 0000.0001) %MON dynstat_salt_min             =   3.4399999313241E+01
(PID.TID 0000.0001) %MON dynstat_salt_mean            =   3.4399999997372E+01
(PID.TID 0000.0001) %MON dynstat_salt_sd              =   2.7799350508239E-08
(PID.TID 0000.0001) %MON dynstat_salt_del2            =   6.3529300054570E-11
(PID.TID 0000.0001) %MON trAdv_CFL_u_max              =   0.0000000000000E+00
(PID.TID 0000.0001) %MON trAdv_CFL_v_max              =   0.0000000000000E+00
(PID.TID 0000.0001) %MON trAdv_CFL_w_max              =   0.0000000000000E+00
(PID.TID 0000.0001) %MON advcfl_uvel_max              =   5.3153683900459E-15
(PID.TID 0000.0001) %MON advcfl_vvel_max              =   2.5329598543770E-15
(PID.TID 0000.0001) %MON advcfl_wvel_max              =   2.6186808703283E-15
(PID.TID 0000.0001) %MON advcfl_W_hf_max              =   1.9543340299405E-14
(PID.TID 0000.0001) %MON pe_b_mean                    =  -5.0056638937828E-18
(PID.TID 0000.0001) %MON ke_max                       =   1.6879902920162E-28
(PID.TID 0000.0001) %MON ke_mean                      =   4.4842333696478E-30
(PID.TID 0000.0001) %MON ke_vol                       =   2.9241705273105E+14
(PID.TID 0000.0001) %MON vort_r_min                   =  -2.1928629128559E-18
(PID.TID 0000.0001) %MON vort_r_max                   =   2.5499497430862E-18
(PID.TID 0000.0001) %MON vort_a_mean                  =  -1.4007437277914E-04
(PID.TID 0000.0001) %MON vort_a_sd                    =   1.7682771475591E-06
(PID.TID 0000.0001) %MON vort_p_mean                  =  -1.5039772194954E-04
(PID.TID 0000.0001) %MON vort_p_sd                    =   8.7081213929731E-05
(PID.TID 0000.0001) %MON surfExpan_theta_mean         =  -1.3843270927311E-24
(PID.TID 0000.0001) %MON surfExpan_salt_mean          =  -5.1083939700243E-25
(PID.TID 0000.0001) // =======================================================
(PID.TID 0000.0001) // End MONITOR dynamic field statistics
(PID.TID 0000.0001) // =======================================================
 cg2d: Sum(rhs),rhsMax =   6.14994835859326E-15  1.33766609260750E-08
(PID.TID 0000.0001)      cg2d_init_res =   9.21698615753322E+00
(PID.TID 0000.0001)      cg2d_iters(min,last) =      -1     213
(PID.TID 0000.0001)      cg2d_last_res =   8.27784808961354E-14
(PID.TID 0000.0001) // =======================================================
(PID.TID 0000.0001) // Begin MONITOR dynamic field statistics
(PID.TID 0000.0001) // =======================================================
(PID.TID 0000.0001) %MON time_tsnumber                =                     2
(PID.TID 0000.0001) %MON time_secondsf                =   3.6000000000000E+03
(PID.TID 0000.0001) %MON dynstat_eta_max              =   3.3269415378637E-09
(PID.TID 0000.0001) %MON dynstat_eta_min              =  -1.1877274756338E-08
(PID.TID 0000.0001) %MON dynstat_eta_mean             =   2.0308367318354E-26
(PID.TID 0000.0001) %MON dynstat_eta_sd               =   9.6130708270546E-10
(PID.TID 0000.0001) %MON dynstat_eta_del2             =   1.3194078060206E-11
(PID.TID 0000.0001) %MON dynstat_uvel_max             =   9.4618198111247E-10
(PID.TID 0000.0001) %MON dynstat_uvel_min             =  -2.4160273542351E-09
(PID.TID 0000.0001) %MON dynstat_uvel_mean            =   4.7917698623415E-13
(PID.TID 0000.0001) %MON dynstat_uvel_sd              =   1.7709782110100E-10
(PID.TID 0000.0001) %MON dynstat_uvel_del2            =   6.4105685728061E-13
(PID.TID 0000.0001) %MON dynstat_vvel_max             =   1.4461374071349E-08
(PID.TID 0000.0001) %MON dynstat_vvel_min             =  -1.0375666248575E-08
(PID.TID 0000.0001) %MON dynstat_vvel_mean            =  -4.9303132725159E-11
(PID.TID 0000.0001) %MON dynstat_vvel_sd              =   4.8570441983461E-10
(PID.TID 0000.0001) %MON dynstat_vvel_del2            =   2.1606452327793E-12
(PID.TID 0000.0001) %MON dynstat_wvel_max             =   2.1882238346758E-11
(PID.TID 0000.0001) %MON dynstat_wvel_min             =  -1.6212796790182E-11
(PID.TID 0000.0001) %MON dynstat_wvel_mean            =  -2.3259499032306E-14
(PID.TID 0000.0001) %MON dynstat_wvel_sd              =   1.4428872007464E-12
(PID.TID 0000.0001) %MON dynstat_wvel_del2            =   1.5855230118494E-14
(PID.TID 0000.0001) %MON dynstat_theta_max            =  -1.9000000000000E+00
(PID.TID 0000.0001) %MON dynstat_theta_min            =  -1.9000037193685E+00
(PID.TID 0000.0001) %MON dynstat_theta_mean           =  -1.9000000142453E+00
(PID.TID 0000.0001) %MON dynstat_theta_sd             =   1.5055247437025E-07
(PID.TID 0000.0001) %MON dynstat_theta_del2           =   3.4348713532417E-10
(PID.TID 0000.0001) %MON dynstat_salt_max             =   3.4400000000000E+01
(PID.TID 0000.0001) %MON dynstat_salt_min             =   3.4399998627495E+01
(PID.TID 0000.0001) %MON dynstat_salt_mean            =   3.4399999994743E+01
(PID.TID 0000.0001) %MON dynstat_salt_sd              =   5.5565544880495E-08
(PID.TID 0000.0001) %MON dynstat_salt_del2            =   1.2676173256849E-10
(PID.TID 0000.0001) %MON trAdv_CFL_u_max              =   5.3153690646929E-15
(PID.TID 0000.0001) %MON trAdv_CFL_v_max              =   2.5212046536955E-15
(PID.TID 0000.0001) %MON trAdv_CFL_w_max              =   1.9543340299405E-14
(PID.TID 0000.0001) %MON advcfl_uvel_max              =   7.1887456000395E-10
(PID.TID 0000.0001) %MON advcfl_vvel_max              =   2.3413442079227E-09
(PID.TID 0000.0001) %MON advcfl_wvel_max              =   1.3129343008055E-09
(PID.TID 0000.0001) %MON advcfl_W_hf_max              =   3.3352039111236E-09
(PID.TID 0000.0001) %MON pe_b_mean                    =  -4.5230810257939E-13
(PID.TID 0000.0001) %MON ke_max                       =   5.3031537898292E-17
(PID.TID 0000.0001) %MON ke_mean                      =   1.3313054861145E-19
(PID.TID 0000.0001) %MON ke_vol                       =   2.9241705273105E+14
(PID.TID 0000.0001) %MON vort_r_min                   =  -2.1606769612389E-12
(PID.TID 0000.0001) %MON vort_r_max                   =   2.4018633323167E-12
(PID.TID 0000.0001) %MON vort_a_mean                  =  -1.4007437277914E-04
(PID.TID 0000.0001) %MON vort_a_sd                    =   1.7682771477967E-06
(PID.TID 0000.0001) %MON vort_p_mean                  =  -1.5039772194953E-04
(PID.TID 0000.0001) %MON vort_p_sd                    =   8.7081213897995E-05
(PID.TID 0000.0001) %MON surfExpan_theta_mean         =  -2.4298778449339E-19
(PID.TID 0000.0001) %MON surfExpan_salt_mean          =  -8.9687971488667E-20
(PID.TID 0000.0001) // =======================================================
(PID.TID 0000.0001) // End MONITOR dynamic field statistics
(PID.TID 0000.0001) // =======================================================
 cg2d: Sum(rhs),rhsMax =   1.10467190950203E-14  2.07340676816951E-08
(PID.TID 0000.0001)      cg2d_init_res =   3.81887001920740E+00
(PID.TID 0000.0001)      cg2d_iters(min,last) =      -1     212
(PID.TID 0000.0001)      cg2d_last_res =   8.02459675952294E-14
(PID.TID 0000.0001) // =======================================================
(PID.TID 0000.0001) // Begin MONITOR dynamic field statistics
(PID.TID 0000.0001) // =======================================================
(PID.TID 0000.0001) %MON time_tsnumber                =                     3
(PID.TID 0000.0001) %MON time_secondsf                =   5.4000000000000E+03
(PID.TID 0000.0001) %MON dynstat_eta_max              =   4.5267780915296E-09
(PID.TID 0000.0001) %MON dynstat_eta_min              =  -1.9660698078467E-08
(PID.TID 0000.0001) %MON dynstat_eta_mean             =   3.5742726480304E-25
(PID.TID 0000.0001) %MON dynstat_eta_sd               =   1.9769535753952E-09
(PID.TID 0000.0001) %MON dynstat_eta_del2             =   2.1485751781296E-11
(PID.TID 0000.0001) %MON dynstat_uvel_max             =   3.8297864103871E-09
(PID.TID 0000.0001) %MON dynstat_uvel_min             =  -8.3468947609016E-09
(PID.TID 0000.0001) %MON dynstat_uvel_mean            =   6.0931216022955E-12
(PID.TID 0000.0001) %MON dynstat_uvel_sd              =   5.0717413745096E-10
(PID.TID 0000.0001) %MON dynstat_uvel_del2            =   1.6468198613110E-12
(PID.TID 0000.0001) %MON dynstat_vvel_max             =   3.4774044424698E-08
(PID.TID 0000.0001) %MON dynstat_vvel_min             =  -2.5671909176096E-08
(PID.TID 0000.0001) %MON dynstat_vvel_mean            =  -1.1936402168218E-10
(PID.TID 0000.0001) %MON dynstat_vvel_sd              =   1.2039873454832E-09
(PID.TID 0000.0001) %MON dynstat_vvel_del2            =   5.2293591945176E-12
(PID.TID 0000.0001) %MON dynstat_wvel_max             =   5.1180841746017E-11
(PID.TID 0000.0001) %MON dynstat_wvel_min             =  -4.8053200592514E-11
(PID.TID 0000.0001) %MON dynstat_wvel_mean            =  -5.2224236579986E-14
(PID.TID 0000.0001) %MON dynstat_wvel_sd              =   3.4634509703884E-12
(PID.TID 0000.0001) %MON dynstat_wvel_del2            =   3.8304613174381E-14
(PID.TID 0000.0001) %MON dynstat_theta_max            =  -1.9000000000000E+00
(PID.TID 0000.0001) %MON dynstat_theta_min            =  -1.9000055759669E+00
(PID.TID 0000.0001) %MON dynstat_theta_mean           =  -1.9000000213678E+00
(PID.TID 0000.0001) %MON dynstat_theta_sd             =   2.2572792844418E-07
(PID.TID 0000.0001) %MON dynstat_theta_del2           =   5.1433071154135E-10
(PID.TID 0000.0001) %MON dynstat_salt_max             =   3.4400000000000E+01
(PID.TID 0000.0001) %MON dynstat_salt_min             =   3.4399997942382E+01
(PID.TID 0000.0001) %MON dynstat_salt_mean            =   3.4399999992114E+01
(PID.TID 0000.0001) %MON dynstat_salt_sd              =   8.3311121077456E-08
(PID.TID 0000.0001) %MON dynstat_salt_del2            =   1.8981046042255E-10
(PID.TID 0000.0001) %MON trAdv_CFL_u_max              =   7.1887465124637E-10
(PID.TID 0000.0001) %MON trAdv_CFL_v_max              =   2.3525311572308E-09
(PID.TID 0000.0001) %MON trAdv_CFL_w_max              =   3.3352039111236E-09
(PID.TID 0000.0001) %MON advcfl_uvel_max              =   2.4835688586573E-09
(PID.TID 0000.0001) %MON advcfl_vvel_max              =   5.6300326025811E-09
(PID.TID 0000.0001) %MON advcfl_wvel_max              =   3.0708505047610E-09
(PID.TID 0000.0001) %MON advcfl_W_hf_max              =   6.6850597413222E-09
(PID.TID 0000.0001) %MON pe_b_mean                    =  -1.2342966905318E-12
(PID.TID 0000.0001) %MON ke_max                       =   3.1444386369774E-16
(PID.TID 0000.0001) %MON ke_mean                      =   8.4931738996655E-19
(PID.TID 0000.0001) %MON ke_vol                       =   2.9241705273105E+14
(PID.TID 0000.0001) %MON vort_r_min                   =  -5.3036805447823E-12
(PID.TID 0000.0001) %MON vort_r_max                   =   5.7755578279044E-12
(PID.TID 0000.0001) %MON vort_a_mean                  =  -1.4007437277914E-04
(PID.TID 0000.0001) %MON vort_a_sd                    =   1.7682771475273E-06
(PID.TID 0000.0001) %MON vort_p_mean                  =  -1.5039772194953E-04
(PID.TID 0000.0001) %MON vort_p_sd                    =   8.7081213823999E-05
(PID.TID 0000.0001) %MON surfExpan_theta_mean         =  -5.3812852963017E-19
(PID.TID 0000.0001) %MON surfExpan_salt_mean          =  -1.9862854668072E-19
(PID.TID 0000.0001) // =======================================================
(PID.TID 0000.0001) // End MONITOR dynamic field statistics
(PID.TID 0000.0001) // =======================================================
 cg2d: Sum(rhs),rhsMax =   3.94129173741931E-15  2.79819037249708E-08
(PID.TID 0000.0001)      cg2d_init_res =   2.77151989628929E+00
(PID.TID 0000.0001)      cg2d_iters(min,last) =      -1     212
(PID.TID 0000.0001)      cg2d_last_res =   7.79519358754108E-14
(PID.TID 0000.0001) // =======================================================
(PID.TID 0000.0001) // Begin MONITOR dynamic field statistics
(PID.TID 0000.0001) // =======================================================
(PID.TID 0000.0001) %MON time_tsnumber                =                     4
(PID.TID 0000.0001) %MON time_secondsf                =   7.2000000000000E+03
(PID.TID 0000.0001) %MON dynstat_eta_max              =   6.1043849412715E-09
(PID.TID 0000.0001) %MON dynstat_eta_min              =  -2.5780612875058E-08
(PID.TID 0000.0001) %MON dynstat_eta_mean             =   5.3614089720456E-25
(PID.TID 0000.0001) %MON dynstat_eta_sd               =   3.1023101902318E-09
(PID.TID 0000.0001) %MON dynstat_eta_del2             =   2.9679145326698E-11
(PID.TID 0000.0001) %MON dynstat_uvel_max             =   8.8326548060865E-09
(PID.TID 0000.0001) %MON dynstat_uvel_min             =  -1.8599178898768E-08
(PID.TID 0000.0001) %MON dynstat_uvel_mean            =   1.2543940404054E-11
(PID.TID 0000.0001) %MON dynstat_uvel_sd              =   1.0753910559394E-09
(PID.TID 0000.0001) %MON dynstat_uvel_del2            =   3.3125282889940E-12
(PID.TID 0000.0001) %MON dynstat_vvel_max             =   5.9450426878576E-08
(PID.TID 0000.0001) %MON dynstat_vvel_min             =  -4.4367369866616E-08
(PID.TID 0000.0001) %MON dynstat_vvel_mean            =  -1.9549688918874E-10
(PID.TID 0000.0001) %MON dynstat_vvel_sd              =   2.1010349273846E-09
(PID.TID 0000.0001) %MON dynstat_vvel_del2            =   8.9620602428498E-12
(PID.TID 0000.0001) %MON dynstat_wvel_max             =   9.0652952287615E-11
(PID.TID 0000.0001) %MON dynstat_wvel_min             =  -9.8335663432240E-11
(PID.TID 0000.0001) %MON dynstat_wvel_mean            =  -8.0160306035224E-14
(PID.TID 0000.0001) %MON dynstat_wvel_sd              =   6.0625597963550E-12
(PID.TID 0000.0001) %MON dynstat_wvel_del2            =   6.5929103745801E-14
(PID.TID 0000.0001) %MON dynstat_theta_max            =  -1.9000000000000E+00
(PID.TID 0000.0001) %MON dynstat_theta_min            =  -1.9000074308549E+00
(PID.TID 0000.0001) %MON dynstat_theta_mean           =  -1.9000000284904E+00
(PID.TID 0000.0001) %MON dynstat_theta_sd             =   3.0084760516086E-07
(PID.TID 0000.0001) %MON dynstat_theta_del2           =   6.8467788503100E-10
(PID.TID 0000.0001) %MON dynstat_salt_max             =   3.4400000000000E+01
(PID.TID 0000.0001) %MON dynstat_salt_min             =   3.4399997257899E+01
(PID.TID 0000.0001) %MON dynstat_salt_mean            =   3.4399999989485E+01
(PID.TID 0000.0001) %MON dynstat_salt_sd              =   1.1103611140534E-07
(PID.TID 0000.0001) %MON dynstat_salt_del2            =   2.5267599205161E-10
(PID.TID 0000.0001) %MON trAdv_CFL_u_max              =   2.4835691738818E-09
(PID.TID 0000.0001) %MON trAdv_CFL_v_max              =   5.6569329144253E-09
(PID.TID 0000.0001) %MON trAdv_CFL_w_max              =   6.1847876867567E-09
(PID.TID 0000.0001) %MON advcfl_uvel_max              =   5.5340749862991E-09
(PID.TID 0000.0001) %MON advcfl_vvel_max              =   9.6252203935767E-09
(PID.TID 0000.0001) %MON advcfl_wvel_max              =   5.9001398059344E-09
(PID.TID 0000.0001) %MON advcfl_W_hf_max              =   1.2775702591403E-08
(PID.TID 0000.0001) %MON pe_b_mean                    =  -2.2540435457826E-12
(PID.TID 0000.0001) %MON ke_max                       =   9.5515657327156E-16
(PID.TID 0000.0001) %MON ke_mean                      =   2.7666173004821E-18
(PID.TID 0000.0001) %MON ke_vol                       =   2.9241705273105E+14
(PID.TID 0000.0001) %MON vort_r_min                   =  -9.2032062797830E-12
(PID.TID 0000.0001) %MON vort_r_max                   =   9.8710287992570E-12
(PID.TID 0000.0001) %MON vort_a_mean                  =  -1.4007437277914E-04
(PID.TID 0000.0001) %MON vort_a_sd                    =   1.7682771474627E-06
(PID.TID 0000.0001) %MON vort_p_mean                  =  -1.5039772194953E-04
(PID.TID 0000.0001) %MON vort_p_sd                    =   8.7081213697647E-05
(PID.TID 0000.0001) %MON surfExpan_theta_mean         =  -9.5061214876181E-19
(PID.TID 0000.0001) %MON surfExpan_salt_mean          =  -3.5087340910984E-19
(PID.TID 0000.0001) // =======================================================
(PID.TID 0000.0001) // End MONITOR dynamic field statistics
(PID.TID 0000.0001) // =======================================================
 cg2d: Sum(rhs),rhsMax =   1.73194791841524E-14  3.52040573560065E-08
(PID.TID 0000.0001)      cg2d_init_res =   2.20724219971190E+00
(PID.TID 0000.0001)      cg2d_iters(min,last) =      -1     208
(PID.TID 0000.0001)      cg2d_last_res =   8.91360307500334E-14
(PID.TID 0000.0001) // =======================================================
(PID.TID 0000.0001) // Begin MONITOR dynamic field statistics
(PID.TID 0000.0001) // =======================================================
(PID.TID 0000.0001) %MON time_tsnumber                =                     5
(PID.TID 0000.0001) %MON time_secondsf                =   9.0000000000000E+03
(PID.TID 0000.0001) %MON dynstat_eta_max              =   8.7001395515946E-09
(PID.TID 0000.0001) %MON dynstat_eta_min              =  -3.0835557510331E-08
(PID.TID 0000.0001) %MON dynstat_eta_mean             =  -5.5238759105924E-25
(PID.TID 0000.0001) %MON dynstat_eta_sd               =   4.3367702598210E-09
(PID.TID 0000.0001) %MON dynstat_eta_del2             =   3.7893151732158E-11
(PID.TID 0000.0001) %MON dynstat_uvel_max             =   1.6123749434695E-08
(PID.TID 0000.0001) %MON dynstat_uvel_min             =  -3.3742854849124E-08
(PID.TID 0000.0001) %MON dynstat_uvel_mean            =   1.6567910972983E-11
(PID.TID 0000.0001) %MON dynstat_uvel_sd              =   1.9146086647764E-09
(PID.TID 0000.0001) %MON dynstat_uvel_del2            =   5.7279225252631E-12
(PID.TID 0000.0001) %MON dynstat_vvel_max             =   8.6867761450934E-08
(PID.TID 0000.0001) %MON dynstat_vvel_min             =  -6.5021945983439E-08
(PID.TID 0000.0001) %MON dynstat_vvel_mean            =  -2.6446420948212E-10
(PID.TID 0000.0001) %MON dynstat_vvel_sd              =   3.1097742508060E-09
(PID.TID 0000.0001) %MON dynstat_vvel_del2            =   1.3056090046536E-11
(PID.TID 0000.0001) %MON dynstat_wvel_max             =   1.3769710805671E-10
(PID.TID 0000.0001) %MON dynstat_wvel_min             =  -1.6647729859170E-10
(PID.TID 0000.0001) %MON dynstat_wvel_mean            =  -1.0283284055906E-13
(PID.TID 0000.0001) %MON dynstat_wvel_sd              =   9.0841744456304E-12
(PID.TID 0000.0001) %MON dynstat_wvel_del2            =   9.6512574871115E-14
(PID.TID 0000.0001) %MON dynstat_theta_max            =  -1.9000000000000E+00
(PID.TID 0000.0001) %MON dynstat_theta_min            =  -1.9000092840347E+00
(PID.TID 0000.0001) %MON dynstat_theta_mean           =  -1.9000000356129E+00
(PID.TID 0000.0001) %MON dynstat_theta_sd             =   3.7591162518429E-07
(PID.TID 0000.0001) %MON dynstat_theta_del2           =   8.5453067473354E-10
(PID.TID 0000.0001) %MON dynstat_salt_max             =   3.4400000000000E+01
(PID.TID 0000.0001) %MON dynstat_salt_min             =   3.4399996574047E+01
(PID.TID 0000.0001) %MON dynstat_salt_mean            =   3.4399999986856E+01
(PID.TID 0000.0001) %MON dynstat_salt_sd              =   1.3874056041043E-07
(PID.TID 0000.0001) %MON dynstat_salt_del2            =   3.1535907302558E-10
(PID.TID 0000.0001) %MON trAdv_CFL_u_max              =   5.5340756887058E-09
(PID.TID 0000.0001) %MON trAdv_CFL_v_max              =   9.6712097240893E-09
(PID.TID 0000.0001) %MON trAdv_CFL_w_max              =   1.0476533686956E-08
(PID.TID 0000.0001) %MON advcfl_uvel_max              =   1.0039985636099E-08
(PID.TID 0000.0001) %MON advcfl_vvel_max              =   1.4064177382100E-08
(PID.TID 0000.0001) %MON advcfl_wvel_max              =   9.9886379155018E-09
(PID.TID 0000.0001) %MON advcfl_W_hf_max              =   2.0440178736736E-08
(PID.TID 0000.0001) %MON pe_b_mean                    =  -3.4487286864714E-12
(PID.TID 0000.0001) %MON ke_max                       =   2.1259495214731E-15
(PID.TID 0000.0001) %MON ke_mean                      =   6.6086483011046E-18
(PID.TID 0000.0001) %MON ke_vol                       =   2.9241705273105E+14
(PID.TID 0000.0001) %MON vort_r_min                   =  -1.3563788872865E-11
(PID.TID 0000.0001) %MON vort_r_max                   =   1.4379972245145E-11
(PID.TID 0000.0001) %MON vort_a_mean                  =  -1.4007437277913E-04
(PID.TID 0000.0001) %MON vort_a_sd                    =   1.7682771477238E-06
(PID.TID 0000.0001) %MON vort_p_mean                  =  -1.5039772194952E-04
(PID.TID 0000.0001) %MON vort_p_sd                    =   8.7081213513328E-05
(PID.TID 0000.0001) %MON surfExpan_theta_mean         =  -1.4261454927526E-18
(PID.TID 0000.0001) %MON surfExpan_salt_mean          =  -5.2638647114264E-19
(PID.TID 0000.0001) // =======================================================
(PID.TID 0000.0001) // End MONITOR dynamic field statistics
(PID.TID 0000.0001) // =======================================================
 cg2d: Sum(rhs),rhsMax =  -1.02140518265514E-14  4.23144294733543E-08
(PID.TID 0000.0001)      cg2d_init_res =   1.83393385041226E+00
(PID.TID 0000.0001)      cg2d_iters(min,last) =      -1     208
(PID.TID 0000.0001)      cg2d_last_res =   9.09278812226814E-14
(PID.TID 0000.0001) // =======================================================
(PID.TID 0000.0001) // Begin MONITOR dynamic field statistics
(PID.TID 0000.0001) // =======================================================
(PID.TID 0000.0001) %MON time_tsnumber                =                     6
(PID.TID 0000.0001) %MON time_secondsf                =   1.0800000000000E+04
(PID.TID 0000.0001) %MON dynstat_eta_max              =   1.1464887878059E-08
(PID.TID 0000.0001) %MON dynstat_eta_min              =  -3.5252902564763E-08
(PID.TID 0000.0001) %MON dynstat_eta_mean             =   1.5596826100496E-24
(PID.TID 0000.0001) %MON dynstat_eta_sd               =   5.6795348751310E-09
(PID.TID 0000.0001) %MON dynstat_eta_del2             =   4.6092642862229E-11
(PID.TID 0000.0001) %MON dynstat_uvel_max             =   2.5696206665539E-08
(PID.TID 0000.0001) %MON dynstat_uvel_min             =  -5.3953280034611E-08
(PID.TID 0000.0001) %MON dynstat_uvel_mean            =   1.6594271327412E-11
(PID.TID 0000.0001) %MON dynstat_uvel_sd              =   3.0350681879062E-09
(PID.TID 0000.0001) %MON dynstat_uvel_del2            =   8.9153949099948E-12
(PID.TID 0000.0001) %MON dynstat_vvel_max             =   1.1501734689316E-07
(PID.TID 0000.0001) %MON dynstat_vvel_min             =  -8.6174913775816E-08
(PID.TID 0000.0001) %MON dynstat_vvel_mean            =  -3.1597947376146E-10
(PID.TID 0000.0001) %MON dynstat_vvel_sd              =   4.1594157202046E-09
(PID.TID 0000.0001) %MON dynstat_vvel_del2            =   1.7216501479481E-11
(PID.TID 0000.0001) %MON dynstat_wvel_max             =   2.0820463718652E-10
(PID.TID 0000.0001) %MON dynstat_wvel_min             =  -2.5178614541645E-10
(PID.TID 0000.0001) %MON dynstat_wvel_mean            =  -1.1781871766466E-13
(PID.TID 0000.0001) %MON dynstat_wvel_sd              =   1.2392266270131E-11
(PID.TID 0000.0001) %MON dynstat_wvel_del2            =   1.2795009036601E-13
(PID.TID 0000.0001) %MON dynstat_theta_max            =  -1.9000000000000E+00
(PID.TID 0000.0001) %MON dynstat_theta_min            =  -1.9000111355087E+00
(PID.TID 0000.0001) %MON dynstat_theta_mean           =  -1.9000000427355E+00
(PID.TID 0000.0001) %MON dynstat_theta_sd             =   4.5092010898352E-07
(PID.TID 0000.0001) %MON dynstat_theta_del2           =   1.0238910906305E-09
(PID.TID 0000.0001) %MON dynstat_salt_max             =   3.4400000000000E+01
(PID.TID 0000.0001) %MON dynstat_salt_min             =   3.4399995890825E+01
(PID.TID 0000.0001) %MON dynstat_salt_mean            =   3.4399999984227E+01
(PID.TID 0000.0001) %MON dynstat_salt_sd              =   1.6642451254447E-07
(PID.TID 0000.0001) %MON dynstat_salt_del2            =   3.7786044569560E-10
(PID.TID 0000.0001) %MON trAdv_CFL_u_max              =   1.0039986910413E-08
(PID.TID 0000.0001) %MON trAdv_CFL_v_max              =   1.4131376061774E-08
(PID.TID 0000.0001) %MON trAdv_CFL_w_max              =   1.5827664401808E-08
(PID.TID 0000.0001) %MON advcfl_uvel_max              =   1.6053477365504E-08
(PID.TID 0000.0001) %MON advcfl_vvel_max              =   1.8621688204060E-08
(PID.TID 0000.0001) %MON advcfl_wvel_max              =   1.5107168724987E-08
(PID.TID 0000.0001) %MON advcfl_W_hf_max              =   2.9145896460766E-08
(PID.TID 0000.0001) %MON pe_b_mean                    =  -4.7645614751907E-12
(PID.TID 0000.0001) %MON ke_max                       =   3.9254581153248E-15
(PID.TID 0000.0001) %MON ke_mean                      =   1.3109955982499E-17
(PID.TID 0000.0001) %MON ke_vol                       =   2.9241705273105E+14
(PID.TID 0000.0001) %MON vort_r_min                   =  -1.8089374190438E-11
(PID.TID 0000.0001) %MON vort_r_max                   =   1.8984664436096E-11
(PID.TID 0000.0001) %MON vort_a_mean                  =  -1.4007437277912E-04
(PID.TID 0000.0001) %MON vort_a_sd                    =   1.7682771475245E-06
(PID.TID 0000.0001) %MON vort_p_mean                  =  -1.5039772194950E-04
(PID.TID 0000.0001) %MON vort_p_sd                    =   8.7081213269678E-05
(PID.TID 0000.0001) %MON surfExpan_theta_mean         =  -1.9049612407789E-18
(PID.TID 0000.0001) %MON surfExpan_salt_mean          =  -7.0311198601829E-19
(PID.TID 0000.0001) // =======================================================
(PID.TID 0000.0001) // End MONITOR dynamic field statistics
(PID.TID 0000.0001) // =======================================================
 cg2d: Sum(rhs),rhsMax =   2.30926389122033E-14  4.93126886748102E-08
(PID.TID 0000.0001)      cg2d_init_res =   1.57042300454336E+00
(PID.TID 0000.0001)      cg2d_iters(min,last) =      -1     209
(PID.TID 0000.0001)      cg2d_last_res =   9.80763744917050E-14
(PID.TID 0000.0001) // =======================================================
(PID.TID 0000.0001) // Begin MONITOR dynamic field statistics
(PID.TID 0000.0001) // =======================================================
(PID.TID 0000.0001) %MON time_tsnumber                =                     7
(PID.TID 0000.0001) %MON time_secondsf                =   1.2600000000000E+04
(PID.TID 0000.0001) %MON dynstat_eta_max              =   1.4366699636503E-08
(PID.TID 0000.0001) %MON dynstat_eta_min              =  -3.9434895895555E-08
(PID.TID 0000.0001) %MON dynstat_eta_mean             =   0.0000000000000E+00
(PID.TID 0000.0001) %MON dynstat_eta_sd               =   7.1020603015476E-09
(PID.TID 0000.0001) %MON dynstat_eta_del2             =   5.4271390409188E-11
(PID.TID 0000.0001) %MON dynstat_uvel_max             =   3.7391114138227E-08
(PID.TID 0000.0001) %MON dynstat_uvel_min             =  -7.9032251674388E-08
(PID.TID 0000.0001) %MON dynstat_uvel_mean            =   1.2924583136125E-11
(PID.TID 0000.0001) %MON dynstat_uvel_sd              =   4.4279118872201E-09
(PID.TID 0000.0001) %MON dynstat_uvel_del2            =   1.2843584463471E-11
(PID.TID 0000.0001) %MON dynstat_vvel_max             =   1.4210912089875E-07
(PID.TID 0000.0001) %MON dynstat_vvel_min             =  -1.0646038350563E-07
(PID.TID 0000.0001) %MON dynstat_vvel_mean            =  -3.4409615877440E-10
(PID.TID 0000.0001) %MON dynstat_vvel_sd              =   5.1805765740317E-09
(PID.TID 0000.0001) %MON dynstat_vvel_del2            =   2.1172372428851E-11
(PID.TID 0000.0001) %MON dynstat_wvel_max             =   2.9135933037739E-10
(PID.TID 0000.0001) %MON dynstat_wvel_min             =  -3.5245889341675E-10
(PID.TID 0000.0001) %MON dynstat_wvel_mean            =  -1.2420469551391E-13
(PID.TID 0000.0001) %MON dynstat_wvel_sd              =   1.5862666213544E-11
(PID.TID 0000.0001) %MON dynstat_wvel_del2            =   1.5830278411924E-13
(PID.TID 0000.0001) %MON dynstat_theta_max            =  -1.9000000000000E+00
(PID.TID 0000.0001) %MON dynstat_theta_min            =  -1.9000129852791E+00
(PID.TID 0000.0001) %MON dynstat_theta_mean           =  -1.9000000498580E+00
(PID.TID 0000.0001) %MON dynstat_theta_sd             =   5.2587317668433E-07
(PID.TID 0000.0001) %MON dynstat_theta_del2           =   1.1927611334189E-09
(PID.TID 0000.0001) %MON dynstat_salt_max             =   3.4400000000000E+01
(PID.TID 0000.0001) %MON dynstat_salt_min             =   3.4399995208231E+01
(PID.TID 0000.0001) %MON dynstat_salt_mean            =   3.4399999981598E+01
(PID.TID 0000.0001) %MON dynstat_salt_sd              =   1.9408801219748E-07
(PID.TID 0000.0001) %MON dynstat_salt_del2            =   4.4018084842729E-10
(PID.TID 0000.0001) %MON trAdv_CFL_u_max              =   1.6053479403075E-08
(PID.TID 0000.0001) %MON trAdv_CFL_v_max              =   1.8710662683449E-08
(PID.TID 0000.0001) %MON trAdv_CFL_w_max              =   2.1989320814029E-08
(PID.TID 0000.0001) %MON advcfl_uvel_max              =   2.3515576116702E-08
(PID.TID 0000.0001) %MON advcfl_vvel_max              =   2.3007935861951E-08
(PID.TID 0000.0001) %MON advcfl_wvel_max              =   2.1147533605005E-08
(PID.TID 0000.0001) %MON advcfl_W_hf_max              =   3.8572238497928E-08
(PID.TID 0000.0001) %MON pe_b_mean                    =  -6.1421855095326E-12
(PID.TID 0000.0001) %MON ke_max                       =   6.3847678501813E-15
(PID.TID 0000.0001) %MON ke_mean                      =   2.2923135274107E-17
(PID.TID 0000.0001) %MON ke_vol                       =   2.9241705273105E+14
(PID.TID 0000.0001) %MON vort_r_min                   =  -2.2499291373390E-11
(PID.TID 0000.0001) %MON vort_r_max                   =   2.3387771962621E-11
(PID.TID 0000.0001) %MON vort_a_mean                  =  -1.4007437277910E-04
(PID.TID 0000.0001) %MON vort_a_sd                    =   1.7682771473608E-06
(PID.TID 0000.0001) %MON vort_p_mean                  =  -1.5039772194948E-04
(PID.TID 0000.0001) %MON vort_p_sd                    =   8.7081212969352E-05
(PID.TID 0000.0001) %MON surfExpan_theta_mean         =  -2.3276224280300E-18
(PID.TID 0000.0001) %MON surfExpan_salt_mean          =  -8.5911434651723E-19
(PID.TID 0000.0001) // =======================================================
(PID.TID 0000.0001) // End MONITOR dynamic field statistics
(PID.TID 0000.0001) // =======================================================
 cg2d: Sum(rhs),rhsMax =  -4.21884749357559E-15  5.62077957059261E-08
(PID.TID 0000.0001)      cg2d_init_res =   1.37461731775295E+00
(PID.TID 0000.0001)      cg2d_iters(min,last) =      -1     209
(PID.TID 0000.0001)      cg2d_last_res =   8.51147743288721E-14
(PID.TID 0000.0001) // =======================================================
(PID.TID 0000.0001) // Begin MONITOR dynamic field statistics
(PID.TID 0000.0001) // =======================================================
(PID.TID 0000.0001) %MON time_tsnumber                =                     8
(PID.TID 0000.0001) %MON time_secondsf                =   1.4400000000000E+04
(PID.TID 0000.0001) %MON dynstat_eta_max              =   1.7490051811077E-08
(PID.TID 0000.0001) %MON dynstat_eta_min              =  -4.3635831103905E-08
(PID.TID 0000.0001) %MON dynstat_eta_mean             =  -2.7294445675868E-24
(PID.TID 0000.0001) %MON dynstat_eta_sd               =   8.5488893125586E-09
(PID.TID 0000.0001) %MON dynstat_eta_del2             =   6.2426699190236E-11
(PID.TID 0000.0001) %MON dynstat_uvel_max             =   5.1167633813596E-08
(PID.TID 0000.0001) %MON dynstat_uvel_min             =  -1.0846802880022E-07
(PID.TID 0000.0001) %MON dynstat_uvel_mean            =   7.1721392451835E-12
(PID.TID 0000.0001) %MON dynstat_uvel_sd              =   6.0670952974223E-09
(PID.TID 0000.0001) %MON dynstat_uvel_del2            =   1.7435409210493E-11
(PID.TID 0000.0001) %MON dynstat_vvel_max             =   1.6657585190948E-07
(PID.TID 0000.0001) %MON dynstat_vvel_min             =  -1.2469464300599E-07
(PID.TID 0000.0001) %MON dynstat_vvel_mean            =  -3.4731199952940E-10
(PID.TID 0000.0001) %MON dynstat_vvel_sd              =   6.1097263769754E-09
(PID.TID 0000.0001) %MON dynstat_vvel_del2            =   2.4691479070670E-11
(PID.TID 0000.0001) %MON dynstat_wvel_max             =   3.8501200165635E-10
(PID.TID 0000.0001) %MON dynstat_wvel_min             =  -4.6584480974205E-10
(PID.TID 0000.0001) %MON dynstat_wvel_mean            =  -1.2222852983285E-13
(PID.TID 0000.0001) %MON dynstat_wvel_sd              =   1.9387578794616E-11
(PID.TID 0000.0001) %MON dynstat_wvel_del2            =   1.8590974287835E-13
(PID.TID 0000.0001) %MON dynstat_theta_max            =  -1.9000000000000E+00
(PID.TID 0000.0001) %MON dynstat_theta_min            =  -1.9000148333481E+00
(PID.TID 0000.0001) %MON dynstat_theta_mean           =  -1.9000000569804E+00
(PID.TID 0000.0001) %MON dynstat_theta_sd             =   6.0077094801849E-07
(PID.TID 0000.0001) %MON dynstat_theta_del2           =   1.3611427941402E-09
(PID.TID 0000.0001) %MON dynstat_salt_max             =   3.4400000000000E+01
(PID.TID 0000.0001) %MON dynstat_salt_min             =   3.4399994526265E+01
(PID.TID 0000.0001) %MON dynstat_salt_mean            =   3.4399999978969E+01
(PID.TID 0000.0001) %MON dynstat_salt_sd              =   2.2173110340216E-07
(PID.TID 0000.0001) %MON dynstat_salt_del2            =   5.0232101538835E-10
(PID.TID 0000.0001) %MON trAdv_CFL_u_max              =   2.3515579101392E-08
(PID.TID 0000.0001) %MON trAdv_CFL_v_max              =   2.3117867845168E-08
(PID.TID 0000.0001) %MON trAdv_CFL_w_max              =   2.8701359829461E-08
(PID.TID 0000.0001) %MON advcfl_uvel_max              =   3.2274016410274E-08
(PID.TID 0000.0001) %MON advcfl_vvel_max              =   2.6969180392115E-08
(PID.TID 0000.0001) %MON advcfl_wvel_max              =   2.7950688584523E-08
(PID.TID 0000.0001) %MON advcfl_W_hf_max              =   4.8402618613327E-08
(PID.TID 0000.0001) %MON pe_b_mean                    =  -7.5157662134651E-12
(PID.TID 0000.0001) %MON ke_max                       =   9.4783509888799E-15
(PID.TID 0000.0001) %MON ke_mean                      =   3.6533776966797E-17
(PID.TID 0000.0001) %MON ke_vol                       =   2.9241705273105E+14
(PID.TID 0000.0001) %MON vort_r_min                   =  -2.6543819790819E-11
(PID.TID 0000.0001) %MON vort_r_max                   =   2.7331605145616E-11
(PID.TID 0000.0001) %MON vort_a_mean                  =  -1.4007437277908E-04
(PID.TID 0000.0001) %MON vort_a_sd                    =   1.7682771471549E-06
(PID.TID 0000.0001) %MON vort_p_mean                  =  -1.5039772194946E-04
(PID.TID 0000.0001) %MON vort_p_sd                    =   8.7081212618408E-05
(PID.TID 0000.0001) %MON surfExpan_theta_mean         =  -2.6399742138094E-18
(PID.TID 0000.0001) %MON surfExpan_salt_mean          =  -9.7440553625020E-19
(PID.TID 0000.0001) // =======================================================
(PID.TID 0000.0001) // End MONITOR dynamic field statistics
(PID.TID 0000.0001) // =======================================================
 cg2d: Sum(rhs),rhsMax =  -9.76996261670138E-15  6.30049988254765E-08
(PID.TID 0000.0001)      cg2d_init_res =   1.22325119836152E+00
(PID.TID 0000.0001)      cg2d_iters(min,last) =      -1     209
(PID.TID 0000.0001)      cg2d_last_res =   8.02261754498867E-14
(PID.TID 0000.0001) // =======================================================
(PID.TID 0000.0001) // Begin MONITOR dynamic field statistics
(PID.TID 0000.0001) // =======================================================
(PID.TID 0000.0001) %MON time_tsnumber                =                     9
(PID.TID 0000.0001) %MON time_secondsf                =   1.6200000000000E+04
(PID.TID 0000.0001) %MON dynstat_eta_max              =   2.0590508082213E-08
(PID.TID 0000.0001) %MON dynstat_eta_min              =  -4.7967111273052E-08
(PID.TID 0000.0001) %MON dynstat_eta_mean             =  -1.2997355083747E-24
(PID.TID 0000.0001) %MON dynstat_eta_sd               =   9.9557246718525E-09
(PID.TID 0000.0001) %MON dynstat_eta_del2             =   7.0556906891983E-11
(PID.TID 0000.0001) %MON dynstat_uvel_max             =   6.6897532188660E-08
(PID.TID 0000.0001) %MON dynstat_uvel_min             =  -1.4150425691947E-07
(PID.TID 0000.0001) %MON dynstat_uvel_mean            =   1.3147377006338E-12
(PID.TID 0000.0001) %MON dynstat_uvel_sd              =   7.9121005290631E-09
(PID.TID 0000.0001) %MON dynstat_uvel_del2            =   2.2577505664074E-11
(PID.TID 0000.0001) %MON dynstat_vvel_max             =   1.8715349555373E-07
(PID.TID 0000.0001) %MON dynstat_vvel_min             =  -1.3993556603761E-07
(PID.TID 0000.0001) %MON dynstat_vvel_mean            =  -3.2780433052976E-10
(PID.TID 0000.0001) %MON dynstat_vvel_sd              =   6.8929474442634E-09
(PID.TID 0000.0001) %MON dynstat_vvel_del2            =   2.7591254527285E-11
(PID.TID 0000.0001) %MON dynstat_wvel_max             =   4.8645751999581E-10
(PID.TID 0000.0001) %MON dynstat_wvel_min             =  -5.8869762549976E-10
(PID.TID 0000.0001) %MON dynstat_wvel_mean            =  -1.1296821655318E-13
(PID.TID 0000.0001) %MON dynstat_wvel_sd              =   2.2878623677321E-11
(PID.TID 0000.0001) %MON dynstat_wvel_del2            =   2.0947615505109E-13
(PID.TID 0000.0001) %MON dynstat_theta_max            =  -1.9000000000000E+00
(PID.TID 0000.0001) %MON dynstat_theta_min            =  -1.9000166797179E+00
(PID.TID 0000.0001) %MON dynstat_theta_mean           =  -1.9000000641029E+00
(PID.TID 0000.0001) %MON dynstat_theta_sd             =   6.7561354231100E-07
(PID.TID 0000.0001) %MON dynstat_theta_del2           =   1.5290380540904E-09
(PID.TID 0000.0001) %MON dynstat_salt_max             =   3.4400000000000E+01
(PID.TID 0000.0001) %MON dynstat_salt_min             =   3.4399993844926E+01
(PID.TID 0000.0001) %MON dynstat_salt_mean            =   3.4399999976341E+01
(PID.TID 0000.0001) %MON dynstat_salt_sd              =   2.4935383032459E-07
(PID.TID 0000.0001) %MON dynstat_salt_del2            =   5.6428167829287E-10
(PID.TID 0000.0001) %MON trAdv_CFL_u_max              =   3.2274020506621E-08
(PID.TID 0000.0001) %MON trAdv_CFL_v_max              =   2.7098039213003E-08
(PID.TID 0000.0001) %MON trAdv_CFL_w_max              =   3.5683606301683E-08
(PID.TID 0000.0001) %MON advcfl_uvel_max              =   4.2103749468464E-08
(PID.TID 0000.0001) %MON advcfl_vvel_max              =   3.0300768837407E-08
(PID.TID 0000.0001) %MON advcfl_wvel_max              =   3.5321857529986E-08
(PID.TID 0000.0001) %MON advcfl_W_hf_max              =   5.8315258039963E-08
(PID.TID 0000.0001) %MON pe_b_mean                    =  -8.8206225083092E-12
(PID.TID 0000.0001) %MON ke_max                       =   1.3672309932322E-14
(PID.TID 0000.0001) %MON ke_mean                      =   5.4192025909728E-17
(PID.TID 0000.0001) %MON ke_vol                       =   2.9241705273105E+14
(PID.TID 0000.0001) %MON vort_r_min                   =  -3.0017573577427E-11
(PID.TID 0000.0001) %MON vort_r_max                   =   3.0611221436531E-11
(PID.TID 0000.0001) %MON vort_a_mean                  =  -1.4007437277906E-04
(PID.TID 0000.0001) %MON vort_a_sd                    =   1.7682771469884E-06
(PID.TID 0000.0001) %MON vort_p_mean                  =  -1.5039772194944E-04
(PID.TID 0000.0001) %MON vort_p_sd                    =   8.7081212225610E-05
(PID.TID 0000.0001) %MON surfExpan_theta_mean         =  -2.8025257893016E-18
(PID.TID 0000.0001) %MON surfExpan_salt_mean          =  -1.0344089366082E-18
(PID.TID 0000.0001) // =======================================================
(PID.TID 0000.0001) // End MONITOR dynamic field statistics
(PID.TID 0000.0001) // =======================================================
 cg2d: Sum(rhs),rhsMax =   1.77635683940025E-15  6.97092539318779E-08
(PID.TID 0000.0001)      cg2d_init_res =   1.10249674103692E+00
(PID.TID 0000.0001)      cg2d_iters(min,last) =      -1     209
(PID.TID 0000.0001)      cg2d_last_res =   7.86666327896431E-14
(PID.TID 0000.0001) // =======================================================
(PID.TID 0000.0001) // Begin MONITOR dynamic field statistics
(PID.TID 0000.0001) // =======================================================
(PID.TID 0000.0001) %MON time_tsnumber                =                    10
(PID.TID 0000.0001) %MON time_secondsf                =   1.8000000000000E+04
(PID.TID 0000.0001) %MON dynstat_eta_max              =   2.3470326538760E-08
(PID.TID 0000.0001) %MON dynstat_eta_min              =  -5.2468449421158E-08
(PID.TID 0000.0001) %MON dynstat_eta_mean             =  -7.7984130502481E-25
(PID.TID 0000.0001) %MON dynstat_eta_sd               =   1.1266328266757E-08
(PID.TID 0000.0001) %MON dynstat_eta_del2             =   7.8660803176989E-11
(PID.TID 0000.0001) %MON dynstat_uvel_max             =   8.3847927446568E-08
(PID.TID 0000.0001) %MON dynstat_uvel_min             =  -1.7721168535847E-07
(PID.TID 0000.0001) %MON dynstat_uvel_mean            =  -3.0947088225525E-12
(PID.TID 0000.0001) %MON dynstat_uvel_sd              =   9.9113746369672E-09
(PID.TID 0000.0001) %MON dynstat_uvel_del2            =   2.8130885937965E-11
(PID.TID 0000.0001) %MON dynstat_vvel_max             =   2.0293509432513E-07
(PID.TID 0000.0001) %MON dynstat_vvel_min             =  -1.5151959659205E-07
(PID.TID 0000.0001) %MON dynstat_vvel_mean            =  -2.9037331247162E-10
(PID.TID 0000.0001) %MON dynstat_vvel_sd              =   7.4888878175668E-09
(PID.TID 0000.0001) %MON dynstat_vvel_del2            =   2.9745661365326E-11
(PID.TID 0000.0001) %MON dynstat_wvel_max             =   5.9263471427918E-10
(PID.TID 0000.0001) %MON dynstat_wvel_min             =  -7.1741776250709E-10
(PID.TID 0000.0001) %MON dynstat_wvel_mean            =  -9.8129286272348E-14
(PID.TID 0000.0001) %MON dynstat_wvel_sd              =   2.6267642628844E-11
(PID.TID 0000.0001) %MON dynstat_wvel_del2            =   2.2813173580484E-13
(PID.TID 0000.0001) %MON dynstat_theta_max            =  -1.9000000000000E+00
(PID.TID 0000.0001) %MON dynstat_theta_min            =  -1.9000185243909E+00
(PID.TID 0000.0001) %MON dynstat_theta_mean           =  -1.9000000712254E+00
(PID.TID 0000.0001) %MON dynstat_theta_sd             =   7.5040107847272E-07
(PID.TID 0000.0001) %MON dynstat_theta_del2           =   1.6964488848165E-09
(PID.TID 0000.0001) %MON dynstat_salt_max             =   3.4400000000000E+01
(PID.TID 0000.0001) %MON dynstat_salt_min             =   3.4399993164213E+01
(PID.TID 0000.0001) %MON dynstat_salt_mean            =   3.4399999973712E+01
(PID.TID 0000.0001) %MON dynstat_salt_sd              =   2.7695623676944E-07
(PID.TID 0000.0001) %MON dynstat_salt_del2            =   6.2606356456079E-10
(PID.TID 0000.0001) %MON trAdv_CFL_u_max              =   4.2103754812439E-08
(PID.TID 0000.0001) %MON trAdv_CFL_v_max              =   3.0445545997396E-08
(PID.TID 0000.0001) %MON trAdv_CFL_w_max              =   4.2668754304262E-08
(PID.TID 0000.0001) %MON advcfl_uvel_max              =   5.2728282283857E-08
(PID.TID 0000.0001) %MON advcfl_vvel_max              =   3.2855861783132E-08
(PID.TID 0000.0001) %MON advcfl_wvel_max              =   4.3045065750426E-08
(PID.TID 0000.0001) %MON advcfl_W_hf_max              =   6.7992774957988E-08
(PID.TID 0000.0001) %MON pe_b_mean                    =  -1.0002689517092E-11
(PID.TID 0000.0001) %MON ke_max                       =   2.0016390503461E-14
(PID.TID 0000.0001) %MON ke_mean                      =   7.5868965356872E-17
(PID.TID 0000.0001) %MON ke_vol                       =   2.9241705273105E+14
(PID.TID 0000.0001) %MON vort_r_min                   =  -3.2768992655224E-11
(PID.TID 0000.0001) %MON vort_r_max                   =   3.3082979429946E-11
(PID.TID 0000.0001) %MON vort_a_mean                  =  -1.4007437277904E-04
(PID.TID 0000.0001) %MON vort_a_sd                    =   1.7682771467554E-06
(PID.TID 0000.0001) %MON vort_p_mean                  =  -1.5039772194943E-04
(PID.TID 0000.0001) %MON vort_p_sd                    =   8.7081211801632E-05
(PID.TID 0000.0001) %MON surfExpan_theta_mean         =  -2.7991327982334E-18
(PID.TID 0000.0001) %MON surfExpan_salt_mean          =  -1.0331647941447E-18
(PID.TID 0000.0001) // =======================================================
(PID.TID 0000.0001) // End MONITOR dynamic field statistics
(PID.TID 0000.0001) // =======================================================
 cg2d: Sum(rhs),rhsMax =  -2.22044604925031E-15  7.63284652711295E-08
(PID.TID 0000.0001)      cg2d_init_res =   1.00376068039992E+00
(PID.TID 0000.0001)      cg2d_iters(min,last) =      -1     208
(PID.TID 0000.0001)      cg2d_last_res =   8.90958153184681E-14
(PID.TID 0000.0001) // =======================================================
(PID.TID 0000.0001) // Begin MONITOR dynamic field statistics
(PID.TID 0000.0001) // =======================================================
(PID.TID 0000.0001) %MON time_tsnumber                =                    11
(PID.TID 0000.0001) %MON time_secondsf                =   1.9800000000000E+04
(PID.TID 0000.0001) %MON dynstat_eta_max              =   2.6004870825887E-08
(PID.TID 0000.0001) %MON dynstat_eta_min              =  -5.7161523506204E-08
(PID.TID 0000.0001) %MON dynstat_eta_mean             =  -7.7984130502481E-25
(PID.TID 0000.0001) %MON dynstat_eta_sd               =   1.2442885563245E-08
(PID.TID 0000.0001) %MON dynstat_eta_del2             =   8.6737991903817E-11
(PID.TID 0000.0001) %MON dynstat_uvel_max             =   1.0153188924341E-07
(PID.TID 0000.0001) %MON dynstat_uvel_min             =  -2.1455329668360E-07
(PID.TID 0000.0001) %MON dynstat_uvel_mean            =  -5.2647904743203E-12
(PID.TID 0000.0001) %MON dynstat_uvel_sd              =   1.2006269775106E-08
(PID.TID 0000.0001) %MON dynstat_uvel_del2            =   3.3942193952258E-11
(PID.TID 0000.0001) %MON dynstat_vvel_max             =   2.1339773043974E-07
(PID.TID 0000.0001) %MON dynstat_vvel_min             =  -1.5907847873544E-07
(PID.TID 0000.0001) %MON dynstat_vvel_mean            =  -2.4139742260783E-10
(PID.TID 0000.0001) %MON dynstat_vvel_sd              =   7.8707597316915E-09
(PID.TID 0000.0001) %MON dynstat_vvel_del2            =   3.1088019199304E-11
(PID.TID 0000.0001) %MON dynstat_wvel_max             =   7.0036241632713E-10
(PID.TID 0000.0001) %MON dynstat_wvel_min             =  -8.4830945765969E-10
(PID.TID 0000.0001) %MON dynstat_wvel_mean            =  -7.9860375121114E-14
(PID.TID 0000.0001) %MON dynstat_wvel_sd              =   2.9505772327030E-11
(PID.TID 0000.0001) %MON dynstat_wvel_del2            =   2.4145896163934E-13
(PID.TID 0000.0001) %MON dynstat_theta_max            =  -1.9000000000000E+00
(PID.TID 0000.0001) %MON dynstat_theta_min            =  -1.9000203673692E+00
(PID.TID 0000.0001) %MON dynstat_theta_mean           =  -1.9000000783478E+00
(PID.TID 0000.0001) %MON dynstat_theta_sd             =   8.2513367500163E-07
(PID.TID 0000.0001) %MON dynstat_theta_del2           =   1.8633772481711E-09
(PID.TID 0000.0001) %MON dynstat_salt_max             =   3.4400000000000E+01
(PID.TID 0000.0001) %MON dynstat_salt_min             =   3.4399992484125E+01
(PID.TID 0000.0001) %MON dynstat_salt_mean            =   3.4399999971083E+01
(PID.TID 0000.0001) %MON dynstat_salt_sd              =   3.0453836659264E-07
(PID.TID 0000.0001) %MON dynstat_salt_del2            =   6.8766739850411E-10
(PID.TID 0000.0001) %MON trAdv_CFL_u_max              =   5.2728288976341E-08
(PID.TID 0000.0001) %MON trAdv_CFL_v_max              =   3.3012847184508E-08
(PID.TID 0000.0001) %MON trAdv_CFL_w_max              =   4.9425573887957E-08
(PID.TID 0000.0001) %MON advcfl_uvel_max              =   6.3839056491005E-08
(PID.TID 0000.0001) %MON advcfl_vvel_max              =   3.4549797113597E-08
(PID.TID 0000.0001) %MON advcfl_wvel_max              =   5.0898567459581E-08
(PID.TID 0000.0001) %MON advcfl_W_hf_max              =   7.7147229691874E-08
(PID.TID 0000.0001) %MON pe_b_mean                    =  -1.1025854856014E-11
(PID.TID 0000.0001) %MON ke_max                       =   2.7776546104863E-14
(PID.TID 0000.0001) %MON ke_mean                      =   1.0124339715493E-16
(PID.TID 0000.0001) %MON ke_vol                       =   2.9241705273105E+14
(PID.TID 0000.0001) %MON vort_r_min                   =  -3.4705192743125E-11
(PID.TID 0000.0001) %MON vort_r_max                   =   3.4668537241895E-11
(PID.TID 0000.0001) %MON vort_a_mean                  =  -1.4007437277904E-04
(PID.TID 0000.0001) %MON vort_a_sd                    =   1.7682771463943E-06
(PID.TID 0000.0001) %MON vort_p_mean                  =  -1.5039772194942E-04
(PID.TID 0000.0001) %MON vort_p_sd                    =   8.7081211358258E-05
(PID.TID 0000.0001) %MON surfExpan_theta_mean         =  -2.6415374190387E-18
(PID.TID 0000.0001) %MON surfExpan_salt_mean          =  -9.7500623728845E-19
(PID.TID 0000.0001) // =======================================================
(PID.TID 0000.0001) // End MONITOR dynamic field statistics
(PID.TID 0000.0001) // =======================================================
 cg2d: Sum(rhs),rhsMax =   6.21724893790088E-15  8.33898497308735E-08
(PID.TID 0000.0001)      cg2d_init_res =   9.15639154257908E-01
(PID.TID 0000.0001)      cg2d_iters(min,last) =      -1     207
(PID.TID 0000.0001)      cg2d_last_res =   9.34980679560410E-14
(PID.TID 0000.0001) // =======================================================
(PID.TID 0000.0001) // Begin MONITOR dynamic field statistics
(PID.TID 0000.0001) // =======================================================
(PID.TID 0000.0001) %MON time_tsnumber                =                    12
(PID.TID 0000.0001) %MON time_secondsf                =   2.1600000000000E+04
(PID.TID 0000.0001) %MON dynstat_eta_max              =   2.8126210893089E-08
(PID.TID 0000.0001) %MON dynstat_eta_min              =  -6.2063945048379E-08
(PID.TID 0000.0001) %MON dynstat_eta_mean             =   3.1193652200992E-24
(PID.TID 0000.0001) %MON dynstat_eta_sd               =   1.3470113761251E-08
(PID.TID 0000.0001) %MON dynstat_eta_del2             =   9.4788013549261E-11
(PID.TID 0000.0001) %MON dynstat_uvel_max             =   1.1946334408973E-07
(PID.TID 0000.0001) %MON dynstat_uvel_min             =  -2.5245902591208E-07
(PID.TID 0000.0001) %MON dynstat_uvel_mean            =  -5.0908169624673E-12
(PID.TID 0000.0001) %MON dynstat_uvel_sd              =   1.4135228440791E-08
(PID.TID 0000.0001) %MON dynstat_uvel_del2            =   3.9854846841918E-11
(PID.TID 0000.0001) %MON dynstat_vvel_max             =   2.1840312629110E-07
(PID.TID 0000.0001) %MON dynstat_vvel_min             =  -1.6253606741405E-07
(PID.TID 0000.0001) %MON dynstat_vvel_mean            =  -1.8786914510923E-10
(PID.TID 0000.0001) %MON dynstat_vvel_sd              =   8.0272984105106E-09
(PID.TID 0000.0001) %MON dynstat_vvel_del2            =   3.1609795740397E-11
(PID.TID 0000.0001) %MON dynstat_wvel_max             =   8.0657024888808E-10
(PID.TID 0000.0001) %MON dynstat_wvel_min             =  -9.7782774950090E-10
(PID.TID 0000.0001) %MON dynstat_wvel_mean            =  -6.0525337818698E-14
(PID.TID 0000.0001) %MON dynstat_wvel_sd              =   3.2561024092725E-11
(PID.TID 0000.0001) %MON dynstat_wvel_del2            =   2.4948953606240E-13
(PID.TID 0000.0001) %MON dynstat_theta_max            =  -1.9000000000000E+00
(PID.TID 0000.0001) %MON dynstat_theta_min            =  -1.9000222086552E+00
(PID.TID 0000.0001) %MON dynstat_theta_mean           =  -1.9000000854702E+00
(PID.TID 0000.0001) %MON dynstat_theta_sd             =   8.9981144998016E-07
(PID.TID 0000.0001) %MON dynstat_theta_del2           =   2.0298250963278E-09
(PID.TID 0000.0001) %MON dynstat_salt_max             =   3.4400000000000E+01
(PID.TID 0000.0001) %MON dynstat_salt_min             =   3.4399991804662E+01
(PID.TID 0000.0001) %MON dynstat_salt_mean            =   3.4399999968454E+01
(PID.TID 0000.0001) %MON dynstat_salt_sd              =   3.3210026335385E-07
(PID.TID 0000.0001) %MON dynstat_salt_del2            =   7.4909390058413E-10
(PID.TID 0000.0001) %MON trAdv_CFL_u_max              =   6.3839064593711E-08
(PID.TID 0000.0001) %MON trAdv_CFL_v_max              =   3.4714876142818E-08
(PID.TID 0000.0001) %MON trAdv_CFL_w_max              =   5.5769267584220E-08
(PID.TID 0000.0001) %MON advcfl_uvel_max              =   7.5117680622883E-08
(PID.TID 0000.0001) %MON advcfl_vvel_max              =   3.5360187227782E-08
(PID.TID 0000.0001) %MON advcfl_wvel_max              =   5.8669664970054E-08
(PID.TID 0000.0001) %MON advcfl_W_hf_max              =   8.5545224919898E-08
(PID.TID 0000.0001) %MON pe_b_mean                    =  -1.1875696850333E-11
(PID.TID 0000.0001) %MON ke_max                       =   3.6815103434004E-14
(PID.TID 0000.0001) %MON ke_mean                      =   1.2972093104997E-16
(PID.TID 0000.0001) %MON ke_vol                       =   2.9241705273105E+14
(PID.TID 0000.0001) %MON vort_r_min                   =  -3.5792415300500E-11
(PID.TID 0000.0001) %MON vort_r_max                   =   3.5354311537014E-11
(PID.TID 0000.0001) %MON vort_a_mean                  =  -1.4007437277904E-04
(PID.TID 0000.0001) %MON vort_a_sd                    =   1.7682771460678E-06
(PID.TID 0000.0001) %MON vort_p_mean                  =  -1.5039772194942E-04
(PID.TID 0000.0001) %MON vort_p_sd                    =   8.7081210907609E-05
(PID.TID 0000.0001) %MON surfExpan_theta_mean         =  -2.3682670234560E-18
(PID.TID 0000.0001) %MON surfExpan_salt_mean          =  -8.7415275550414E-19
(PID.TID 0000.0001) // =======================================================
(PID.TID 0000.0001) // End MONITOR dynamic field statistics
(PID.TID 0000.0001) // =======================================================
 cg2d: Sum(rhs),rhsMax =   3.99680288865056E-15  9.06060006108022E-08
(PID.TID 0000.0001)      cg2d_init_res =   8.39722110020601E-01
(PID.TID 0000.0001)      cg2d_iters(min,last) =      -1     208
(PID.TID 0000.0001)      cg2d_last_res =   8.31756314634481E-14
(PID.TID 0000.0001) // =======================================================
(PID.TID 0000.0001) // Begin MONITOR dynamic field statistics
(PID.TID 0000.0001) // =======================================================
(PID.TID 0000.0001) %MON time_tsnumber                =                    13
(PID.TID 0000.0001) %MON time_secondsf                =   2.3400000000000E+04
(PID.TID 0000.0001) %MON dynstat_eta_max              =   2.9822229560484E-08
(PID.TID 0000.0001) %MON dynstat_eta_min              =  -6.7179587923264E-08
(PID.TID 0000.0001) %MON dynstat_eta_mean             =   4.4191007284739E-24
(PID.TID 0000.0001) %MON dynstat_eta_sd               =   1.4354449536489E-08
(PID.TID 0000.0001) %MON dynstat_eta_del2             =   1.0281091277932E-10
(PID.TID 0000.0001) %MON dynstat_uvel_max             =   1.3719015374039E-07
(PID.TID 0000.0001) %MON dynstat_uvel_min             =  -2.8989547516255E-07
(PID.TID 0000.0001) %MON dynstat_uvel_mean            =  -2.8890584028328E-12
(PID.TID 0000.0001) %MON dynstat_uvel_sd              =   1.6237936900253E-08
(PID.TID 0000.0001) %MON dynstat_uvel_del2            =   4.5719389903722E-11
(PID.TID 0000.0001) %MON dynstat_vvel_max             =   2.1817349451855E-07
(PID.TID 0000.0001) %MON dynstat_vvel_min             =  -1.6208724179242E-07
(PID.TID 0000.0001) %MON dynstat_vvel_mean            =  -1.3651656689363E-10
(PID.TID 0000.0001) %MON dynstat_vvel_sd              =   7.9626805079041E-09
(PID.TID 0000.0001) %MON dynstat_vvel_del2            =   3.1355984007291E-11
(PID.TID 0000.0001) %MON dynstat_wvel_max             =   9.0849828198905E-10
(PID.TID 0000.0001) %MON dynstat_wvel_min             =  -1.1027963604027E-09
(PID.TID 0000.0001) %MON dynstat_wvel_mean            =  -4.2428963975374E-14
(PID.TID 0000.0001) %MON dynstat_wvel_sd              =   3.5414953149537E-11
(PID.TID 0000.0001) %MON dynstat_wvel_del2            =   2.5267228830762E-13
(PID.TID 0000.0001) %MON dynstat_theta_max            =  -1.9000000000000E+00
(PID.TID 0000.0001) %MON dynstat_theta_min            =  -1.9000240482510E+00
(PID.TID 0000.0001) %MON dynstat_theta_mean           =  -1.9000000925926E+00
(PID.TID 0000.0001) %MON dynstat_theta_sd             =   9.7443452107810E-07
(PID.TID 0000.0001) %MON dynstat_theta_del2           =   2.1957943717818E-09
(PID.TID 0000.0001) %MON dynstat_salt_max             =   3.4400000000000E+01
(PID.TID 0000.0001) %MON dynstat_salt_min             =   3.4399991125823E+01
(PID.TID 0000.0001) %MON dynstat_salt_mean            =   3.4399999965825E+01
(PID.TID 0000.0001) %MON dynstat_salt_sd              =   3.5964197038146E-07
(PID.TID 0000.0001) %MON dynstat_salt_del2            =   8.1034378755894E-10
(PID.TID 0000.0001) %MON trAdv_CFL_u_max              =   7.5117690157117E-08
(PID.TID 0000.0001) %MON trAdv_CFL_v_max              =   3.5529138303281E-08
(PID.TID 0000.0001) %MON trAdv_CFL_w_max              =   6.1565208178202E-08
(PID.TID 0000.0001) %MON advcfl_uvel_max              =   8.6256673290273E-08
(PID.TID 0000.0001) %MON advcfl_vvel_max              =   3.5323009085652E-08
(PID.TID 0000.0001) %MON advcfl_wvel_max              =   6.6167781624164E-08
(PID.TID 0000.0001) %MON advcfl_W_hf_max              =   9.3023269262988E-08
(PID.TID 0000.0001) %MON pe_b_mean                    =  -1.2559503631497E-11
(PID.TID 0000.0001) %MON ke_max                       =   4.6885778445997E-14
(PID.TID 0000.0001) %MON ke_mean                      =   1.6048341290054E-16
(PID.TID 0000.0001) %MON ke_vol                       =   2.9241705273105E+14
(PID.TID 0000.0001) %MON vort_r_min                   =  -3.6052721494602E-11
(PID.TID 0000.0001) %MON vort_r_max                   =   3.5186723231743E-11
(PID.TID 0000.0001) %MON vort_a_mean                  =  -1.4007437277904E-04
(PID.TID 0000.0001) %MON vort_a_sd                    =   1.7682771457226E-06
(PID.TID 0000.0001) %MON vort_p_mean                  =  -1.5039772194943E-04
(PID.TID 0000.0001) %MON vort_p_sd                    =   8.7081210461377E-05
(PID.TID 0000.0001) %MON surfExpan_theta_mean         =  -2.0382401799243E-18
(PID.TID 0000.0001) %MON surfExpan_salt_mean          =  -7.5235015051986E-19
(PID.TID 0000.0001) // =======================================================
(PID.TID 0000.0001) // End MONITOR dynamic field statistics
(PID.TID 0000.0001) // =======================================================
 cg2d: Sum(rhs),rhsMax =  -5.77315972805081E-15  9.77658080482925E-08
(PID.TID 0000.0001)      cg2d_init_res =   7.75447292276379E-01
(PID.TID 0000.0001)      cg2d_iters(min,last) =      -1     208
(PID.TID 0000.0001)      cg2d_last_res =   8.14191351260465E-14
(PID.TID 0000.0001) // =======================================================
(PID.TID 0000.0001) // Begin MONITOR dynamic field statistics
(PID.TID 0000.0001) // =======================================================
(PID.TID 0000.0001) %MON time_tsnumber                =                    14
(PID.TID 0000.0001) %MON time_secondsf                =   2.5200000000000E+04
(PID.TID 0000.0001) %MON dynstat_eta_max              =   3.1127060113247E-08
(PID.TID 0000.0001) %MON dynstat_eta_min              =  -7.2545424576892E-08
(PID.TID 0000.0001) %MON dynstat_eta_mean             =   5.1989420334987E-25
(PID.TID 0000.0001) %MON dynstat_eta_sd               =   1.5119773587182E-08
(PID.TID 0000.0001) %MON dynstat_eta_del2             =   1.1080708080341E-10
(PID.TID 0000.0001) %MON dynstat_uvel_max             =   1.5432136064394E-07
(PID.TID 0000.0001) %MON dynstat_uvel_min             =  -3.2592605423791E-07
(PID.TID 0000.0001) %MON dynstat_uvel_mean            =   8.5354574495829E-13
(PID.TID 0000.0001) %MON dynstat_uvel_sd              =   1.8259175386890E-08
(PID.TID 0000.0001) %MON dynstat_uvel_del2            =   5.1402501029562E-11
(PID.TID 0000.0001) %MON dynstat_vvel_max             =   2.1408871962886E-07
(PID.TID 0000.0001) %MON dynstat_vvel_min             =  -1.5816108415699E-07
(PID.TID 0000.0001) %MON dynstat_vvel_mean            =  -9.3052516673399E-11
(PID.TID 0000.0001) %MON dynstat_vvel_sd              =   7.6954656179727E-09
(PID.TID 0000.0001) %MON dynstat_vvel_del2            =   3.0417535667055E-11
(PID.TID 0000.0001) %MON dynstat_wvel_max             =   1.0038546138576E-09
(PID.TID 0000.0001) %MON dynstat_wvel_min             =  -1.2205802796374E-09
(PID.TID 0000.0001) %MON dynstat_wvel_mean            =  -2.7547356037871E-14
(PID.TID 0000.0001) %MON dynstat_wvel_sd              =   3.8058935901974E-11
(PID.TID 0000.0001) %MON dynstat_wvel_del2            =   2.5181251717085E-13
(PID.TID 0000.0001) %MON dynstat_theta_max            =  -1.9000000000000E+00
(PID.TID 0000.0001) %MON dynstat_theta_min            =  -1.9000258861588E+00
(PID.TID 0000.0001) %MON dynstat_theta_mean           =  -1.9000000997150E+00
(PID.TID 0000.0001) %MON dynstat_theta_sd             =   1.0490030055529E-06
(PID.TID 0000.0001) %MON dynstat_theta_del2           =   2.3612870074183E-09
(PID.TID 0000.0001) %MON dynstat_salt_max             =   3.4400000000000E+01
(PID.TID 0000.0001) %MON dynstat_salt_min             =   3.4399990447606E+01
(PID.TID 0000.0001) %MON dynstat_salt_mean            =   3.4399999963196E+01
(PID.TID 0000.0001) %MON dynstat_salt_sd              =   3.8716353100364E-07
(PID.TID 0000.0001) %MON dynstat_salt_del2            =   8.7141777295044E-10
(PID.TID 0000.0001) %MON trAdv_CFL_u_max              =   8.6256684238313E-08
(PID.TID 0000.0001) %MON trAdv_CFL_v_max              =   3.5491782523881E-08
(PID.TID 0000.0001) %MON trAdv_CFL_w_max              =   7.0195680218798E-08
(PID.TID 0000.0001) %MON advcfl_uvel_max              =   9.6977357654251E-08
(PID.TID 0000.0001) %MON advcfl_vvel_max              =   3.4661670544691E-08
(PID.TID 0000.0001) %MON advcfl_wvel_max              =   7.3234816778247E-08
(PID.TID 0000.0001) %MON advcfl_W_hf_max              =   9.9492626728035E-08
(PID.TID 0000.0001) %MON pe_b_mean                    =  -1.3103230382579E-11
(PID.TID 0000.0001) %MON ke_max                       =   5.7659280280860E-14
(PID.TID 0000.0001) %MON ke_mean                      =   1.9256298211291E-16
(PID.TID 0000.0001) %MON ke_vol                       =   2.9241705273105E+14
(PID.TID 0000.0001) %MON vort_r_min                   =  -3.5557606282929E-11
(PID.TID 0000.0001) %MON vort_r_max                   =   3.4263982810162E-11
(PID.TID 0000.0001) %MON vort_a_mean                  =  -1.4007437277905E-04
(PID.TID 0000.0001) %MON vort_a_sd                    =   1.7682771455102E-06
(PID.TID 0000.0001) %MON vort_p_mean                  =  -1.5039772194944E-04
(PID.TID 0000.0001) %MON vort_p_sd                    =   8.7081210030144E-05
(PID.TID 0000.0001) %MON surfExpan_theta_mean         =  -1.7208719021214E-18
(PID.TID 0000.0001) %MON surfExpan_salt_mean          =  -6.3521831659543E-19
(PID.TID 0000.0001) // =======================================================
(PID.TID 0000.0001) // End MONITOR dynamic field statistics
(PID.TID 0000.0001) // =======================================================
 cg2d: Sum(rhs),rhsMax =  -1.15463194561016E-14  1.04858705414779E-07
(PID.TID 0000.0001)      cg2d_init_res =   7.20488461385154E-01
(PID.TID 0000.0001)      cg2d_iters(min,last) =      -1     199
(PID.TID 0000.0001)      cg2d_last_res =   8.45776664818605E-14
(PID.TID 0000.0001) // =======================================================
(PID.TID 0000.0001) // Begin MONITOR dynamic field statistics
(PID.TID 0000.0001) // =======================================================
(PID.TID 0000.0001) %MON time_tsnumber                =                    15
(PID.TID 0000.0001) %MON time_secondsf                =   2.7000000000000E+04
(PID.TID 0000.0001) %MON dynstat_eta_max              =   3.2109064323332E-08
(PID.TID 0000.0001) %MON dynstat_eta_min              =  -7.8297442014953E-08
(PID.TID 0000.0001) %MON dynstat_eta_mean             =   1.5596826100496E-24
(PID.TID 0000.0001) %MON dynstat_eta_sd               =   1.5801184241824E-08
(PID.TID 0000.0001) %MON dynstat_eta_del2             =   1.1877741179765E-10
(PID.TID 0000.0001) %MON dynstat_uvel_max             =   1.7126137155133E-07
(PID.TID 0000.0001) %MON dynstat_uvel_min             =  -3.5976689259235E-07
(PID.TID 0000.0001) %MON dynstat_uvel_mean            =   5.6213521236807E-12
(PID.TID 0000.0001) %MON dynstat_uvel_sd              =   2.0152127394987E-08
(PID.TID 0000.0001) %MON dynstat_uvel_del2            =   5.6794196181246E-11
(PID.TID 0000.0001) %MON dynstat_vvel_max             =   2.0723462712506E-07
(PID.TID 0000.0001) %MON dynstat_vvel_min             =  -1.5137232549882E-07
(PID.TID 0000.0001) %MON dynstat_vvel_mean            =  -6.1626726252516E-11
(PID.TID 0000.0001) %MON dynstat_vvel_sd              =   7.2566821330391E-09
(PID.TID 0000.0001) %MON dynstat_vvel_del2            =   2.8921551328663E-11
(PID.TID 0000.0001) %MON dynstat_wvel_max             =   1.0909297857795E-09
(PID.TID 0000.0001) %MON dynstat_wvel_min             =  -1.3292082630031E-09
(PID.TID 0000.0001) %MON dynstat_wvel_mean            =  -1.7318184722944E-14
(PID.TID 0000.0001) %MON dynstat_wvel_sd              =   4.0490788579287E-11
(PID.TID 0000.0001) %MON dynstat_wvel_del2            =   2.4798350816101E-13
(PID.TID 0000.0001) %MON dynstat_theta_max            =  -1.9000000000000E+00
(PID.TID 0000.0001) %MON dynstat_theta_min            =  -1.9000277223809E+00
(PID.TID 0000.0001) %MON dynstat_theta_mean           =  -1.9000001068373E+00
(PID.TID 0000.0001) %MON dynstat_theta_sd             =   1.1235170202514E-06
(PID.TID 0000.0001) %MON dynstat_theta_del2           =   2.5263049264921E-09
(PID.TID 0000.0001) %MON dynstat_salt_max             =   3.4400000000000E+01
(PID.TID 0000.0001) %MON dynstat_salt_min             =   3.4399989770012E+01
(PID.TID 0000.0001) %MON dynstat_salt_mean            =   3.4399999960567E+01
(PID.TID 0000.0001) %MON dynstat_salt_sd              =   4.1466498834423E-07
(PID.TID 0000.0001) %MON dynstat_salt_del2            =   9.3231656675212E-10
(PID.TID 0000.0001) %MON trAdv_CFL_u_max              =   9.6977369963002E-08
(PID.TID 0000.0001) %MON trAdv_CFL_v_max              =   3.4827284105484E-08
(PID.TID 0000.0001) %MON trAdv_CFL_w_max              =   8.0251566964319E-08
(PID.TID 0000.0001) %MON advcfl_uvel_max              =   1.0704649769920E-07
(PID.TID 0000.0001) %MON advcfl_vvel_max              =   3.3551970338806E-08
(PID.TID 0000.0001) %MON advcfl_wvel_max              =   7.9752495780184E-08
(PID.TID 0000.0001) %MON advcfl_W_hf_max              =   1.0711363860929E-07
(PID.TID 0000.0001) %MON pe_b_mean                    =  -1.3546386186343E-11
(PID.TID 0000.0001) %MON ke_max                       =   6.8760816997371E-14
(PID.TID 0000.0001) %MON ke_mean                      =   2.2493222107855E-16
(PID.TID 0000.0001) %MON ke_vol                       =   2.9241705273105E+14
(PID.TID 0000.0001) %MON vort_r_min                   =  -3.4419222518013E-11
(PID.TID 0000.0001) %MON vort_r_max                   =   3.2725222616076E-11
(PID.TID 0000.0001) %MON vort_a_mean                  =  -1.4007437277907E-04
(PID.TID 0000.0001) %MON vort_a_sd                    =   1.7682771449301E-06
(PID.TID 0000.0001) %MON vort_p_mean                  =  -1.5039772194946E-04
(PID.TID 0000.0001) %MON vort_p_sd                    =   8.7081209622798E-05
(PID.TID 0000.0001) %MON surfExpan_theta_mean         =  -1.4850608800041E-18
(PID.TID 0000.0001) %MON surfExpan_salt_mean          =  -5.4818657427176E-19
(PID.TID 0000.0001) // =======================================================
(PID.TID 0000.0001) // End MONITOR dynamic field statistics
(PID.TID 0000.0001) // =======================================================
 cg2d: Sum(rhs),rhsMax =   6.21724893790088E-15  1.11877124413315E-07
(PID.TID 0000.0001)      cg2d_init_res =   6.73070378927194E-01
(PID.TID 0000.0001)      cg2d_iters(min,last) =      -1     206
(PID.TID 0000.0001)      cg2d_last_res =   8.82707878603702E-14
(PID.TID 0000.0001) // =======================================================
(PID.TID 0000.0001) // Begin MONITOR dynamic field statistics
(PID.TID 0000.0001) // =======================================================
(PID.TID 0000.0001) %MON time_tsnumber                =                    16
(PID.TID 0000.0001) %MON time_secondsf                =   2.8800000000000E+04
(PID.TID 0000.0001) %MON dynstat_eta_max              =   3.2859704014452E-08
(PID.TID 0000.0001) %MON dynstat_eta_min              =  -8.4900835318100E-08
(PID.TID 0000.0001) %MON dynstat_eta_mean             =  -1.8196297117246E-24
(PID.TID 0000.0001) %MON dynstat_eta_sd               =   1.6438368715528E-08
(PID.TID 0000.0001) %MON dynstat_eta_del2             =   1.2672304603549E-10
(PID.TID 0000.0001) %MON dynstat_uvel_max             =   1.8724073950098E-07
(PID.TID 0000.0001) %MON dynstat_uvel_min             =  -3.9083222722427E-07
(PID.TID 0000.0001) %MON dynstat_uvel_mean            =   1.0915240521640E-11
(PID.TID 0000.0001) %MON dynstat_uvel_sd              =   2.1880960769294E-08
(PID.TID 0000.0001) %MON dynstat_uvel_del2            =   6.1812936835688E-11
(PID.TID 0000.0001) %MON dynstat_vvel_max             =   1.9736444339825E-07
(PID.TID 0000.0001) %MON dynstat_vvel_min             =  -1.4316562288669E-07
(PID.TID 0000.0001) %MON dynstat_vvel_mean            =  -4.4542446731406E-11
(PID.TID 0000.0001) %MON dynstat_vvel_sd              =   6.6872268933106E-09
(PID.TID 0000.0001) %MON dynstat_vvel_del2            =   2.7020104704731E-11
(PID.TID 0000.0001) %MON dynstat_wvel_max             =   1.2041093988898E-09
(PID.TID 0000.0001) %MON dynstat_wvel_min             =  -1.4274438004941E-09
(PID.TID 0000.0001) %MON dynstat_wvel_mean            =  -1.2525192405054E-14
(PID.TID 0000.0001) %MON dynstat_wvel_sd              =   4.2712403711223E-11
(PID.TID 0000.0001) %MON dynstat_wvel_del2            =   2.4241268048598E-13
(PID.TID 0000.0001) %MON dynstat_theta_max            =  -1.9000000000000E+00
(PID.TID 0000.0001) %MON dynstat_theta_min            =  -1.9000295569196E+00
(PID.TID 0000.0001) %MON dynstat_theta_mean           =  -1.9000001139597E+00
(PID.TID 0000.0001) %MON dynstat_theta_sd             =   1.1979766816115E-06
(PID.TID 0000.0001) %MON dynstat_theta_del2           =   2.6908500426549E-09
(PID.TID 0000.0001) %MON dynstat_salt_max             =   3.4400000000000E+01
(PID.TID 0000.0001) %MON dynstat_salt_min             =   3.4399989093039E+01
(PID.TID 0000.0001) %MON dynstat_salt_mean            =   3.4399999957939E+01
(PID.TID 0000.0001) %MON dynstat_salt_sd              =   4.4214638540439E-07
(PID.TID 0000.0001) %MON dynstat_salt_del2            =   9.9304087484559E-10
(PID.TID 0000.0001) %MON trAdv_CFL_u_max              =   1.0704651128596E-07
(PID.TID 0000.0001) %MON trAdv_CFL_v_max              =   3.3712281748848E-08
(PID.TID 0000.0001) %MON trAdv_CFL_w_max              =   8.9990229768541E-08
(PID.TID 0000.0001) %MON advcfl_uvel_max              =   1.1628980313022E-07
(PID.TID 0000.0001) %MON advcfl_vvel_max              =   3.1953955005971E-08
(PID.TID 0000.0001) %MON advcfl_wvel_max              =   8.5646628029645E-08
(PID.TID 0000.0001) %MON advcfl_W_hf_max              =   1.1538694111955E-07
(PID.TID 0000.0001) %MON pe_b_mean                    =  -1.3935982657655E-11
(PID.TID 0000.0001) %MON ke_max                       =   7.9813409171447E-14
(PID.TID 0000.0001) %MON ke_mean                      =   2.5660042653586E-16
(PID.TID 0000.0001) %MON ke_vol                       =   2.9241705273105E+14
(PID.TID 0000.0001) %MON vort_r_min                   =  -3.2779901644376E-11
(PID.TID 0000.0001) %MON vort_r_max                   =   3.0737964530771E-11
(PID.TID 0000.0001) %MON vort_a_mean                  =  -1.4007437277909E-04
(PID.TID 0000.0001) %MON vort_a_sd                    =   1.7682771444923E-06
(PID.TID 0000.0001) %MON vort_p_mean                  =  -1.5039772194948E-04
(PID.TID 0000.0001) %MON vort_p_sd                    =   8.7081209246130E-05
(PID.TID 0000.0001) %MON surfExpan_theta_mean         =  -1.3891710456900E-18
(PID.TID 0000.0001) %MON surfExpan_salt_mean          =  -5.1279602925029E-19
(PID.TID 0000.0001) // =======================================================
(PID.TID 0000.0001) // End MONITOR dynamic field statistics
(PID.TID 0000.0001) // =======================================================
 cg2d: Sum(rhs),rhsMax =  -6.66133814775094E-15  1.18816914165339E-07
(PID.TID 0000.0001)      cg2d_init_res =   6.31892828057399E-01
(PID.TID 0000.0001)      cg2d_iters(min,last) =      -1     203
(PID.TID 0000.0001)      cg2d_last_res =   8.53833098268853E-14
(PID.TID 0000.0001) // =======================================================
(PID.TID 0000.0001) // Begin MONITOR dynamic field statistics
(PID.TID 0000.0001) // =======================================================
(PID.TID 0000.0001) %MON time_tsnumber                =                    17
(PID.TID 0000.0001) %MON time_secondsf                =   3.0600000000000E+04
(PID.TID 0000.0001) %MON dynstat_eta_max              =   3.3560413361653E-08
(PID.TID 0000.0001) %MON dynstat_eta_min              =  -9.1753541699316E-08
(PID.TID 0000.0001) %MON dynstat_eta_mean             =   2.8594181184243E-24
(PID.TID 0000.0001) %MON dynstat_eta_sd               =   1.7069925316002E-08
(PID.TID 0000.0001) %MON dynstat_eta_del2             =   1.3464540558201E-10
(PID.TID 0000.0001) %MON dynstat_uvel_max             =   2.0263991506482E-07
(PID.TID 0000.0001) %MON dynstat_uvel_min             =  -4.1875169519582E-07
(PID.TID 0000.0001) %MON dynstat_uvel_mean            =   1.6256882005074E-11
(PID.TID 0000.0001) %MON dynstat_uvel_sd              =   2.3422552199231E-08
(PID.TID 0000.0001) %MON dynstat_uvel_del2            =   6.6408466938229E-11
(PID.TID 0000.0001) %MON dynstat_vvel_max             =   1.8544805435320E-07
(PID.TID 0000.0001) %MON dynstat_vvel_min             =  -1.3443072758609E-07
(PID.TID 0000.0001) %MON dynstat_vvel_mean            =  -4.2247319071133E-11
(PID.TID 0000.0001) %MON dynstat_vvel_sd              =   6.0347600393614E-09
(PID.TID 0000.0001) %MON dynstat_vvel_del2            =   2.4878194957441E-11
(PID.TID 0000.0001) %MON dynstat_wvel_max             =   1.3086681955485E-09
(PID.TID 0000.0001) %MON dynstat_wvel_min             =  -1.5148042467331E-09
(PID.TID 0000.0001) %MON dynstat_wvel_mean            =  -1.3279650105256E-14
(PID.TID 0000.0001) %MON dynstat_wvel_sd              =   4.4728691459367E-11
(PID.TID 0000.0001) %MON dynstat_wvel_del2            =   2.3634263992197E-13
(PID.TID 0000.0001) %MON dynstat_theta_max            =  -1.9000000000000E+00
(PID.TID 0000.0001) %MON dynstat_theta_min            =  -1.9000313897770E+00
(PID.TID 0000.0001) %MON dynstat_theta_mean           =  -1.9000001210820E+00
(PID.TID 0000.0001) %MON dynstat_theta_sd             =   1.2723821056661E-06
(PID.TID 0000.0001) %MON dynstat_theta_del2           =   2.8549242599760E-09
(PID.TID 0000.0001) %MON dynstat_salt_max             =   3.4400000000000E+01
(PID.TID 0000.0001) %MON dynstat_salt_min             =   3.4399988416686E+01
(PID.TID 0000.0001) %MON dynstat_salt_mean            =   3.4399999955310E+01
(PID.TID 0000.0001) %MON dynstat_salt_sd              =   4.6960776495771E-07
(PID.TID 0000.0001) %MON dynstat_salt_del2            =   1.0535913998719E-09
(PID.TID 0000.0001) %MON trAdv_CFL_u_max              =   1.1628981789018E-07
(PID.TID 0000.0001) %MON trAdv_CFL_v_max              =   3.2106631094192E-08
(PID.TID 0000.0001) %MON trAdv_CFL_w_max              =   9.9230035325218E-08
(PID.TID 0000.0001) %MON advcfl_uvel_max              =   1.2459707465941E-07
(PID.TID 0000.0001) %MON advcfl_vvel_max              =   3.0024652276344E-08
(PID.TID 0000.0001) %MON advcfl_wvel_max              =   9.0888254803983E-08
(PID.TID 0000.0001) %MON advcfl_W_hf_max              =   1.2279955422182E-07
(PID.TID 0000.0001) %MON pe_b_mean                    =  -1.4320500647577E-11
(PID.TID 0000.0001) %MON ke_max                       =   9.0481385844101E-14
(PID.TID 0000.0001) %MON ke_mean                      =   2.8670596937976E-16
(PID.TID 0000.0001) %MON ke_vol                       =   2.9241705273105E+14
(PID.TID 0000.0001) %MON vort_r_min                   =  -3.0800730248924E-11
(PID.TID 0000.0001) %MON vort_r_max                   =   2.8484815680455E-11
(PID.TID 0000.0001) %MON vort_a_mean                  =  -1.4007437277911E-04
(PID.TID 0000.0001) %MON vort_a_sd                    =   1.7682771440657E-06
(PID.TID 0000.0001) %MON vort_p_mean                  =  -1.5039772194950E-04
(PID.TID 0000.0001) %MON vort_p_sd                    =   8.7081208904517E-05
(PID.TID 0000.0001) %MON surfExpan_theta_mean         =  -1.4734984058684E-18
(PID.TID 0000.0001) %MON surfExpan_salt_mean          =  -5.4391925822113E-19
(PID.TID 0000.0001) // =======================================================
(PID.TID 0000.0001) // End MONITOR dynamic field statistics
(PID.TID 0000.0001) // =======================================================
 cg2d: Sum(rhs),rhsMax =  -8.21565038222616E-15  1.25677594790382E-07
(PID.TID 0000.0001)      cg2d_init_res =   5.95831305409469E-01
(PID.TID 0000.0001)      cg2d_iters(min,last) =      -1     202
(PID.TID 0000.0001)      cg2d_last_res =   8.57797783313982E-14
(PID.TID 0000.0001) // =======================================================
(PID.TID 0000.0001) // Begin MONITOR dynamic field statistics
(PID.TID 0000.0001) // =======================================================
(PID.TID 0000.0001) %MON time_tsnumber                =                    18
(PID.TID 0000.0001) %MON time_secondsf                =   3.2400000000000E+04
(PID.TID 0000.0001) %MON dynstat_eta_max              =   3.4337762883640E-08
(PID.TID 0000.0001) %MON dynstat_eta_min              =  -9.8328388115200E-08
(PID.TID 0000.0001) %MON dynstat_eta_mean             =  -5.7188362368486E-24
(PID.TID 0000.0001) %MON dynstat_eta_sd               =   1.7729439526628E-08
(PID.TID 0000.0001) %MON dynstat_eta_del2             =   1.4254619124860E-10
(PID.TID 0000.0001) %MON dynstat_uvel_max             =   2.1669685875228E-07
(PID.TID 0000.0001) %MON dynstat_uvel_min             =  -4.4338615776100E-07
(PID.TID 0000.0001) %MON dynstat_uvel_mean            =   2.1198113742120E-11
(PID.TID 0000.0001) %MON dynstat_uvel_sd              =   2.4767289289108E-08
(PID.TID 0000.0001) %MON dynstat_uvel_del2            =   7.0562387709922E-11
(PID.TID 0000.0001) %MON dynstat_vvel_max             =   1.7249846129655E-07
(PID.TID 0000.0001) %MON dynstat_vvel_min             =  -1.2525331080955E-07
(PID.TID 0000.0001) %MON dynstat_vvel_mean            =  -5.3557934523810E-11
(PID.TID 0000.0001) %MON dynstat_vvel_sd              =   5.3502685742789E-09
(PID.TID 0000.0001) %MON dynstat_vvel_del2            =   2.2661756906772E-11
(PID.TID 0000.0001) %MON dynstat_wvel_max             =   1.4031940913875E-09
(PID.TID 0000.0001) %MON dynstat_wvel_min             =  -1.5915339996120E-09
(PID.TID 0000.0001) %MON dynstat_wvel_mean            =  -1.9087876679731E-14
(PID.TID 0000.0001) %MON dynstat_wvel_sd              =   4.6547941596951E-11
(PID.TID 0000.0001) %MON dynstat_wvel_del2            =   2.3088283919015E-13
(PID.TID 0000.0001) %MON dynstat_theta_max            =  -1.9000000000000E+00
(PID.TID 0000.0001) %MON dynstat_theta_min            =  -1.9000332209553E+00
(PID.TID 0000.0001) %MON dynstat_theta_mean           =  -1.9000001282043E+00
(PID.TID 0000.0001) %MON dynstat_theta_sd             =   1.3467334080434E-06
(PID.TID 0000.0001) %MON dynstat_theta_del2           =   3.0185294729526E-09
(PID.TID 0000.0001) %MON dynstat_salt_max             =   3.4400000000000E+01
(PID.TID 0000.0001) %MON dynstat_salt_min             =   3.4399987740953E+01
(PID.TID 0000.0001) %MON dynstat_salt_mean            =   3.4399999952681E+01
(PID.TID 0000.0001) %MON dynstat_salt_sd              =   4.9704916967810E-07
(PID.TID 0000.0001) %MON dynstat_salt_del2            =   1.1139688406298E-09
(PID.TID 0000.0001) %MON trAdv_CFL_u_max              =   1.2459709047377E-07
(PID.TID 0000.0001) %MON trAdv_CFL_v_max              =   3.0168110150617E-08
(PID.TID 0000.0001) %MON trAdv_CFL_w_max              =   1.0783399844917E-07
(PID.TID 0000.0001) %MON advcfl_uvel_max              =   1.3192691238101E-07
(PID.TID 0000.0001) %MON advcfl_vvel_max              =   2.7928070406009E-08
(PID.TID 0000.0001) %MON advcfl_wvel_max              =   9.5492039976718E-08
(PID.TID 0000.0001) %MON advcfl_W_hf_max              =   1.2937158245508E-07
(PID.TID 0000.0001) %MON pe_b_mean                    =  -1.4744614178621E-11
(PID.TID 0000.0001) %MON ke_max                       =   1.0050436837569E-13
(PID.TID 0000.0001) %MON ke_mean                      =   3.1459601677144E-16
(PID.TID 0000.0001) %MON ke_vol                       =   2.9241705273105E+14
(PID.TID 0000.0001) %MON vort_r_min                   =  -2.8649955877297E-11
(PID.TID 0000.0001) %MON vort_r_max                   =   2.8699434856154E-11
(PID.TID 0000.0001) %MON vort_a_mean                  =  -1.4007437277912E-04
(PID.TID 0000.0001) %MON vort_a_sd                    =   1.7682771437195E-06
(PID.TID 0000.0001) %MON vort_p_mean                  =  -1.5039772194951E-04
(PID.TID 0000.0001) %MON vort_p_sd                    =   8.7081208599842E-05
(PID.TID 0000.0001) %MON surfExpan_theta_mean         =  -1.7559230727238E-18
(PID.TID 0000.0001) %MON surfExpan_salt_mean          =  -6.4815567048894E-19
(PID.TID 0000.0001) // =======================================================
(PID.TID 0000.0001) // End MONITOR dynamic field statistics
(PID.TID 0000.0001) // =======================================================
 cg2d: Sum(rhs),rhsMax =   2.22044604925031E-16  1.32462294759073E-07
(PID.TID 0000.0001)      cg2d_init_res =   5.64071156509198E-01
(PID.TID 0000.0001)      cg2d_iters(min,last) =      -1     204
(PID.TID 0000.0001)      cg2d_last_res =   8.97662553392707E-14
(PID.TID 0000.0001) // =======================================================
(PID.TID 0000.0001) // Begin MONITOR dynamic field statistics
(PID.TID 0000.0001) // =======================================================
(PID.TID 0000.0001) %MON time_tsnumber                =                    19
(PID.TID 0000.0001) %MON time_secondsf                =   3.4200000000000E+04
(PID.TID 0000.0001) %MON dynstat_eta_max              =   3.5133747210847E-08
(PID.TID 0000.0001) %MON dynstat_eta_min              =  -1.0444821765280E-07
(PID.TID 0000.0001) %MON dynstat_eta_mean             =  -1.0397884066997E-24
(PID.TID 0000.0001) %MON dynstat_eta_sd               =   1.8443442447845E-08
(PID.TID 0000.0001) %MON dynstat_eta_del2             =   1.5042712139172E-10
(PID.TID 0000.0001) %MON dynstat_uvel_max             =   2.2935602134469E-07
(PID.TID 0000.0001) %MON dynstat_uvel_min             =  -4.6482079032839E-07
(PID.TID 0000.0001) %MON dynstat_uvel_mean            =   2.5350228942671E-11
(PID.TID 0000.0001) %MON dynstat_uvel_sd              =   2.5918946538107E-08
(PID.TID 0000.0001) %MON dynstat_uvel_del2            =   7.4286579858549E-11
(PID.TID 0000.0001) %MON dynstat_vvel_max             =   1.5950509017856E-07
(PID.TID 0000.0001) %MON dynstat_vvel_min             =  -1.1633980254678E-07
(PID.TID 0000.0001) %MON dynstat_vvel_mean            =  -7.6042028278790E-11
(PID.TID 0000.0001) %MON dynstat_vvel_sd              =   4.6844094075379E-09
(PID.TID 0000.0001) %MON dynstat_vvel_del2            =   2.0526022302737E-11
(PID.TID 0000.0001) %MON dynstat_wvel_max             =   1.4873241691803E-09
(PID.TID 0000.0001) %MON dynstat_wvel_min             =  -1.6585329843932E-09
(PID.TID 0000.0001) %MON dynstat_wvel_mean            =  -2.8981097057883E-14
(PID.TID 0000.0001) %MON dynstat_wvel_sd              =   4.8183236656815E-11
(PID.TID 0000.0001) %MON dynstat_wvel_del2            =   2.2687535963428E-13
(PID.TID 0000.0001) %MON dynstat_theta_max            =  -1.9000000000000E+00
(PID.TID 0000.0001) %MON dynstat_theta_min            =  -1.9000350504567E+00
(PID.TID 0000.0001) %MON dynstat_theta_mean           =  -1.9000001353266E+00
(PID.TID 0000.0001) %MON dynstat_theta_sd             =   1.4210307039708E-06
(PID.TID 0000.0001) %MON dynstat_theta_del2           =   3.1816675665524E-09
(PID.TID 0000.0001) %MON dynstat_salt_max             =   3.4400000000000E+01
(PID.TID 0000.0001) %MON dynstat_salt_min             =   3.4399987065839E+01
(PID.TID 0000.0001) %MON dynstat_salt_mean            =   3.4399999950052E+01
(PID.TID 0000.0001) %MON dynstat_salt_sd              =   5.2447064211583E-07
(PID.TID 0000.0001) %MON dynstat_salt_del2            =   1.1741738934859E-09
(PID.TID 0000.0001) %MON trAdv_CFL_u_max              =   1.3192692912569E-07
(PID.TID 0000.0001) %MON trAdv_CFL_v_max              =   2.8061510806121E-08
(PID.TID 0000.0001) %MON trAdv_CFL_w_max              =   1.1571458121824E-07
(PID.TID 0000.0001) %MON advcfl_uvel_max              =   1.3830465973090E-07
(PID.TID 0000.0001) %MON advcfl_vvel_max              =   2.5824400723003E-08
(PID.TID 0000.0001) %MON advcfl_wvel_max              =   9.9511979063592E-08
(PID.TID 0000.0001) %MON advcfl_W_hf_max              =   1.3517771423570E-07
(PID.TID 0000.0001) %MON pe_b_mean                    =  -1.5245118827335E-11
(PID.TID 0000.0001) %MON ke_max                       =   1.0972453770259E-13
(PID.TID 0000.0001) %MON ke_mean                      =   3.3988693454431E-16
(PID.TID 0000.0001) %MON ke_vol                       =   2.9241705273105E+14
(PID.TID 0000.0001) %MON vort_r_min                   =  -2.6491910487037E-11
(PID.TID 0000.0001) %MON vort_r_max                   =   3.0324311930134E-11
(PID.TID 0000.0001) %MON vort_a_mean                  =  -1.4007437277912E-04
(PID.TID 0000.0001) %MON vort_a_sd                    =   1.7682771440367E-06
(PID.TID 0000.0001) %MON vort_p_mean                  =  -1.5039772194951E-04
(PID.TID 0000.0001) %MON vort_p_sd                    =   8.7081208331539E-05
(PID.TID 0000.0001) %MON surfExpan_theta_mean         =  -2.2310032450930E-18
(PID.TID 0000.0001) %MON surfExpan_salt_mean          =  -8.2349711347070E-19
(PID.TID 0000.0001) // =======================================================
(PID.TID 0000.0001) // End MONITOR dynamic field statistics
(PID.TID 0000.0001) // =======================================================
 cg2d: Sum(rhs),rhsMax =  -1.77635683940025E-15  1.39177738792165E-07
(PID.TID 0000.0001)      cg2d_init_res =   5.35884777389603E-01
(PID.TID 0000.0001)      cg2d_iters(min,last) =      -1     204
(PID.TID 0000.0001)      cg2d_last_res =   9.90171830793569E-14
(PID.TID 0000.0001) // =======================================================
(PID.TID 0000.0001) // Begin MONITOR dynamic field statistics
(PID.TID 0000.0001) // =======================================================
(PID.TID 0000.0001) %MON time_tsnumber                =                    20
(PID.TID 0000.0001) %MON time_secondsf                =   3.6000000000000E+04
(PID.TID 0000.0001) %MON dynstat_eta_max              =   3.6028713750824E-08
(PID.TID 0000.0001) %MON dynstat_eta_min              =  -1.1004854492231E-07
(PID.TID 0000.0001) %MON dynstat_eta_mean             =   4.6790478301489E-24
(PID.TID 0000.0001) %MON dynstat_eta_sd               =   1.9230807107990E-08
(PID.TID 0000.0001) %MON dynstat_eta_del2             =   1.5828955819682E-10
(PID.TID 0000.0001) %MON dynstat_uvel_max             =   2.4068690708753E-07
(PID.TID 0000.0001) %MON dynstat_uvel_min             =  -4.8334003914338E-07
(PID.TID 0000.0001) %MON dynstat_uvel_mean            =   2.8422564491943E-11
(PID.TID 0000.0001) %MON dynstat_uvel_sd              =   2.6893691581511E-08
(PID.TID 0000.0001) %MON dynstat_uvel_del2            =   7.7619753686663E-11
(PID.TID 0000.0001) %MON dynstat_vvel_max             =   1.4737424261426E-07
(PID.TID 0000.0001) %MON dynstat_vvel_min             =  -1.0831016296243E-07
(PID.TID 0000.0001) %MON dynstat_vvel_mean            =  -1.0647600206108E-10
(PID.TID 0000.0001) %MON dynstat_vvel_sd              =   4.0836524435333E-09
(PID.TID 0000.0001) %MON dynstat_vvel_del2            =   1.8604929251393E-11
(PID.TID 0000.0001) %MON dynstat_wvel_max             =   1.5614080847428E-09
(PID.TID 0000.0001) %MON dynstat_wvel_min             =  -1.7172507334829E-09
(PID.TID 0000.0001) %MON dynstat_wvel_mean            =  -4.1682972355872E-14
(PID.TID 0000.0001) %MON dynstat_wvel_sd              =   4.9654372270800E-11
(PID.TID 0000.0001) %MON dynstat_wvel_del2            =   2.2481412576606E-13
(PID.TID 0000.0001) %MON dynstat_theta_max            =  -1.9000000000000E+00
(PID.TID 0000.0001) %MON dynstat_theta_min            =  -1.9000368782835E+00
(PID.TID 0000.0001) %MON dynstat_theta_mean           =  -1.9000001424488E+00
(PID.TID 0000.0001) %MON dynstat_theta_sd             =   1.4952741082773E-06
(PID.TID 0000.0001) %MON dynstat_theta_del2           =   3.3443404162315E-09
(PID.TID 0000.0001) %MON dynstat_salt_max             =   3.4400000000000E+01
(PID.TID 0000.0001) %MON dynstat_salt_min             =   3.4399986391342E+01
(PID.TID 0000.0001) %MON dynstat_salt_mean            =   3.4399999947423E+01
(PID.TID 0000.0001) %MON dynstat_salt_sd              =   5.5187222468426E-07
(PID.TID 0000.0001) %MON dynstat_salt_del2            =   1.2342072512323E-09
(PID.TID 0000.0001) %MON trAdv_CFL_u_max              =   1.3830467728507E-07
(PID.TID 0000.0001) %MON trAdv_CFL_v_max              =   2.5947789783365E-08
(PID.TID 0000.0001) %MON trAdv_CFL_w_max              =   1.2283507064121E-07
(PID.TID 0000.0001) %MON advcfl_uvel_max              =   1.4381495199648E-07
(PID.TID 0000.0001) %MON advcfl_vvel_max              =   2.3860376451053E-08
(PID.TID 0000.0001) %MON advcfl_wvel_max              =   1.0303504400898E-07
(PID.TID 0000.0001) %MON advcfl_W_hf_max              =   1.4033790554063E-07
(PID.TID 0000.0001) %MON pe_b_mean                    =  -1.5848303074473E-11
(PID.TID 0000.0001) %MON ke_max                       =   1.1809654486416E-13
(PID.TID 0000.0001) %MON ke_mean                      =   3.6250112659721E-16
(PID.TID 0000.0001) %MON ke_vol                       =   2.9241705273105E+14
(PID.TID 0000.0001) %MON vort_r_min                   =  -2.4477120065957E-11
(PID.TID 0000.0001) %MON vort_r_max                   =   3.1765189613396E-11
(PID.TID 0000.0001) %MON vort_a_mean                  =  -1.4007437277913E-04
(PID.TID 0000.0001) %MON vort_a_sd                    =   1.7682771437476E-06
(PID.TID 0000.0001) %MON vort_p_mean                  =  -1.5039772194952E-04
(PID.TID 0000.0001) %MON vort_p_sd                    =   8.7081208096762E-05
(PID.TID 0000.0001) %MON surfExpan_theta_mean         =  -2.8720753877569E-18
(PID.TID 0000.0001) %MON surfExpan_salt_mean          =  -1.0601030543014E-18
(PID.TID 0000.0001) // =======================================================
(PID.TID 0000.0001) // End MONITOR dynamic field statistics
(PID.TID 0000.0001) // =======================================================
(PID.TID 0000.0001) %CHECKPOINT        20 ckptA
(PID.TID 0000.0001)   Seconds in section "ALL                    [THE_MODEL_MAIN]":
(PID.TID 0000.0001)           User time:   15.335032681468874
(PID.TID 0000.0001)         System time:  0.14213299425318837
(PID.TID 0000.0001)     Wall clock time:   15.488806962966919
(PID.TID 0000.0001)          No. starts:           1
(PID.TID 0000.0001)           No. stops:           1
(PID.TID 0000.0001)   Seconds in section "INITIALISE_FIXED       [THE_MODEL_MAIN]":
(PID.TID 0000.0001)           User time:  0.11904599703848362
(PID.TID 0000.0001)         System time:   3.1862999079748988E-002
(PID.TID 0000.0001)     Wall clock time:  0.15166997909545898
(PID.TID 0000.0001)          No. starts:           1
(PID.TID 0000.0001)           No. stops:           1
(PID.TID 0000.0001)   Seconds in section "THE_MAIN_LOOP          [THE_MODEL_MAIN]":
(PID.TID 0000.0001)           User time:   15.215970911085606
(PID.TID 0000.0001)         System time:  0.11026799306273460
(PID.TID 0000.0001)     Wall clock time:   15.337120056152344
(PID.TID 0000.0001)          No. starts:           1
(PID.TID 0000.0001)           No. stops:           1
(PID.TID 0000.0001)   Seconds in section "INITIALISE_VARIA    [THE_MAIN_LOOP]":
(PID.TID 0000.0001)           User time:  0.15786300599575043
(PID.TID 0000.0001)         System time:   9.4019994139671326E-003
(PID.TID 0000.0001)     Wall clock time:  0.16733407974243164
(PID.TID 0000.0001)          No. starts:           1
(PID.TID 0000.0001)           No. stops:           1
(PID.TID 0000.0001)   Seconds in section "MAIN LOOP           [THE_MAIN_LOOP]":
(PID.TID 0000.0001)           User time:   15.058091133832932
(PID.TID 0000.0001)         System time:  0.10086299479007721
(PID.TID 0000.0001)     Wall clock time:   15.169767141342163
(PID.TID 0000.0001)          No. starts:           1
(PID.TID 0000.0001)           No. stops:           1
(PID.TID 0000.0001)   Seconds in section "MAIN_DO_LOOP        [THE_MAIN_LOOP]":
(PID.TID 0000.0001)           User time:   15.057992637157440
(PID.TID 0000.0001)         System time:  0.10085999593138695
(PID.TID 0000.0001)     Wall clock time:   15.169661998748779
(PID.TID 0000.0001)          No. starts:          20
(PID.TID 0000.0001)           No. stops:          20
(PID.TID 0000.0001)   Seconds in section "FORWARD_STEP        [MAIN_DO_LOOP]":
(PID.TID 0000.0001)           User time:   15.057788789272308
(PID.TID 0000.0001)         System time:  0.10085199028253555
(PID.TID 0000.0001)     Wall clock time:   15.169452667236328
(PID.TID 0000.0001)          No. starts:          20
(PID.TID 0000.0001)           No. stops:          20
(PID.TID 0000.0001)   Seconds in section "LOAD_FIELDS_DRIVER  [FORWARD_STEP]":
(PID.TID 0000.0001)           User time:   3.0642747879028320E-004
(PID.TID 0000.0001)         System time:   1.2990087270736694E-005
(PID.TID 0000.0001)     Wall clock time:   3.1614303588867188E-004
(PID.TID 0000.0001)          No. starts:          20
(PID.TID 0000.0001)           No. stops:          20
(PID.TID 0000.0001)   Seconds in section "EXTERNAL_FLDS_LOAD [LOAD_FLDS_DRIVER]":
(PID.TID 0000.0001)           User time:   1.0323524475097656E-004
(PID.TID 0000.0001)         System time:   5.9977173805236816E-006
(PID.TID 0000.0001)     Wall clock time:   1.1014938354492188E-004
(PID.TID 0000.0001)          No. starts:          20
(PID.TID 0000.0001)           No. stops:          20
(PID.TID 0000.0001)   Seconds in section "DO_ATMOSPHERIC_PHYS [FORWARD_STEP]":
(PID.TID 0000.0001)           User time:   1.0180473327636719E-004
(PID.TID 0000.0001)         System time:   5.0030648708343506E-006
(PID.TID 0000.0001)     Wall clock time:   1.0800361633300781E-004
(PID.TID 0000.0001)          No. starts:          20
(PID.TID 0000.0001)           No. stops:          20
(PID.TID 0000.0001)   Seconds in section "DO_OCEANIC_PHYS     [FORWARD_STEP]":
(PID.TID 0000.0001)           User time:  0.46318817138671875
(PID.TID 0000.0001)         System time:   3.1649880111217499E-003
(PID.TID 0000.0001)     Wall clock time:  0.46728372573852539
(PID.TID 0000.0001)          No. starts:          20
(PID.TID 0000.0001)           No. stops:          20
(PID.TID 0000.0001)   Seconds in section "STIC_THERMODYNAMICS [DO_OCEANIC_PHYS]":
(PID.TID 0000.0001)           User time:  0.25683450698852539
(PID.TID 0000.0001)         System time:   1.9659996032714844E-003
(PID.TID 0000.0001)     Wall clock time:  0.25882506370544434
(PID.TID 0000.0001)          No. starts:          20
(PID.TID 0000.0001)           No. stops:          20
(PID.TID 0000.0001)   Seconds in section "THERMODYNAMICS      [FORWARD_STEP]":
(PID.TID 0000.0001)           User time:   2.9559007585048676
(PID.TID 0000.0001)         System time:   1.4351014047861099E-002
(PID.TID 0000.0001)     Wall clock time:   2.9748072624206543
(PID.TID 0000.0001)          No. starts:          20
(PID.TID 0000.0001)           No. stops:          20
(PID.TID 0000.0001)   Seconds in section "DYNAMICS            [FORWARD_STEP]":
(PID.TID 0000.0001)           User time:   5.6226596236228943
(PID.TID 0000.0001)         System time:   3.0249007046222687E-002
(PID.TID 0000.0001)     Wall clock time:   5.6533484458923340
(PID.TID 0000.0001)          No. starts:          20
(PID.TID 0000.0001)           No. stops:          20
(PID.TID 0000.0001)   Seconds in section "UPDATE_SURF_DR      [FORWARD_STEP]":
(PID.TID 0000.0001)           User time:   8.1757664680480957E-002
(PID.TID 0000.0001)         System time:   4.3398886919021606E-004
(PID.TID 0000.0001)     Wall clock time:   8.2194566726684570E-002
(PID.TID 0000.0001)          No. starts:          20
(PID.TID 0000.0001)           No. stops:          20
(PID.TID 0000.0001)   Seconds in section "SOLVE_FOR_PRESSURE  [FORWARD_STEP]":
(PID.TID 0000.0001)           User time:   2.9790161252021790
(PID.TID 0000.0001)         System time:   1.9458003342151642E-002
(PID.TID 0000.0001)     Wall clock time:   3.0000419616699219
(PID.TID 0000.0001)          No. starts:          20
(PID.TID 0000.0001)           No. stops:          20
(PID.TID 0000.0001)   Seconds in section "MOM_CORRECTION_STEP [FORWARD_STEP]":
(PID.TID 0000.0001)           User time:  0.21753215789794922
(PID.TID 0000.0001)         System time:   1.2639984488487244E-003
(PID.TID 0000.0001)     Wall clock time:  0.21882867813110352
(PID.TID 0000.0001)          No. starts:          20
(PID.TID 0000.0001)           No. stops:          20
(PID.TID 0000.0001)   Seconds in section "INTEGR_CONTINUITY   [FORWARD_STEP]":
(PID.TID 0000.0001)           User time:  0.35288387537002563
(PID.TID 0000.0001)         System time:   1.9479803740978241E-003
(PID.TID 0000.0001)     Wall clock time:  0.35490345954895020
(PID.TID 0000.0001)          No. starts:          20
(PID.TID 0000.0001)           No. stops:          20
(PID.TID 0000.0001)   Seconds in section "TRC_CORRECTION_STEP [FORWARD_STEP]":
(PID.TID 0000.0001)           User time:  0.61539763212203979
(PID.TID 0000.0001)         System time:   3.5580024123191833E-003
(PID.TID 0000.0001)     Wall clock time:  0.62147092819213867
(PID.TID 0000.0001)          No. starts:          20
(PID.TID 0000.0001)           No. stops:          20
(PID.TID 0000.0001)   Seconds in section "BLOCKING_EXCHANGES  [FORWARD_STEP]":
(PID.TID 0000.0001)           User time:  0.17112565040588379
(PID.TID 0000.0001)         System time:   9.1601163148880005E-004
(PID.TID 0000.0001)     Wall clock time:  0.17208504676818848
(PID.TID 0000.0001)          No. starts:          20
(PID.TID 0000.0001)           No. stops:          20
(PID.TID 0000.0001)   Seconds in section "MONITOR             [FORWARD_STEP]":
(PID.TID 0000.0001)           User time:   1.5351772904396057
(PID.TID 0000.0001)         System time:   8.8400058448314667E-003
(PID.TID 0000.0001)     Wall clock time:   1.5450196266174316
(PID.TID 0000.0001)          No. starts:          20
(PID.TID 0000.0001)           No. stops:          20
(PID.TID 0000.0001)   Seconds in section "DO_THE_MODEL_IO     [FORWARD_STEP]":
(PID.TID 0000.0001)           User time:   2.1316528320312500E-002
(PID.TID 0000.0001)         System time:   6.7460052669048309E-003
(PID.TID 0000.0001)     Wall clock time:   2.8065204620361328E-002
(PID.TID 0000.0001)          No. starts:          20
(PID.TID 0000.0001)           No. stops:          20
(PID.TID 0000.0001)   Seconds in section "DO_WRITE_PICKUP     [FORWARD_STEP]":
(PID.TID 0000.0001)           User time:   3.9807796478271484E-002
(PID.TID 0000.0001)         System time:   9.5269978046417236E-003
(PID.TID 0000.0001)     Wall clock time:   4.9353837966918945E-002
(PID.TID 0000.0001)          No. starts:          20
(PID.TID 0000.0001)           No. stops:          20
(PID.TID 0000.0001) // ======================================================
(PID.TID 0000.0001) // Tile <-> Tile communication statistics
(PID.TID 0000.0001) // ======================================================
(PID.TID 0000.0001) // o Tile number: 000001
(PID.TID 0000.0001) //         No. X exchanges =              0
(PID.TID 0000.0001) //            Max. X spins =              0
(PID.TID 0000.0001) //            Min. X spins =     1000000000
(PID.TID 0000.0001) //          Total. X spins =              0
(PID.TID 0000.0001) //            Avg. X spins =       0.00E+00
(PID.TID 0000.0001) //         No. Y exchanges =              0
(PID.TID 0000.0001) //            Max. Y spins =              0
(PID.TID 0000.0001) //            Min. Y spins =     1000000000
(PID.TID 0000.0001) //          Total. Y spins =              0
(PID.TID 0000.0001) //            Avg. Y spins =       0.00E+00
(PID.TID 0000.0001) // o Tile number: 000002
(PID.TID 0000.0001) //         No. X exchanges =              0
(PID.TID 0000.0001) //            Max. X spins =              0
(PID.TID 0000.0001) //            Min. X spins =     1000000000
(PID.TID 0000.0001) //          Total. X spins =              0
(PID.TID 0000.0001) //            Avg. X spins =       0.00E+00
(PID.TID 0000.0001) //         No. Y exchanges =              0
(PID.TID 0000.0001) //            Max. Y spins =              0
(PID.TID 0000.0001) //            Min. Y spins =     1000000000
(PID.TID 0000.0001) //          Total. Y spins =              0
(PID.TID 0000.0001) //            Avg. Y spins =       0.00E+00
(PID.TID 0000.0001) // o Tile number: 000003
(PID.TID 0000.0001) //         No. X exchanges =              0
(PID.TID 0000.0001) //            Max. X spins =              0
(PID.TID 0000.0001) //            Min. X spins =     1000000000
(PID.TID 0000.0001) //          Total. X spins =              0
(PID.TID 0000.0001) //            Avg. X spins =       0.00E+00
(PID.TID 0000.0001) //         No. Y exchanges =              0
(PID.TID 0000.0001) //            Max. Y spins =              0
(PID.TID 0000.0001) //            Min. Y spins =     1000000000
(PID.TID 0000.0001) //          Total. Y spins =              0
(PID.TID 0000.0001) //            Avg. Y spins =       0.00E+00
(PID.TID 0000.0001) // o Tile number: 000004
(PID.TID 0000.0001) //         No. X exchanges =              0
(PID.TID 0000.0001) //            Max. X spins =              0
(PID.TID 0000.0001) //            Min. X spins =     1000000000
(PID.TID 0000.0001) //          Total. X spins =              0
(PID.TID 0000.0001) //            Avg. X spins =       0.00E+00
(PID.TID 0000.0001) //         No. Y exchanges =              0
(PID.TID 0000.0001) //            Max. Y spins =              0
(PID.TID 0000.0001) //            Min. Y spins =     1000000000
(PID.TID 0000.0001) //          Total. Y spins =              0
(PID.TID 0000.0001) //            Avg. Y spins =       0.00E+00
(PID.TID 0000.0001) // o Tile number: 000005
(PID.TID 0000.0001) //         No. X exchanges =              0
(PID.TID 0000.0001) //            Max. X spins =              0
(PID.TID 0000.0001) //            Min. X spins =     1000000000
(PID.TID 0000.0001) //          Total. X spins =              0
(PID.TID 0000.0001) //            Avg. X spins =       0.00E+00
(PID.TID 0000.0001) //         No. Y exchanges =              0
(PID.TID 0000.0001) //            Max. Y spins =              0
(PID.TID 0000.0001) //            Min. Y spins =     1000000000
(PID.TID 0000.0001) //          Total. Y spins =              0
(PID.TID 0000.0001) //            Avg. Y spins =       0.00E+00
(PID.TID 0000.0001) // o Tile number: 000006
(PID.TID 0000.0001) //         No. X exchanges =              0
(PID.TID 0000.0001) //            Max. X spins =              0
(PID.TID 0000.0001) //            Min. X spins =     1000000000
(PID.TID 0000.0001) //          Total. X spins =              0
(PID.TID 0000.0001) //            Avg. X spins =       0.00E+00
(PID.TID 0000.0001) //         No. Y exchanges =              0
(PID.TID 0000.0001) //            Max. Y spins =              0
(PID.TID 0000.0001) //            Min. Y spins =     1000000000
(PID.TID 0000.0001) //          Total. Y spins =              0
(PID.TID 0000.0001) //            Avg. Y spins =       0.00E+00
(PID.TID 0000.0001) // o Tile number: 000007
(PID.TID 0000.0001) //         No. X exchanges =              0
(PID.TID 0000.0001) //            Max. X spins =              0
(PID.TID 0000.0001) //            Min. X spins =     1000000000
(PID.TID 0000.0001) //          Total. X spins =              0
(PID.TID 0000.0001) //            Avg. X spins =       0.00E+00
(PID.TID 0000.0001) //         No. Y exchanges =              0
(PID.TID 0000.0001) //            Max. Y spins =              0
(PID.TID 0000.0001) //            Min. Y spins =     1000000000
(PID.TID 0000.0001) //          Total. Y spins =              0
(PID.TID 0000.0001) //            Avg. Y spins =       0.00E+00
(PID.TID 0000.0001) // o Tile number: 000008
(PID.TID 0000.0001) //         No. X exchanges =              0
(PID.TID 0000.0001) //            Max. X spins =              0
(PID.TID 0000.0001) //            Min. X spins =     1000000000
(PID.TID 0000.0001) //          Total. X spins =              0
(PID.TID 0000.0001) //            Avg. X spins =       0.00E+00
(PID.TID 0000.0001) //         No. Y exchanges =              0
(PID.TID 0000.0001) //            Max. Y spins =              0
(PID.TID 0000.0001) //            Min. Y spins =     1000000000
(PID.TID 0000.0001) //          Total. Y spins =              0
(PID.TID 0000.0001) //            Avg. Y spins =       0.00E+00
(PID.TID 0000.0001) // o Thread number: 000001
(PID.TID 0000.0001) //            No. barriers =          28516
(PID.TID 0000.0001) //      Max. barrier spins =              1
(PID.TID 0000.0001) //      Min. barrier spins =              1
(PID.TID 0000.0001) //     Total barrier spins =          28516
(PID.TID 0000.0001) //      Avg. barrier spins =       1.00E+00
PROGRAM MAIN: Execution ended Normally
