(PID.TID 0000.0001) 
(PID.TID 0000.0001) // ======================================================
(PID.TID 0000.0001) //                      MITgcm UV
(PID.TID 0000.0001) //                      =========
(PID.TID 0000.0001) // ======================================================
(PID.TID 0000.0001) // execution environment starting up...
(PID.TID 0000.0001) 
(PID.TID 0000.0001) // MITgcmUV version:  checkpoint67x
(PID.TID 0000.0001) // Build user:        jm_c
(PID.TID 0000.0001) // Build host:        villon
(PID.TID 0000.0001) // Build date:        Wed Apr 14 18:06:14 EDT 2021
(PID.TID 0000.0001) 
(PID.TID 0000.0001) // =======================================================
(PID.TID 0000.0001) // Execution Environment parameter file "eedata"
(PID.TID 0000.0001) // =======================================================
(PID.TID 0000.0001) ># Example "eedata" file
(PID.TID 0000.0001) ># Lines beginning "#" are comments
(PID.TID 0000.0001) ># nTx - No. threads per process in X
(PID.TID 0000.0001) ># nTy - No. threads per process in Y
(PID.TID 0000.0001) > &EEPARMS
(PID.TID 0000.0001) > /
(PID.TID 0000.0001) ># Note: Some systems use & as the
(PID.TID 0000.0001) ># namelist terminator. Other systems
(PID.TID 0000.0001) ># use a / character (as shown here).
(PID.TID 0000.0001) 
(PID.TID 0000.0001) // =======================================================
(PID.TID 0000.0001) // Computational Grid Specification ( see files "SIZE.h" )
(PID.TID 0000.0001) //                                  ( and "eedata"       )
(PID.TID 0000.0001) // =======================================================
(PID.TID 0000.0001)      nPx =    1 ; /* No. processes in X */
(PID.TID 0000.0001)      nPy =    1 ; /* No. processes in Y */
(PID.TID 0000.0001)      nSx =    2 ; /* No. tiles in X per process */
(PID.TID 0000.0001)      nSy =    4 ; /* No. tiles in Y per process */
(PID.TID 0000.0001)      sNx =   25 ; /* Tile size in X */
(PID.TID 0000.0001)      sNy =   25 ; /* Tile size in Y */
(PID.TID 0000.0001)      OLx =    3 ; /* Tile overlap distance in X */
(PID.TID 0000.0001)      OLy =    3 ; /* Tile overlap distance in Y */
(PID.TID 0000.0001)      nTx =    1 ; /* No. threads in X per process */
(PID.TID 0000.0001)      nTy =    1 ; /* No. threads in Y per process */
(PID.TID 0000.0001)       Nr =   30 ; /* No. levels in the vertical   */
(PID.TID 0000.0001)       Nx =   50 ; /* Total domain size in X ( = nPx*nSx*sNx ) */
(PID.TID 0000.0001)       Ny =  100 ; /* Total domain size in Y ( = nPy*nSy*sNy ) */
(PID.TID 0000.0001)   nTiles =    8 ; /* Total no. tiles per process ( = nSx*nSy ) */
(PID.TID 0000.0001)   nProcs =    1 ; /* Total no. processes ( = nPx*nPy ) */
(PID.TID 0000.0001) nThreads =    1 ; /* Total no. threads per process ( = nTx*nTy ) */
(PID.TID 0000.0001) usingMPI =    F ; /* Flag used to control whether MPI is in use */
(PID.TID 0000.0001)                   /*  note: To execute a program with MPI calls */
(PID.TID 0000.0001)                   /*  it must be launched appropriately e.g     */
(PID.TID 0000.0001)                   /*  "mpirun -np 64 ......"                    */
(PID.TID 0000.0001) useCoupler=   F ; /* Flag used to control communications with   */
(PID.TID 0000.0001)                   /*  other model components, through a coupler */
(PID.TID 0000.0001) useNest2W_parent =    F ;/* Control 2-W Nesting comm */
(PID.TID 0000.0001) useNest2W_child  =    F ;/* Control 2-W Nesting comm */
(PID.TID 0000.0001) debugMode =    F ; /* print debug msg. (sequence of S/R calls)  */
(PID.TID 0000.0001) printMapIncludesZeros=    F ; /* print zeros in Std.Output maps */
(PID.TID 0000.0001) maxLengthPrt1D=   65 /* maxLength of 1D array printed to StdOut */
(PID.TID 0000.0001) 
(PID.TID 0000.0001) // ======================================================
(PID.TID 0000.0001) // Mapping of tiles to threads
(PID.TID 0000.0001) // ======================================================
(PID.TID 0000.0001) // -o- Thread   1, tiles (   1:   2,   1:   4)
(PID.TID 0000.0001) 
(PID.TID 0000.0001) // ======================================================
(PID.TID 0000.0001) // Tile <-> Tile connectvity table
(PID.TID 0000.0001) // ======================================================
(PID.TID 0000.0001) // Tile number: 000001 (process no. = 000000)
(PID.TID 0000.0001) //        WEST: Tile = 000002, Process = 000000, Comm = put
(PID.TID 0000.0001) //                bi = 000002, bj = 000001
(PID.TID 0000.0001) //        EAST: Tile = 000002, Process = 000000, Comm = put
(PID.TID 0000.0001) //                bi = 000002, bj = 000001
(PID.TID 0000.0001) //       SOUTH: Tile = 000007, Process = 000000, Comm = put
(PID.TID 0000.0001) //                bi = 000001, bj = 000004
(PID.TID 0000.0001) //       NORTH: Tile = 000003, Process = 000000, Comm = put
(PID.TID 0000.0001) //                bi = 000001, bj = 000002
(PID.TID 0000.0001) // Tile number: 000002 (process no. = 000000)
(PID.TID 0000.0001) //        WEST: Tile = 000001, Process = 000000, Comm = put
(PID.TID 0000.0001) //                bi = 000001, bj = 000001
(PID.TID 0000.0001) //        EAST: Tile = 000001, Process = 000000, Comm = put
(PID.TID 0000.0001) //                bi = 000001, bj = 000001
(PID.TID 0000.0001) //       SOUTH: Tile = 000008, Process = 000000, Comm = put
(PID.TID 0000.0001) //                bi = 000002, bj = 000004
(PID.TID 0000.0001) //       NORTH: Tile = 000004, Process = 000000, Comm = put
(PID.TID 0000.0001) //                bi = 000002, bj = 000002
(PID.TID 0000.0001) // Tile number: 000003 (process no. = 000000)
(PID.TID 0000.0001) //        WEST: Tile = 000004, Process = 000000, Comm = put
(PID.TID 0000.0001) //                bi = 000002, bj = 000002
(PID.TID 0000.0001) //        EAST: Tile = 000004, Process = 000000, Comm = put
(PID.TID 0000.0001) //                bi = 000002, bj = 000002
(PID.TID 0000.0001) //       SOUTH: Tile = 000001, Process = 000000, Comm = put
(PID.TID 0000.0001) //                bi = 000001, bj = 000001
(PID.TID 0000.0001) //       NORTH: Tile = 000005, Process = 000000, Comm = put
(PID.TID 0000.0001) //                bi = 000001, bj = 000003
(PID.TID 0000.0001) // Tile number: 000004 (process no. = 000000)
(PID.TID 0000.0001) //        WEST: Tile = 000003, Process = 000000, Comm = put
(PID.TID 0000.0001) //                bi = 000001, bj = 000002
(PID.TID 0000.0001) //        EAST: Tile = 000003, Process = 000000, Comm = put
(PID.TID 0000.0001) //                bi = 000001, bj = 000002
(PID.TID 0000.0001) //       SOUTH: Tile = 000002, Process = 000000, Comm = put
(PID.TID 0000.0001) //                bi = 000002, bj = 000001
(PID.TID 0000.0001) //       NORTH: Tile = 000006, Process = 000000, Comm = put
(PID.TID 0000.0001) //                bi = 000002, bj = 000003
(PID.TID 0000.0001) // Tile number: 000005 (process no. = 000000)
(PID.TID 0000.0001) //        WEST: Tile = 000006, Process = 000000, Comm = put
(PID.TID 0000.0001) //                bi = 000002, bj = 000003
(PID.TID 0000.0001) //        EAST: Tile = 000006, Process = 000000, Comm = put
(PID.TID 0000.0001) //                bi = 000002, bj = 000003
(PID.TID 0000.0001) //       SOUTH: Tile = 000003, Process = 000000, Comm = put
(PID.TID 0000.0001) //                bi = 000001, bj = 000002
(PID.TID 0000.0001) //       NORTH: Tile = 000007, Process = 000000, Comm = put
(PID.TID 0000.0001) //                bi = 000001, bj = 000004
(PID.TID 0000.0001) // Tile number: 000006 (process no. = 000000)
(PID.TID 0000.0001) //        WEST: Tile = 000005, Process = 000000, Comm = put
(PID.TID 0000.0001) //                bi = 000001, bj = 000003
(PID.TID 0000.0001) //        EAST: Tile = 000005, Process = 000000, Comm = put
(PID.TID 0000.0001) //                bi = 000001, bj = 000003
(PID.TID 0000.0001) //       SOUTH: Tile = 000004, Process = 000000, Comm = put
(PID.TID 0000.0001) //                bi = 000002, bj = 000002
(PID.TID 0000.0001) //       NORTH: Tile = 000008, Process = 000000, Comm = put
(PID.TID 0000.0001) //                bi = 000002, bj = 000004
(PID.TID 0000.0001) // Tile number: 000007 (process no. = 000000)
(PID.TID 0000.0001) //        WEST: Tile = 000008, Process = 000000, Comm = put
(PID.TID 0000.0001) //                bi = 000002, bj = 000004
(PID.TID 0000.0001) //        EAST: Tile = 000008, Process = 000000, Comm = put
(PID.TID 0000.0001) //                bi = 000002, bj = 000004
(PID.TID 0000.0001) //       SOUTH: Tile = 000005, Process = 000000, Comm = put
(PID.TID 0000.0001) //                bi = 000001, bj = 000003
(PID.TID 0000.0001) //       NORTH: Tile = 000001, Process = 000000, Comm = put
(PID.TID 0000.0001) //                bi = 000001, bj = 000001
(PID.TID 0000.0001) // Tile number: 000008 (process no. = 000000)
(PID.TID 0000.0001) //        WEST: Tile = 000007, Process = 000000, Comm = put
(PID.TID 0000.0001) //                bi = 000001, bj = 000004
(PID.TID 0000.0001) //        EAST: Tile = 000007, Process = 000000, Comm = put
(PID.TID 0000.0001) //                bi = 000001, bj = 000004
(PID.TID 0000.0001) //       SOUTH: Tile = 000006, Process = 000000, Comm = put
(PID.TID 0000.0001) //                bi = 000002, bj = 000003
(PID.TID 0000.0001) //       NORTH: Tile = 000002, Process = 000000, Comm = put
(PID.TID 0000.0001) //                bi = 000002, bj = 000001
(PID.TID 0000.0001) 
(PID.TID 0000.0001)  INI_PARMS: opening model parameter file "data"
(PID.TID 0000.0001)  OPEN_COPY_DATA_FILE: opening file data
(PID.TID 0000.0001) // =======================================================
(PID.TID 0000.0001) // Parameter file "data"
(PID.TID 0000.0001) // =======================================================
(PID.TID 0000.0001) ># ====================
(PID.TID 0000.0001) ># | Model parameters |
(PID.TID 0000.0001) ># ====================
(PID.TID 0000.0001) >#
(PID.TID 0000.0001) ># Continuous equation parameters
(PID.TID 0000.0001) > &PARM01
(PID.TID 0000.0001) > Tref = 30*-1.9,
(PID.TID 0000.0001) > Sref = 30*34.4,
(PID.TID 0000.0001) > viscAz=1.E-3,
(PID.TID 0000.0001) > viscAh=600.0,
(PID.TID 0000.0001) > no_slip_sides=.FALSE.,
(PID.TID 0000.0001) > no_slip_bottom=.FALSE.,
(PID.TID 0000.0001) > diffKhT=100.0,
(PID.TID 0000.0001) > diffKzT=5.E-5,
(PID.TID 0000.0001) > diffKhS=100.0,
(PID.TID 0000.0001) > diffKzS=5.E-5,
(PID.TID 0000.0001) > bottomDragQuadratic=2.5E-3,
(PID.TID 0000.0001) > eosType='JMD95Z',
(PID.TID 0000.0001) > HeatCapacity_cp = 3974.0,
(PID.TID 0000.0001) > rhoConst=1030.,
(PID.TID 0000.0001) > rhoConst=1030.,
(PID.TID 0000.0001) > gravity=9.81,
(PID.TID 0000.0001) > convertFW2Salt = 33.4,
(PID.TID 0000.0001) > rigidLid=.FALSE.,
(PID.TID 0000.0001) > implicitFreeSurface=.TRUE.,
(PID.TID 0000.0001) > exactConserv=.TRUE.,
(PID.TID 0000.0001) > hFacMin=0.05,
(PID.TID 0000.0001) > nonHydrostatic=.FALSE.,
(PID.TID 0000.0001) > readBinaryPrec=64,
(PID.TID 0000.0001) > useCDScheme = .TRUE.,
(PID.TID 0000.0001) > /
(PID.TID 0000.0001) >
(PID.TID 0000.0001) ># Elliptic solver parameters
(PID.TID 0000.0001) > &PARM02
(PID.TID 0000.0001) > cg2dMaxIters=1000,
(PID.TID 0000.0001) > cg2dTargetResidual=1.E-13,
(PID.TID 0000.0001) > cg3dMaxIters=400,
(PID.TID 0000.0001) > cg3dTargetResidual=1.E-13,
(PID.TID 0000.0001) > /
(PID.TID 0000.0001) >
(PID.TID 0000.0001) ># Time stepping parameters
(PID.TID 0000.0001) > &PARM03
(PID.TID 0000.0001) > nIter0=0,
(PID.TID 0000.0001) > nTimeSteps=20,
(PID.TID 0000.0001) > deltaT=1800.0,
(PID.TID 0000.0001) > abEps=0.1,
(PID.TID 0000.0001) > cAdjFreq = -1.,
(PID.TID 0000.0001) > tauCD = 400000.,
(PID.TID 0000.0001) > pChkptFreq=0.0,
(PID.TID 0000.0001) > chkptFreq=0.0,
(PID.TID 0000.0001) > dumpFreq=0.0,
(PID.TID 0000.0001) > taveFreq=0.0,
(PID.TID 0000.0001) > monitorFreq=1.,
(PID.TID 0000.0001) > monitorSelect=2,
(PID.TID 0000.0001) > /
(PID.TID 0000.0001) >
(PID.TID 0000.0001) ># Gridding parameters
(PID.TID 0000.0001) > &PARM04
(PID.TID 0000.0001) > usingSphericalPolarGrid=.TRUE.,
(PID.TID 0000.0001) > ygOrigin = -80.0,
(PID.TID 0000.0001) > delX=50*0.3,
(PID.TID 0000.0001) > delY=100*0.1,
(PID.TID 0000.0001) > delZ=30*30.0,
(PID.TID 0000.0001) > /
(PID.TID 0000.0001) >
(PID.TID 0000.0001) ># Input datasets
(PID.TID 0000.0001) > &PARM05
(PID.TID 0000.0001) > bathyFile='bathy.box',
(PID.TID 0000.0001) > /
(PID.TID 0000.0001) 
(PID.TID 0000.0001)  INI_PARMS ; starts to read PARM01
(PID.TID 0000.0001)  INI_PARMS ; read PARM01 : OK
(PID.TID 0000.0001)  INI_PARMS ; starts to read PARM02
(PID.TID 0000.0001)  INI_PARMS ; read PARM02 : OK
(PID.TID 0000.0001)  INI_PARMS ; starts to read PARM03
(PID.TID 0000.0001)  INI_PARMS ; read PARM03 : OK
(PID.TID 0000.0001)  INI_PARMS ; starts to read PARM04
(PID.TID 0000.0001)  INI_PARMS ; read PARM04 : OK
(PID.TID 0000.0001)  INI_PARMS ; starts to read PARM05
(PID.TID 0000.0001)  INI_PARMS ; read PARM05 : OK
(PID.TID 0000.0001)  INI_PARMS: finished reading file "data"
(PID.TID 0000.0001)  PACKAGES_BOOT: opening data.pkg
(PID.TID 0000.0001)  OPEN_COPY_DATA_FILE: opening file data.pkg
(PID.TID 0000.0001) // =======================================================
(PID.TID 0000.0001) // Parameter file "data.pkg"
(PID.TID 0000.0001) // =======================================================
(PID.TID 0000.0001) ># Packages
(PID.TID 0000.0001) > &PACKAGES
(PID.TID 0000.0001) > useShelfIce=.TRUE.,
(PID.TID 0000.0001) >#useDiagnostics=.TRUE.,
(PID.TID 0000.0001) >#useMNC=.TRUE.,
(PID.TID 0000.0001) > /
(PID.TID 0000.0001) 
(PID.TID 0000.0001)  PACKAGES_BOOT: finished reading data.pkg
(PID.TID 0000.0001)  PACKAGES_BOOT: On/Off package Summary
 --------  pkgs with a standard "usePKG" On/Off switch in "data.pkg":  --------
 pkg/obcs                 compiled but not used ( useOBCS                  = F )
 pkg/shelfice             compiled   and   used ( useShelfIce              = T )
 pkg/icefront             compiled but not used ( useICEFRONT              = F )
 pkg/diagnostics          compiled but not used ( useDiagnostics           = F )
 pkg/mnc                  compiled but not used ( useMNC                   = F )
 -------- pkgs without standard "usePKG" On/Off switch in "data.pkg":  --------
 pkg/generic_advdiff      compiled   and   used ( useGAD                   = T )
 pkg/mom_common           compiled   and   used ( momStepping              = T )
 pkg/mom_vecinv           compiled but not used ( +vectorInvariantMomentum = F )
 pkg/mom_fluxform         compiled   and   used ( & not vectorInvariantMom = T )
 pkg/cd_code              compiled   and   used ( useCDscheme              = T )
 pkg/monitor              compiled   and   used ( monitorFreq > 0.         = T )
 pkg/debug                compiled but not used ( debugMode                = F )
 pkg/rw                   compiled   and   used
 pkg/mdsio                compiled   and   used
(PID.TID 0000.0001)  PACKAGES_BOOT: End of package Summary
(PID.TID 0000.0001) 
(PID.TID 0000.0001)  SHELFICE_READPARMS: opening data.shelfice
(PID.TID 0000.0001)  OPEN_COPY_DATA_FILE: opening file data.shelfice
(PID.TID 0000.0001) // =======================================================
(PID.TID 0000.0001) // Parameter file "data.shelfice"
(PID.TID 0000.0001) // =======================================================
(PID.TID 0000.0001) ># ===================================
(PID.TID 0000.0001) ># | Parameters for SHELFICE package |
(PID.TID 0000.0001) ># ===================================
(PID.TID 0000.0001) > &SHELFICE_PARM01
(PID.TID 0000.0001) > SHELFICEboundaryLayer = .TRUE.,
(PID.TID 0000.0001) > SHELFICEtopoFile='icetopo.exp1',
(PID.TID 0000.0001) > SHELFICEloadAnomalyFile = 'phi0surf.exp1.jmd95z',
(PID.TID 0000.0001) > useISOMIPTD = .TRUE.,
(PID.TID 0000.0001) > SHELFICEuseGammaFrict = .FALSE.,
(PID.TID 0000.0001) > no_slip_shelfice = .false.,
(PID.TID 0000.0001) > SHELFICEwriteState = .TRUE.,
(PID.TID 0000.0001) > /
(PID.TID 0000.0001) 
(PID.TID 0000.0001)  SHELFICE_READPARMS: finished reading data.shelfice
(PID.TID 0000.0001) SET_PARMS: done
(PID.TID 0000.0001) Enter INI_VERTICAL_GRID: setInterFDr=    T ; setCenterDr=    F
(PID.TID 0000.0001) %MON XC_max                       =   1.4850000000000E+01
(PID.TID 0000.0001) %MON XC_min                       =   1.5000000000000E-01
(PID.TID 0000.0001) %MON XC_mean                      =   7.5000000000000E+00
(PID.TID 0000.0001) %MON XC_sd                        =   4.3292609068985E+00
(PID.TID 0000.0001) %MON XG_max                       =   1.4700000000000E+01
(PID.TID 0000.0001) %MON XG_min                       =   1.1102230246252E-16
(PID.TID 0000.0001) %MON XG_mean                      =   7.3500000000000E+00
(PID.TID 0000.0001) %MON XG_sd                        =   4.3292609068985E+00
(PID.TID 0000.0001) %MON DXC_max                      =   1.1380125394806E+04
(PID.TID 0000.0001) %MON DXC_min                      =   5.8203914905589E+03
(PID.TID 0000.0001) %MON DXC_mean                     =   8.6215028627207E+03
(PID.TID 0000.0001) %MON DXC_sd                       =   1.6219001271572E+03
(PID.TID 0000.0001) %MON DXF_max                      =   1.1380125394806E+04
(PID.TID 0000.0001) %MON DXF_min                      =   5.8203914905589E+03
(PID.TID 0000.0001) %MON DXF_mean                     =   8.6215028627207E+03
(PID.TID 0000.0001) %MON DXF_sd                       =   1.6219001271572E+03
(PID.TID 0000.0001) %MON DXG_max                      =   1.1352761512017E+04
(PID.TID 0000.0001) %MON DXG_min                      =   5.7917296935586E+03
(PID.TID 0000.0001) %MON DXG_mean                     =   8.5934208253080E+03
(PID.TID 0000.0001) %MON DXG_sd                       =   1.6222785520817E+03
(PID.TID 0000.0001) %MON DXV_max                      =   1.1352761512017E+04
(PID.TID 0000.0001) %MON DXV_min                      =   5.7917296935586E+03
(PID.TID 0000.0001) %MON DXV_mean                     =   8.5934208253080E+03
(PID.TID 0000.0001) %MON DXV_sd                       =   1.6222785520817E+03
(PID.TID 0000.0001) %MON YC_max                       =  -7.0050000000001E+01
(PID.TID 0000.0001) %MON YC_min                       =  -7.9950000000000E+01
(PID.TID 0000.0001) %MON YC_mean                      =  -7.5000000000000E+01
(PID.TID 0000.0001) %MON YC_sd                        =   2.8866070047720E+00
(PID.TID 0000.0001) %MON YG_max                       =  -7.0100000000001E+01
(PID.TID 0000.0001) %MON YG_min                       =  -8.0000000000000E+01
(PID.TID 0000.0001) %MON YG_mean                      =  -7.5050000000000E+01
(PID.TID 0000.0001) %MON YG_sd                        =   2.8866070047721E+00
(PID.TID 0000.0001) %MON DYC_max                      =   1.1117747335204E+04
(PID.TID 0000.0001) %MON DYC_min                      =   1.1117747335204E+04
(PID.TID 0000.0001) %MON DYC_mean                     =   1.1117747335204E+04
(PID.TID 0000.0001) %MON DYC_sd                       =   4.1836756281555E-11
(PID.TID 0000.0001) %MON DYF_max                      =   1.1117747335204E+04
(PID.TID 0000.0001) %MON DYF_min                      =   1.1117747335204E+04
(PID.TID 0000.0001) %MON DYF_mean                     =   1.1117747335204E+04
(PID.TID 0000.0001) %MON DYF_sd                       =   4.1836756281555E-11
(PID.TID 0000.0001) %MON DYG_max                      =   1.1117747335204E+04
(PID.TID 0000.0001) %MON DYG_min                      =   1.1117747335204E+04
(PID.TID 0000.0001) %MON DYG_mean                     =   1.1117747335204E+04
(PID.TID 0000.0001) %MON DYG_sd                       =   4.1836756281555E-11
(PID.TID 0000.0001) %MON DYU_max                      =   1.1117747335204E+04
(PID.TID 0000.0001) %MON DYU_min                      =   1.1117747335204E+04
(PID.TID 0000.0001) %MON DYU_mean                     =   1.1117747335204E+04
(PID.TID 0000.0001) %MON DYU_sd                       =   4.1836756281555E-11
(PID.TID 0000.0001) %MON RA_max                       =   1.2652134272379E+08
(PID.TID 0000.0001) %MON RA_min                       =   6.4709633770803E+07
(PID.TID 0000.0001) %MON RA_mean                      =   9.5851678311587E+07
(PID.TID 0000.0001) %MON RA_sd                        =   1.8031873527992E+07
(PID.TID 0000.0001) %MON RAW_max                      =   1.2652134272379E+08
(PID.TID 0000.0001) %MON RAW_min                      =   6.4709633770803E+07
(PID.TID 0000.0001) %MON RAW_mean                     =   9.5851678311587E+07
(PID.TID 0000.0001) %MON RAW_sd                       =   1.8031873527992E+07
(PID.TID 0000.0001) %MON RAS_max                      =   1.2621711802744E+08
(PID.TID 0000.0001) %MON RAS_min                      =   6.4390979194019E+07
(PID.TID 0000.0001) %MON RAS_mean                     =   9.5539469354603E+07
(PID.TID 0000.0001) %MON RAS_sd                       =   1.8036080760153E+07
(PID.TID 0000.0001) %MON RAZ_max                      =   1.2621711802744E+08
(PID.TID 0000.0001) %MON RAZ_min                      =   6.4390979194019E+07
(PID.TID 0000.0001) %MON RAZ_mean                     =   9.5539469354603E+07
(PID.TID 0000.0001) %MON RAZ_sd                       =   1.8036080760153E+07
(PID.TID 0000.0001) %MON AngleCS_max                  =   1.0000000000000E+00
(PID.TID 0000.0001) %MON AngleCS_min                  =   1.0000000000000E+00
(PID.TID 0000.0001) %MON AngleCS_mean                 =   1.0000000000000E+00
(PID.TID 0000.0001) %MON AngleCS_sd                   =   0.0000000000000E+00
(PID.TID 0000.0001) %MON AngleSN_max                  =   0.0000000000000E+00
(PID.TID 0000.0001) %MON AngleSN_min                  =   0.0000000000000E+00
(PID.TID 0000.0001) %MON AngleSN_mean                 =   0.0000000000000E+00
(PID.TID 0000.0001) %MON AngleSN_sd                   =   0.0000000000000E+00
(PID.TID 0000.0001)  MDS_READ_FIELD: opening global file: bathy.box
(PID.TID 0000.0001)  MDS_READ_FIELD: opening global file: icetopo.exp1
(PID.TID 0000.0001) // =======================================================
(PID.TID 0000.0001) // Field Model R_low (ini_masks_etc)
(PID.TID 0000.0001) // CMIN =         -9.000000000000000E+02
(PID.TID 0000.0001) // CMAX =         -9.000000000000000E+02
(PID.TID 0000.0001) // CINT =          0.000000000000000E+00
(PID.TID 0000.0001) // SYMBOLS (CMIN->CMAX): -abcdefghijklmnopqrstuvwxyz+
(PID.TID 0000.0001) //                  0.0: .
(PID.TID 0000.0001) // RANGE I (Lo:Hi:Step):(    -2:    53:     1)
(PID.TID 0000.0001) // RANGE J (Lo:Hi:Step):(   103:    -2:    -1)
(PID.TID 0000.0001) // RANGE K (Lo:Hi:Step):(   1:   1:   1)
(PID.TID 0000.0001) // =======================================================
(PID.TID 0000.0001) // =======================================================
(PID.TID 0000.0001) // END OF FIELD                                          =
(PID.TID 0000.0001) // =======================================================
(PID.TID 0000.0001) 
(PID.TID 0000.0001) // =======================================================
(PID.TID 0000.0001) // Field Model Ro_surf (ini_masks_etc)
(PID.TID 0000.0001) // CMIN =         -6.812500000000010E+02
(PID.TID 0000.0001) // CMAX =         -2.000000000000000E+02
(PID.TID 0000.0001) // CINT =          1.782407407407411E+01
(PID.TID 0000.0001) // SYMBOLS (CMIN->CMAX): -abcdefghijklmnopqrstuvwxyz+
(PID.TID 0000.0001) //                  0.0: .
(PID.TID 0000.0001) // RANGE I (Lo:Hi:Step):(    -2:    53:     1)
(PID.TID 0000.0001) // RANGE J (Lo:Hi:Step):(   103:    -2:    -1)
(PID.TID 0000.0001) // RANGE K (Lo:Hi:Step):(   1:   1:   1)
(PID.TID 0000.0001) // =======================================================
(PID.TID 0000.0001) K =   1
(PID.TID 0000.0001) //                I=7       I=17      I=27      I=31      I=41      I=51
(PID.TID 0000.0001) // |--J--|210123456|890123456|890123456|834567890|234567890|234567890|23
(PID.TID 0000.0001) //    103 aaa.aaaaaaaaaaaaaaaaaaaaaaaaaaaaaaaaaaaaaaaaaaaaaaaaaaaaaaa.aa
(PID.TID 0000.0001) //    102 ---.-------------------------------------------------------.--
(PID.TID 0000.0001) //    101 ..............................................................
(PID.TID 0000.0001) //    100 +++.+++++++++++++++++++++++++++++++++++++++++++++++++++++++.++
(PID.TID 0000.0001) //     99 +++.+++++++++++++++++++++++++++++++++++++++++++++++++++++++.++
(PID.TID 0000.0001) //     98 +++.+++++++++++++++++++++++++++++++++++++++++++++++++++++++.++
(PID.TID 0000.0001) //     97 +++.+++++++++++++++++++++++++++++++++++++++++++++++++++++++.++
(PID.TID 0000.0001) //     96 +++.+++++++++++++++++++++++++++++++++++++++++++++++++++++++.++
(PID.TID 0000.0001) //     95 +++.+++++++++++++++++++++++++++++++++++++++++++++++++++++++.++
(PID.TID 0000.0001) //     94 +++.+++++++++++++++++++++++++++++++++++++++++++++++++++++++.++
(PID.TID 0000.0001) //     93 +++.+++++++++++++++++++++++++++++++++++++++++++++++++++++++.++
(PID.TID 0000.0001) //     92 +++.+++++++++++++++++++++++++++++++++++++++++++++++++++++++.++
(PID.TID 0000.0001) //     91 +++.+++++++++++++++++++++++++++++++++++++++++++++++++++++++.++
(PID.TID 0000.0001) //     90 +++.+++++++++++++++++++++++++++++++++++++++++++++++++++++++.++
(PID.TID 0000.0001) //     89 +++.+++++++++++++++++++++++++++++++++++++++++++++++++++++++.++
(PID.TID 0000.0001) //     88 +++.+++++++++++++++++++++++++++++++++++++++++++++++++++++++.++
(PID.TID 0000.0001) //     87 +++.+++++++++++++++++++++++++++++++++++++++++++++++++++++++.++
(PID.TID 0000.0001) //     86 +++.+++++++++++++++++++++++++++++++++++++++++++++++++++++++.++
(PID.TID 0000.0001) //     85 +++.+++++++++++++++++++++++++++++++++++++++++++++++++++++++.++
(PID.TID 0000.0001) //     84 +++.+++++++++++++++++++++++++++++++++++++++++++++++++++++++.++
(PID.TID 0000.0001) //     83 +++.+++++++++++++++++++++++++++++++++++++++++++++++++++++++.++
(PID.TID 0000.0001) //     82 +++.+++++++++++++++++++++++++++++++++++++++++++++++++++++++.++
(PID.TID 0000.0001) //     81 +++.+++++++++++++++++++++++++++++++++++++++++++++++++++++++.++
(PID.TID 0000.0001) //     80 +++.+++++++++++++++++++++++++++++++++++++++++++++++++++++++.++
(PID.TID 0000.0001) //     79 +++.+++++++++++++++++++++++++++++++++++++++++++++++++++++++.++
(PID.TID 0000.0001) //     78 +++.+++++++++++++++++++++++++++++++++++++++++++++++++++++++.++
(PID.TID 0000.0001) //     77 +++.+++++++++++++++++++++++++++++++++++++++++++++++++++++++.++
(PID.TID 0000.0001) //     76 +++.+++++++++++++++++++++++++++++++++++++++++++++++++++++++.++
(PID.TID 0000.0001) //     75 +++.+++++++++++++++++++++++++++++++++++++++++++++++++++++++.++
(PID.TID 0000.0001) //     74 +++.+++++++++++++++++++++++++++++++++++++++++++++++++++++++.++
(PID.TID 0000.0001) //     73 +++.+++++++++++++++++++++++++++++++++++++++++++++++++++++++.++
(PID.TID 0000.0001) //     78 +++.+++++++++++++++++++++++++++++++++++++++++++++++++++++++.++
(PID.TID 0000.0001) //     77 +++.+++++++++++++++++++++++++++++++++++++++++++++++++++++++.++
(PID.TID 0000.0001) //     76 +++.+++++++++++++++++++++++++++++++++++++++++++++++++++++++.++
(PID.TID 0000.0001) //     75 +++.+++++++++++++++++++++++++++++++++++++++++++++++++++++++.++
(PID.TID 0000.0001) //     74 +++.+++++++++++++++++++++++++++++++++++++++++++++++++++++++.++
(PID.TID 0000.0001) //     73 +++.+++++++++++++++++++++++++++++++++++++++++++++++++++++++.++
(PID.TID 0000.0001) //     72 +++.+++++++++++++++++++++++++++++++++++++++++++++++++++++++.++
(PID.TID 0000.0001) //     71 +++.+++++++++++++++++++++++++++++++++++++++++++++++++++++++.++
(PID.TID 0000.0001) //     70 +++.+++++++++++++++++++++++++++++++++++++++++++++++++++++++.++
(PID.TID 0000.0001) //     69 +++.+++++++++++++++++++++++++++++++++++++++++++++++++++++++.++
(PID.TID 0000.0001) //     68 +++.+++++++++++++++++++++++++++++++++++++++++++++++++++++++.++
(PID.TID 0000.0001) //     67 +++.+++++++++++++++++++++++++++++++++++++++++++++++++++++++.++
(PID.TID 0000.0001) //     66 +++.+++++++++++++++++++++++++++++++++++++++++++++++++++++++.++
(PID.TID 0000.0001) //     65 +++.+++++++++++++++++++++++++++++++++++++++++++++++++++++++.++
(PID.TID 0000.0001) //     64 +++.+++++++++++++++++++++++++++++++++++++++++++++++++++++++.++
(PID.TID 0000.0001) //     63 +++.+++++++++++++++++++++++++++++++++++++++++++++++++++++++.++
(PID.TID 0000.0001) //     62 +++.+++++++++++++++++++++++++++++++++++++++++++++++++++++++.++
(PID.TID 0000.0001) //     61 +++.+++++++++++++++++++++++++++++++++++++++++++++++++++++++.++
(PID.TID 0000.0001) //     60 +++.+++++++++++++++++++++++++++++++++++++++++++++++++++++++.++
(PID.TID 0000.0001) //     59 +++.+++++++++++++++++++++++++++++++++++++++++++++++++++++++.++
(PID.TID 0000.0001) //     58 +++.+++++++++++++++++++++++++++++++++++++++++++++++++++++++.++
(PID.TID 0000.0001) //     57 +++.+++++++++++++++++++++++++++++++++++++++++++++++++++++++.++
(PID.TID 0000.0001) //     56 +++.+++++++++++++++++++++++++++++++++++++++++++++++++++++++.++
(PID.TID 0000.0001) //     55 +++.+++++++++++++++++++++++++++++++++++++++++++++++++++++++.++
(PID.TID 0000.0001) //     54 +++.+++++++++++++++++++++++++++++++++++++++++++++++++++++++.++
(PID.TID 0000.0001) //     53 +++.+++++++++++++++++++++++++++++++++++++++++++++++++++++++.++
(PID.TID 0000.0001) //     52 +++.+++++++++++++++++++++++++++++++++++++++++++++++++++++++.++
(PID.TID 0000.0001) //     51 +++.+++++++++++++++++++++++++++++++++++++++++++++++++++++++.++
(PID.TID 0000.0001) //     50 +++.+++++++++++++++++++++++++++++++++++++++++++++++++++++++.++
(PID.TID 0000.0001) //     49 +++.+++++++++++++++++++++++++++++++++++++++++++++++++++++++.++
(PID.TID 0000.0001) //     48 +++.+++++++++++++++++++++++++++++++++++++++++++++++++++++++.++
(PID.TID 0000.0001) //     53 +++.+++++++++++++++++++++++++++++++++++++++++++++++++++++++.++
(PID.TID 0000.0001) //     52 +++.+++++++++++++++++++++++++++++++++++++++++++++++++++++++.++
(PID.TID 0000.0001) //     51 +++.+++++++++++++++++++++++++++++++++++++++++++++++++++++++.++
(PID.TID 0000.0001) //     50 +++.+++++++++++++++++++++++++++++++++++++++++++++++++++++++.++
(PID.TID 0000.0001) //     49 +++.+++++++++++++++++++++++++++++++++++++++++++++++++++++++.++
(PID.TID 0000.0001) //     48 +++.+++++++++++++++++++++++++++++++++++++++++++++++++++++++.++
(PID.TID 0000.0001) //     47 +++.+++++++++++++++++++++++++++++++++++++++++++++++++++++++.++
(PID.TID 0000.0001) //     46 +++.+++++++++++++++++++++++++++++++++++++++++++++++++++++++.++
(PID.TID 0000.0001) //     45 +++.+++++++++++++++++++++++++++++++++++++++++++++++++++++++.++
(PID.TID 0000.0001) //     44 +++.+++++++++++++++++++++++++++++++++++++++++++++++++++++++.++
(PID.TID 0000.0001) //     43 +++.+++++++++++++++++++++++++++++++++++++++++++++++++++++++.++
(PID.TID 0000.0001) //     42 +++.+++++++++++++++++++++++++++++++++++++++++++++++++++++++.++
(PID.TID 0000.0001) //     41 +++.+++++++++++++++++++++++++++++++++++++++++++++++++++++++.++
(PID.TID 0000.0001) //     40 +++.+++++++++++++++++++++++++++++++++++++++++++++++++++++++.++
(PID.TID 0000.0001) //     39 zzz.zzzzzzzzzzzzzzzzzzzzzzzzzzzzzzzzzzzzzzzzzzzzzzzzzzzzzzz.zz
(PID.TID 0000.0001) //     38 yyy.yyyyyyyyyyyyyyyyyyyyyyyyyyyyyyyyyyyyyyyyyyyyyyyyyyyyyyy.yy
(PID.TID 0000.0001) //     37 yyy.yyyyyyyyyyyyyyyyyyyyyyyyyyyyyyyyyyyyyyyyyyyyyyyyyyyyyyy.yy
(PID.TID 0000.0001) //     36 xxx.xxxxxxxxxxxxxxxxxxxxxxxxxxxxxxxxxxxxxxxxxxxxxxxxxxxxxxx.xx
(PID.TID 0000.0001) //     35 www.wwwwwwwwwwwwwwwwwwwwwwwwwwwwwwwwwwwwwwwwwwwwwwwwwwwwwww.ww
(PID.TID 0000.0001) //     34 vvv.vvvvvvvvvvvvvvvvvvvvvvvvvvvvvvvvvvvvvvvvvvvvvvvvvvvvvvv.vv
(PID.TID 0000.0001) //     33 vvv.vvvvvvvvvvvvvvvvvvvvvvvvvvvvvvvvvvvvvvvvvvvvvvvvvvvvvvv.vv
(PID.TID 0000.0001) //     32 uuu.uuuuuuuuuuuuuuuuuuuuuuuuuuuuuuuuuuuuuuuuuuuuuuuuuuuuuuu.uu
(PID.TID 0000.0001) //     31 ttt.ttttttttttttttttttttttttttttttttttttttttttttttttttttttt.tt
(PID.TID 0000.0001) //     30 ttt.ttttttttttttttttttttttttttttttttttttttttttttttttttttttt.tt
(PID.TID 0000.0001) //     29 sss.sssssssssssssssssssssssssssssssssssssssssssssssssssssss.ss
(PID.TID 0000.0001) //     28 rrr.rrrrrrrrrrrrrrrrrrrrrrrrrrrrrrrrrrrrrrrrrrrrrrrrrrrrrrr.rr
(PID.TID 0000.0001) //     27 rrr.rrrrrrrrrrrrrrrrrrrrrrrrrrrrrrrrrrrrrrrrrrrrrrrrrrrrrrr.rr
(PID.TID 0000.0001) //     26 qqq.qqqqqqqqqqqqqqqqqqqqqqqqqqqqqqqqqqqqqqqqqqqqqqqqqqqqqqq.qq
(PID.TID 0000.0001) //     25 ppp.ppppppppppppppppppppppppppppppppppppppppppppppppppppppp.pp
(PID.TID 0000.0001) //     24 ooo.ooooooooooooooooooooooooooooooooooooooooooooooooooooooo.oo
(PID.TID 0000.0001) //     23 ooo.ooooooooooooooooooooooooooooooooooooooooooooooooooooooo.oo
(PID.TID 0000.0001) //     28 rrr.rrrrrrrrrrrrrrrrrrrrrrrrrrrrrrrrrrrrrrrrrrrrrrrrrrrrrrr.rr
(PID.TID 0000.0001) //     27 rrr.rrrrrrrrrrrrrrrrrrrrrrrrrrrrrrrrrrrrrrrrrrrrrrrrrrrrrrr.rr
(PID.TID 0000.0001) //     26 qqq.qqqqqqqqqqqqqqqqqqqqqqqqqqqqqqqqqqqqqqqqqqqqqqqqqqqqqqq.qq
(PID.TID 0000.0001) //     25 ppp.ppppppppppppppppppppppppppppppppppppppppppppppppppppppp.pp
(PID.TID 0000.0001) //     24 ooo.ooooooooooooooooooooooooooooooooooooooooooooooooooooooo.oo
(PID.TID 0000.0001) //     23 ooo.ooooooooooooooooooooooooooooooooooooooooooooooooooooooo.oo
(PID.TID 0000.0001) //     22 nnn.nnnnnnnnnnnnnnnnnnnnnnnnnnnnnnnnnnnnnnnnnnnnnnnnnnnnnnn.nn
(PID.TID 0000.0001) //     21 mmm.mmmmmmmmmmmmmmmmmmmmmmmmmmmmmmmmmmmmmmmmmmmmmmmmmmmmmmm.mm
(PID.TID 0000.0001) //     20 mmm.mmmmmmmmmmmmmmmmmmmmmmmmmmmmmmmmmmmmmmmmmmmmmmmmmmmmmmm.mm
(PID.TID 0000.0001) //     19 lll.lllllllllllllllllllllllllllllllllllllllllllllllllllllll.ll
(PID.TID 0000.0001) //     18 kkk.kkkkkkkkkkkkkkkkkkkkkkkkkkkkkkkkkkkkkkkkkkkkkkkkkkkkkkk.kk
(PID.TID 0000.0001) //     17 kkk.kkkkkkkkkkkkkkkkkkkkkkkkkkkkkkkkkkkkkkkkkkkkkkkkkkkkkkk.kk
(PID.TID 0000.0001) //     16 jjj.jjjjjjjjjjjjjjjjjjjjjjjjjjjjjjjjjjjjjjjjjjjjjjjjjjjjjjj.jj
(PID.TID 0000.0001) //     15 iii.iiiiiiiiiiiiiiiiiiiiiiiiiiiiiiiiiiiiiiiiiiiiiiiiiiiiiii.ii
(PID.TID 0000.0001) //     14 hhh.hhhhhhhhhhhhhhhhhhhhhhhhhhhhhhhhhhhhhhhhhhhhhhhhhhhhhhh.hh
(PID.TID 0000.0001) //     13 hhh.hhhhhhhhhhhhhhhhhhhhhhhhhhhhhhhhhhhhhhhhhhhhhhhhhhhhhhh.hh
(PID.TID 0000.0001) //     12 ggg.ggggggggggggggggggggggggggggggggggggggggggggggggggggggg.gg
(PID.TID 0000.0001) //     11 fff.fffffffffffffffffffffffffffffffffffffffffffffffffffffff.ff
(PID.TID 0000.0001) //     10 fff.fffffffffffffffffffffffffffffffffffffffffffffffffffffff.ff
(PID.TID 0000.0001) //      9 eee.eeeeeeeeeeeeeeeeeeeeeeeeeeeeeeeeeeeeeeeeeeeeeeeeeeeeeee.ee
(PID.TID 0000.0001) //      8 ddd.ddddddddddddddddddddddddddddddddddddddddddddddddddddddd.dd
(PID.TID 0000.0001) //      7 ddd.ddddddddddddddddddddddddddddddddddddddddddddddddddddddd.dd
(PID.TID 0000.0001) //      6 ccc.ccccccccccccccccccccccccccccccccccccccccccccccccccccccc.cc
(PID.TID 0000.0001) //      5 bbb.bbbbbbbbbbbbbbbbbbbbbbbbbbbbbbbbbbbbbbbbbbbbbbbbbbbbbbb.bb
(PID.TID 0000.0001) //      4 aaa.aaaaaaaaaaaaaaaaaaaaaaaaaaaaaaaaaaaaaaaaaaaaaaaaaaaaaaa.aa
(PID.TID 0000.0001) //      3 aaa.aaaaaaaaaaaaaaaaaaaaaaaaaaaaaaaaaaaaaaaaaaaaaaaaaaaaaaa.aa
(PID.TID 0000.0001) //      2 ---.-------------------------------------------------------.--
(PID.TID 0000.0001) //      1 ..............................................................
(PID.TID 0000.0001) //      0 +++.+++++++++++++++++++++++++++++++++++++++++++++++++++++++.++
(PID.TID 0000.0001) //     -1 +++.+++++++++++++++++++++++++++++++++++++++++++++++++++++++.++
(PID.TID 0000.0001) //     -2 +++.+++++++++++++++++++++++++++++++++++++++++++++++++++++++.++
(PID.TID 0000.0001) // =======================================================
(PID.TID 0000.0001) // END OF FIELD                                          =
(PID.TID 0000.0001) // =======================================================
(PID.TID 0000.0001) 
(PID.TID 0000.0001) // =======================================================
(PID.TID 0000.0001) // Field hFacC at iteration          0
(PID.TID 0000.0001) // CMIN =          1.000000000000000E+32
(PID.TID 0000.0001) // CMAX =         -1.000000000000000E+32
(PID.TID 0000.0001) // CINT =          0.000000000000000E+00
(PID.TID 0000.0001) // SYMBOLS (CMIN->CMAX): -abcdefghijklmnopqrstuvwxyz+
(PID.TID 0000.0001) //                  0.0: .
(PID.TID 0000.0001) // RANGE I (Lo:Hi:Step):(    -2:    53:     1)
(PID.TID 0000.0001) // RANGE J (Lo:Hi:Step):(   103:    -2:    -1)
(PID.TID 0000.0001) // RANGE K (Lo:Hi:Step):(   1:   1:   1)
(PID.TID 0000.0001) // =======================================================
(PID.TID 0000.0001) // =======================================================
(PID.TID 0000.0001) // END OF FIELD                                          =
(PID.TID 0000.0001) // =======================================================
(PID.TID 0000.0001) 
(PID.TID 0000.0001) // =======================================================
(PID.TID 0000.0001) // Field hFacW at iteration          0
(PID.TID 0000.0001) // CMIN =          1.000000000000000E+32
(PID.TID 0000.0001) // CMAX =         -1.000000000000000E+32
(PID.TID 0000.0001) // CINT =          0.000000000000000E+00
(PID.TID 0000.0001) // SYMBOLS (CMIN->CMAX): -abcdefghijklmnopqrstuvwxyz+
(PID.TID 0000.0001) //                  0.0: .
(PID.TID 0000.0001) // RANGE I (Lo:Hi:Step):(    -2:    53:     1)
(PID.TID 0000.0001) // RANGE J (Lo:Hi:Step):(   103:    -2:    -1)
(PID.TID 0000.0001) // RANGE K (Lo:Hi:Step):(   1:   1:   1)
(PID.TID 0000.0001) // =======================================================
(PID.TID 0000.0001) // =======================================================
(PID.TID 0000.0001) // END OF FIELD                                          =
(PID.TID 0000.0001) // =======================================================
(PID.TID 0000.0001) 
(PID.TID 0000.0001) // =======================================================
(PID.TID 0000.0001) // Field hFacS at iteration          0
(PID.TID 0000.0001) // CMIN =          1.000000000000000E+32
(PID.TID 0000.0001) // CMAX =         -1.000000000000000E+32
(PID.TID 0000.0001) // CINT =          0.000000000000000E+00
(PID.TID 0000.0001) // SYMBOLS (CMIN->CMAX): -abcdefghijklmnopqrstuvwxyz+
(PID.TID 0000.0001) //                  0.0: .
(PID.TID 0000.0001) // RANGE I (Lo:Hi:Step):(    -2:    53:     1)
(PID.TID 0000.0001) // RANGE J (Lo:Hi:Step):(   103:    -2:    -1)
(PID.TID 0000.0001) // RANGE K (Lo:Hi:Step):(   1:   1:   1)
(PID.TID 0000.0001) // =======================================================
(PID.TID 0000.0001) // =======================================================
(PID.TID 0000.0001) // END OF FIELD                                          =
(PID.TID 0000.0001) // =======================================================
(PID.TID 0000.0001) 
(PID.TID 0000.0001) GAD_INIT_FIXED: GAD_OlMinSize=  1  0  1
(PID.TID 0000.0001) 
(PID.TID 0000.0001) // ===================================
(PID.TID 0000.0001) // GAD parameters :
(PID.TID 0000.0001) // ===================================
(PID.TID 0000.0001) tempAdvScheme =   /* Temp. Horiz.Advection scheme selector */
(PID.TID 0000.0001)                       2
(PID.TID 0000.0001)     ;
(PID.TID 0000.0001) tempVertAdvScheme =   /* Temp. Vert. Advection scheme selector */
(PID.TID 0000.0001)                       2
(PID.TID 0000.0001)     ;
(PID.TID 0000.0001) tempMultiDimAdvec =   /* use Muti-Dim Advec method for Temp */
(PID.TID 0000.0001)                   F
(PID.TID 0000.0001)     ;
(PID.TID 0000.0001) tempSOM_Advection = /* use 2nd Order Moment Advection for Temp */
(PID.TID 0000.0001)                   F
(PID.TID 0000.0001)     ;
(PID.TID 0000.0001) AdamsBashforthGt = /* apply Adams-Bashforth extrapolation on Gt */
(PID.TID 0000.0001)                   T
(PID.TID 0000.0001)     ;
(PID.TID 0000.0001) AdamsBashforth_T = /* apply Adams-Bashforth extrapolation on Temp */
(PID.TID 0000.0001)                   F
(PID.TID 0000.0001)     ;
(PID.TID 0000.0001) saltAdvScheme =   /* Salt. Horiz.advection scheme selector */
(PID.TID 0000.0001)                       2
(PID.TID 0000.0001)     ;
(PID.TID 0000.0001) saltVertAdvScheme =   /* Salt. Vert. Advection scheme selector */
(PID.TID 0000.0001)                       2
(PID.TID 0000.0001)     ;
(PID.TID 0000.0001) saltMultiDimAdvec =   /* use Muti-Dim Advec method for Salt */
(PID.TID 0000.0001)                   F
(PID.TID 0000.0001)     ;
(PID.TID 0000.0001) saltSOM_Advection = /* use 2nd Order Moment Advection for Salt */
(PID.TID 0000.0001)                   F
(PID.TID 0000.0001)     ;
(PID.TID 0000.0001) AdamsBashforthGs = /* apply Adams-Bashforth extrapolation on Gs */
(PID.TID 0000.0001)                   T
(PID.TID 0000.0001)     ;
(PID.TID 0000.0001) AdamsBashforth_S = /* apply Adams-Bashforth extrapolation on Salt */
(PID.TID 0000.0001)                   F
(PID.TID 0000.0001)     ;
(PID.TID 0000.0001) // ===================================
(PID.TID 0000.0001)  MDS_READ_FIELD: opening global file: phi0surf.exp1.jmd95z
(PID.TID 0000.0001) %MON fCori_max                    =  -1.3709057042516E-04
(PID.TID 0000.0001) %MON fCori_min                    =  -1.4360464034757E-04
(PID.TID 0000.0001) %MON fCori_mean                   =  -1.4069429304698E-04
(PID.TID 0000.0001) %MON fCori_sd                     =   1.9069739624987E-06
(PID.TID 0000.0001) %MON fCoriG_max                   =  -1.3713394327439E-04
(PID.TID 0000.0001) %MON fCoriG_min                   =  -1.4362679550910E-04
(PID.TID 0000.0001) %MON fCoriG_mean                  =  -1.4072713798624E-04
(PID.TID 0000.0001) %MON fCoriG_sd                    =   1.9008093726821E-06
(PID.TID 0000.0001) %MON fCoriCos_max                 =   4.9761447480159E-05
(PID.TID 0000.0001) %MON fCoriCos_min                 =   2.5450607565678E-05
(PID.TID 0000.0001) %MON fCoriCos_mean                =   3.7698922201606E-05
(PID.TID 0000.0001) %MON fCoriCos_sd                  =   7.0920218535055E-06
(PID.TID 0000.0001) INI_CG2D: CG2D normalisation factor =  1.0404366262810520E-03
(PID.TID 0000.0001) 
(PID.TID 0000.0001) // =======================================================
(PID.TID 0000.0001) // Model configuration
(PID.TID 0000.0001) // =======================================================
(PID.TID 0000.0001) //
(PID.TID 0000.0001) // "Physical" paramters ( PARM01 in namelist )
(PID.TID 0000.0001) //
(PID.TID 0000.0001) buoyancyRelation = /* Type of relation to get Buoyancy */
(PID.TID 0000.0001)               'OCEANIC'
(PID.TID 0000.0001)     ;
(PID.TID 0000.0001) fluidIsAir   =  /* fluid major constituent is Air */
(PID.TID 0000.0001)                   F
(PID.TID 0000.0001)     ;
(PID.TID 0000.0001) fluidIsWater =  /* fluid major constituent is Water */
(PID.TID 0000.0001)                   T
(PID.TID 0000.0001)     ;
(PID.TID 0000.0001) usingPCoords =  /* use p (or p*) vertical coordinate */
(PID.TID 0000.0001)                   F
(PID.TID 0000.0001)     ;
(PID.TID 0000.0001) usingZCoords =  /* use z (or z*) vertical coordinate */
(PID.TID 0000.0001)                   T
(PID.TID 0000.0001)     ;
(PID.TID 0000.0001) tRef =   /* Reference temperature profile ( oC or K ) */
(PID.TID 0000.0001)    30 @ -1.900000000000000E+00              /* K =  1: 30 */
(PID.TID 0000.0001)     ;
(PID.TID 0000.0001) sRef =   /* Reference salinity profile ( g/kg ) */
(PID.TID 0000.0001)    30 @  3.440000000000000E+01              /* K =  1: 30 */
(PID.TID 0000.0001)     ;
(PID.TID 0000.0001) useStrainTensionVisc= /* Use StrainTension Form of Viscous Operator */
(PID.TID 0000.0001)                   F
(PID.TID 0000.0001)     ;
(PID.TID 0000.0001) useVariableVisc = /* Use variable horizontal viscosity */
(PID.TID 0000.0001)                   F
(PID.TID 0000.0001)     ;
(PID.TID 0000.0001) useHarmonicVisc = /* Use harmonic horizontal viscosity */
(PID.TID 0000.0001)                   T
(PID.TID 0000.0001)     ;
(PID.TID 0000.0001) useBiharmonicVisc= /* Use biharmonic horiz.  viscosity */
(PID.TID 0000.0001)                   F
(PID.TID 0000.0001)     ;
(PID.TID 0000.0001) useSmag3D = /* Use isotropic 3-D Smagorinsky viscosity */
(PID.TID 0000.0001)                   F
(PID.TID 0000.0001)     ;
(PID.TID 0000.0001) viscAh  =   /* Lateral harmonic viscosity ( m^2/s ) */
(PID.TID 0000.0001)                 6.000000000000000E+02
(PID.TID 0000.0001)     ;
(PID.TID 0000.0001) viscA4  =   /* Lateral biharmonic viscosity ( m^4/s ) */
(PID.TID 0000.0001)                 0.000000000000000E+00
(PID.TID 0000.0001)     ;
(PID.TID 0000.0001) no_slip_sides =  /* Viscous BCs: No-slip sides */
(PID.TID 0000.0001)                   F
(PID.TID 0000.0001)     ;
(PID.TID 0000.0001) sideDragFactor = /* side-drag scaling factor (non-dim) */
(PID.TID 0000.0001)                 2.000000000000000E+00
(PID.TID 0000.0001)     ;
(PID.TID 0000.0001) viscArNr = /* vertical profile of vertical viscosity ( m^2/s )*/
(PID.TID 0000.0001)    30 @  1.000000000000000E-03              /* K =  1: 30 */
(PID.TID 0000.0001)     ;
(PID.TID 0000.0001) no_slip_bottom =  /* Viscous BCs: No-slip bottom */
(PID.TID 0000.0001)                   F
(PID.TID 0000.0001)     ;
(PID.TID 0000.0001) bottomVisc_pCell = /* Partial-cell in bottom Visc. BC */
(PID.TID 0000.0001)                   F
(PID.TID 0000.0001)     ;
(PID.TID 0000.0001) bottomDragLinear = /* linear bottom-drag coefficient ( m/s ) */
(PID.TID 0000.0001)                 0.000000000000000E+00
(PID.TID 0000.0001)     ;
(PID.TID 0000.0001) bottomDragQuadratic = /* quadratic bottom-drag coefficient (-) */
(PID.TID 0000.0001)                 2.500000000000000E-03
(PID.TID 0000.0001)     ;
(PID.TID 0000.0001) selectBotDragQuadr = /* select quadratic bottom drag options */
(PID.TID 0000.0001)                       0
(PID.TID 0000.0001)     ;
(PID.TID 0000.0001) diffKhT =   /* Laplacian diffusion of heat laterally ( m^2/s ) */
(PID.TID 0000.0001)                 1.000000000000000E+02
(PID.TID 0000.0001)     ;
(PID.TID 0000.0001) diffK4T =   /* Biharmonic diffusion of heat laterally ( m^4/s ) */
(PID.TID 0000.0001)                 0.000000000000000E+00
(PID.TID 0000.0001)     ;
(PID.TID 0000.0001) diffKhS =   /* Laplacian diffusion of salt laterally ( m^2/s ) */
(PID.TID 0000.0001)                 1.000000000000000E+02
(PID.TID 0000.0001)     ;
(PID.TID 0000.0001) diffK4S =   /* Biharmonic diffusion of salt laterally ( m^4/s ) */
(PID.TID 0000.0001)                 0.000000000000000E+00
(PID.TID 0000.0001)     ;
(PID.TID 0000.0001) diffKrNrT = /* vertical profile of vertical diffusion of Temp ( m^2/s )*/
(PID.TID 0000.0001)    30 @  5.000000000000000E-05              /* K =  1: 30 */
(PID.TID 0000.0001)     ;
(PID.TID 0000.0001) diffKrNrS = /* vertical profile of vertical diffusion of Salt ( m^2/s )*/
(PID.TID 0000.0001)    30 @  5.000000000000000E-05              /* K =  1: 30 */
(PID.TID 0000.0001)     ;
(PID.TID 0000.0001) diffKrBL79surf = /* Surface diffusion for Bryan and Lewis 79 ( m^2/s ) */
(PID.TID 0000.0001)                 0.000000000000000E+00
(PID.TID 0000.0001)     ;
(PID.TID 0000.0001) diffKrBL79deep = /* Deep diffusion for Bryan and Lewis 1979 ( m^2/s ) */
(PID.TID 0000.0001)                 0.000000000000000E+00
(PID.TID 0000.0001)     ;
(PID.TID 0000.0001) diffKrBL79scl = /* Depth scale for Bryan and Lewis 1979 ( m ) */
(PID.TID 0000.0001)                 2.000000000000000E+02
(PID.TID 0000.0001)     ;
(PID.TID 0000.0001) diffKrBL79Ho = /* Turning depth for Bryan and Lewis 1979 ( m ) */
(PID.TID 0000.0001)                -2.000000000000000E+03
(PID.TID 0000.0001)     ;
(PID.TID 0000.0001) ivdc_kappa = /* Implicit Vertical Diffusivity for Convection ( m^2/s) */
(PID.TID 0000.0001)                 0.000000000000000E+00
(PID.TID 0000.0001)     ;
(PID.TID 0000.0001) hMixCriteria=  /* Criteria for mixed-layer diagnostic */
(PID.TID 0000.0001)                -8.000000000000000E-01
(PID.TID 0000.0001)     ;
(PID.TID 0000.0001) dRhoSmall =  /* Parameter for mixed-layer diagnostic */
(PID.TID 0000.0001)                 1.000000000000000E-06
(PID.TID 0000.0001)     ;
(PID.TID 0000.0001) hMixSmooth=  /* Smoothing parameter for mixed-layer diagnostic */
(PID.TID 0000.0001)                 0.000000000000000E+00
(PID.TID 0000.0001)     ;
(PID.TID 0000.0001) eosType =  /* Type of Equation of State */
(PID.TID 0000.0001)               'JMD95Z'
(PID.TID 0000.0001)     ;
(PID.TID 0000.0001) eosRefP0 = /* Reference atmospheric pressure for EOS ( Pa ) */
(PID.TID 0000.0001)                 1.013250000000000E+05
(PID.TID 0000.0001)     ;
(PID.TID 0000.0001) selectP_inEOS_Zc = /* select pressure to use in EOS (0,1,2,3) */
(PID.TID 0000.0001)                       0
(PID.TID 0000.0001)     0= -g*rhoConst*z ; 1= pRef (from tRef,sRef); 2= Hyd P ; 3= Hyd+NH P
(PID.TID 0000.0001)     ;
(PID.TID 0000.0001) surf_pRef = /* Surface reference pressure ( Pa ) */
(PID.TID 0000.0001)                 1.013250000000000E+05
(PID.TID 0000.0001)     ;
(PID.TID 0000.0001) HeatCapacity_Cp =  /* Specific heat capacity ( J/kg/K ) */
(PID.TID 0000.0001)                 3.974000000000000E+03
(PID.TID 0000.0001)     ;
(PID.TID 0000.0001) celsius2K = /* 0 degree Celsius converted to Kelvin ( K ) */
(PID.TID 0000.0001)                 2.731500000000000E+02
(PID.TID 0000.0001)     ;
(PID.TID 0000.0001) rhoConst  = /* Reference density (Boussinesq)  ( kg/m^3 ) */
(PID.TID 0000.0001)                 1.030000000000000E+03
(PID.TID 0000.0001)     ;
(PID.TID 0000.0001) rhoFacC = /* normalized Reference density @ cell-Center (-) */
(PID.TID 0000.0001)    30 @  1.000000000000000E+00              /* K =  1: 30 */
(PID.TID 0000.0001)     ;
(PID.TID 0000.0001) rhoFacF = /* normalized Reference density @ W-Interface (-) */
(PID.TID 0000.0001)    31 @  1.000000000000000E+00              /* K =  1: 31 */
(PID.TID 0000.0001)     ;
(PID.TID 0000.0001) rhoConstFresh = /* Fresh-water reference density ( kg/m^3 ) */
(PID.TID 0000.0001)                 1.030000000000000E+03
(PID.TID 0000.0001)     ;
(PID.TID 0000.0001) gravity =   /* Gravitational acceleration ( m/s^2 ) */
(PID.TID 0000.0001)                 9.810000000000000E+00
(PID.TID 0000.0001)     ;
(PID.TID 0000.0001) gBaro =   /* Barotropic gravity ( m/s^2 ) */
(PID.TID 0000.0001)                 9.810000000000000E+00
(PID.TID 0000.0001)     ;
(PID.TID 0000.0001) gravFacC = /* gravity factor (vs surf.) @ cell-Center (-) */
(PID.TID 0000.0001)    30 @  1.000000000000000E+00              /* K =  1: 30 */
(PID.TID 0000.0001)     ;
(PID.TID 0000.0001) gravFacF = /* gravity factor (vs surf.) @ W-Interface (-) */
(PID.TID 0000.0001)    31 @  1.000000000000000E+00              /* K =  1: 31 */
(PID.TID 0000.0001)     ;
(PID.TID 0000.0001) rotationPeriod =   /* Rotation Period ( s ) */
(PID.TID 0000.0001)                 8.616400000000000E+04
(PID.TID 0000.0001)     ;
(PID.TID 0000.0001) omega =   /* Angular velocity ( rad/s ) */
(PID.TID 0000.0001)                 7.292123516990375E-05
(PID.TID 0000.0001)     ;
(PID.TID 0000.0001) f0 =   /* Reference coriolis parameter ( 1/s ) */
(PID.TID 0000.0001)                 1.000000000000000E-04
(PID.TID 0000.0001)     ;
(PID.TID 0000.0001) beta =   /* Beta ( 1/(m.s) ) */
(PID.TID 0000.0001)                 9.999999999999999E-12
(PID.TID 0000.0001)     ;
(PID.TID 0000.0001) fPrime =   /* Second coriolis parameter ( 1/s ) */
(PID.TID 0000.0001)                 0.000000000000000E+00
(PID.TID 0000.0001)     ;
(PID.TID 0000.0001) rigidLid =   /* Rigid lid on/off flag */
(PID.TID 0000.0001)                   F
(PID.TID 0000.0001)     ;
(PID.TID 0000.0001) implicitFreeSurface =   /* Implicit free surface on/off flag */
(PID.TID 0000.0001)                   T
(PID.TID 0000.0001)     ;
(PID.TID 0000.0001) freeSurfFac =   /* Implicit free surface factor */
(PID.TID 0000.0001)                 1.000000000000000E+00
(PID.TID 0000.0001)     ;
(PID.TID 0000.0001) implicSurfPress =  /* Surface Pressure implicit factor (0-1)*/
(PID.TID 0000.0001)                 1.000000000000000E+00
(PID.TID 0000.0001)     ;
(PID.TID 0000.0001) implicDiv2DFlow =  /* Barot. Flow Div. implicit factor (0-1)*/
(PID.TID 0000.0001)                 1.000000000000000E+00
(PID.TID 0000.0001)     ;
(PID.TID 0000.0001) uniformLin_PhiSurf = /* use uniform Bo_surf on/off flag*/
(PID.TID 0000.0001)                   T
(PID.TID 0000.0001)     ;
(PID.TID 0000.0001) uniformFreeSurfLev = /* free-surface level-index is uniform */
(PID.TID 0000.0001)                   F
(PID.TID 0000.0001)     ;
(PID.TID 0000.0001) hFacMin =   /* minimum partial cell factor (hFac) */
(PID.TID 0000.0001)                 5.000000000000000E-02
(PID.TID 0000.0001)     ;
(PID.TID 0000.0001) hFacMinDr = /* minimum partial cell thickness ( m) */
(PID.TID 0000.0001)                 0.000000000000000E+00
(PID.TID 0000.0001)     ;
(PID.TID 0000.0001) exactConserv =  /* Exact Volume Conservation on/off flag*/
(PID.TID 0000.0001)                   T
(PID.TID 0000.0001)     ;
(PID.TID 0000.0001) linFSConserveTr = /* Tracer correction for Lin Free Surface on/off flag*/
(PID.TID 0000.0001)                   F
(PID.TID 0000.0001)     ;
(PID.TID 0000.0001) nonlinFreeSurf = /* Non-linear Free Surf. options (-1,0,1,2,3)*/
(PID.TID 0000.0001)                       0
(PID.TID 0000.0001)      -1,0= Off ; 1,2,3= On, 2=+rescale gU,gV, 3=+update cg2d solv.
(PID.TID 0000.0001)     ;
(PID.TID 0000.0001) hFacInf =   /* lower threshold for hFac (nonlinFreeSurf only)*/
(PID.TID 0000.0001)                 2.000000000000000E-01
(PID.TID 0000.0001)     ;
(PID.TID 0000.0001) hFacSup =   /* upper threshold for hFac (nonlinFreeSurf only)*/
(PID.TID 0000.0001)                 2.000000000000000E+00
(PID.TID 0000.0001)     ;
(PID.TID 0000.0001) select_rStar = /* r* Vertical coord. options (=0 r coord.; >0 uses r*)*/
(PID.TID 0000.0001)                       0
(PID.TID 0000.0001)     ;
(PID.TID 0000.0001) useRealFreshWaterFlux = /* Real Fresh Water Flux on/off flag*/
(PID.TID 0000.0001)                   F
(PID.TID 0000.0001)     ;
(PID.TID 0000.0001) temp_EvPrRn = /* Temp. of Evap/Prec/R (UNSET=use local T)(oC)*/
(PID.TID 0000.0001)                 1.234567000000000E+05
(PID.TID 0000.0001)     ;
(PID.TID 0000.0001) salt_EvPrRn = /* Salin. of Evap/Prec/R (UNSET=use local S)(g/kg)*/
(PID.TID 0000.0001)                 0.000000000000000E+00
(PID.TID 0000.0001)     ;
(PID.TID 0000.0001) selectAddFluid = /* option for mass source/sink of fluid (=0: off) */
(PID.TID 0000.0001)                       0
(PID.TID 0000.0001)     ;
(PID.TID 0000.0001) temp_addMass = /* Temp. of addMass array (UNSET=use local T)(oC)*/
(PID.TID 0000.0001)                 1.234567000000000E+05
(PID.TID 0000.0001)     ;
(PID.TID 0000.0001) salt_addMass = /* Salin. of addMass array (UNSET=use local S)(g/kg)*/
(PID.TID 0000.0001)                 0.000000000000000E+00
(PID.TID 0000.0001)     ;
(PID.TID 0000.0001) convertFW2Salt = /* convert F.W. Flux to Salt Flux (-1=use local S)(g/kg)*/
(PID.TID 0000.0001)                 3.340000000000000E+01
(PID.TID 0000.0001)     ;
(PID.TID 0000.0001) use3Dsolver = /* use 3-D pressure solver on/off flag */
(PID.TID 0000.0001)                   F
(PID.TID 0000.0001)     ;
(PID.TID 0000.0001) nonHydrostatic =  /* Non-Hydrostatic on/off flag */
(PID.TID 0000.0001)                   F
(PID.TID 0000.0001)     ;
(PID.TID 0000.0001) nh_Am2 = /* Non-Hydrostatic terms scaling factor */
(PID.TID 0000.0001)                 1.000000000000000E+00
(PID.TID 0000.0001)     ;
(PID.TID 0000.0001) implicitNHPress = /* Non-Hyd Pressure implicit factor (0-1)*/
(PID.TID 0000.0001)                 1.000000000000000E+00
(PID.TID 0000.0001)     ;
(PID.TID 0000.0001) selectNHfreeSurf = /* Non-Hyd (free-)Surface option */
(PID.TID 0000.0001)                       0
(PID.TID 0000.0001)     ;
(PID.TID 0000.0001) quasiHydrostatic = /* Quasi-Hydrostatic on/off flag */
(PID.TID 0000.0001)                   F
(PID.TID 0000.0001)     ;
(PID.TID 0000.0001) calc_wVelocity = /* vertical velocity calculation on/off flag */
(PID.TID 0000.0001)                   T
(PID.TID 0000.0001)     ;
(PID.TID 0000.0001) momStepping =  /* Momentum equation on/off flag */
(PID.TID 0000.0001)                   T
(PID.TID 0000.0001)     ;
(PID.TID 0000.0001) vectorInvariantMomentum= /* Vector-Invariant Momentum on/off */
(PID.TID 0000.0001)                   F
(PID.TID 0000.0001)     ;
(PID.TID 0000.0001) momAdvection =  /* Momentum advection on/off flag */
(PID.TID 0000.0001)                   T
(PID.TID 0000.0001)     ;
(PID.TID 0000.0001) momViscosity =  /* Momentum viscosity on/off flag */
(PID.TID 0000.0001)                   T
(PID.TID 0000.0001)     ;
(PID.TID 0000.0001) momImplVertAdv= /* Momentum implicit vert. advection on/off*/
(PID.TID 0000.0001)                   F
(PID.TID 0000.0001)     ;
(PID.TID 0000.0001) implicitViscosity = /* Implicit viscosity on/off flag */
(PID.TID 0000.0001)                   F
(PID.TID 0000.0001)     ;
(PID.TID 0000.0001) selectImplicitDrag= /* Implicit bot Drag options (0,1,2)*/
(PID.TID 0000.0001)                       0
(PID.TID 0000.0001)     0= Expl. ; 1= Impl. on provis. Vel ; 2= Fully Impl (with surf.P)
(PID.TID 0000.0001)     ;
(PID.TID 0000.0001) metricTerms =  /* metric-Terms on/off flag */
(PID.TID 0000.0001)                   T
(PID.TID 0000.0001)     ;
(PID.TID 0000.0001) useNHMTerms = /* Non-Hydrostatic Metric-Terms on/off */
(PID.TID 0000.0001)                   F
(PID.TID 0000.0001)     ;
(PID.TID 0000.0001) selectCoriMap = /* Coriolis Map options (0,1,2,3)*/
(PID.TID 0000.0001)                       2
(PID.TID 0000.0001)     0= f-Plane ; 1= Beta-Plane ; 2= Spherical ; 3= read from file
(PID.TID 0000.0001)     ;
(PID.TID 0000.0001) use3dCoriolis = /* 3-D Coriolis on/off flag */
(PID.TID 0000.0001)                   F
(PID.TID 0000.0001)     ;
(PID.TID 0000.0001) useCoriolis =  /* Coriolis on/off flag */
(PID.TID 0000.0001)                   T
(PID.TID 0000.0001)     ;
(PID.TID 0000.0001) useCDscheme =  /* CD scheme on/off flag */
(PID.TID 0000.0001)                   T
(PID.TID 0000.0001)     ;
(PID.TID 0000.0001) selectCoriScheme= /* Scheme selector for Coriolis-Term */
(PID.TID 0000.0001)                       0
(PID.TID 0000.0001)    = 0 : original discretization (simple averaging, no hFac)
(PID.TID 0000.0001)    = 1 : Wet-point averaging (Jamar & Ozer 1986)
(PID.TID 0000.0001)    = 2 : energy conserving scheme (no hFac weight)
(PID.TID 0000.0001)    = 3 : energy conserving scheme using Wet-point averaging
(PID.TID 0000.0001)     ;
(PID.TID 0000.0001) momForcing =  /* Momentum forcing on/off flag */
(PID.TID 0000.0001)                   T
(PID.TID 0000.0001)     ;
(PID.TID 0000.0001) momTidalForcing = /* Momentum Tidal forcing on/off flag */
(PID.TID 0000.0001)                   T
(PID.TID 0000.0001)     ;
(PID.TID 0000.0001) momPressureForcing =  /* Momentum pressure term on/off flag */
(PID.TID 0000.0001)                   T
(PID.TID 0000.0001)     ;
(PID.TID 0000.0001) implicitIntGravWave= /* Implicit Internal Gravity Wave flag */
(PID.TID 0000.0001)                   F
(PID.TID 0000.0001)     ;
(PID.TID 0000.0001) staggerTimeStep =    /* Stagger time stepping on/off flag */
(PID.TID 0000.0001)                   F
(PID.TID 0000.0001)     ;
(PID.TID 0000.0001) doResetHFactors = /* reset thickness factors @ each time-step */
(PID.TID 0000.0001)                   F
(PID.TID 0000.0001)     ;
(PID.TID 0000.0001) multiDimAdvection =  /* enable/disable Multi-Dim Advection */
(PID.TID 0000.0001)                   T
(PID.TID 0000.0001)     ;
(PID.TID 0000.0001) useMultiDimAdvec =   /* Multi-Dim Advection is/is-not used */
(PID.TID 0000.0001)                   F
(PID.TID 0000.0001)     ;
(PID.TID 0000.0001) implicitDiffusion = /* Implicit Diffusion on/off flag */
(PID.TID 0000.0001)                   F
(PID.TID 0000.0001)     ;
(PID.TID 0000.0001) tempStepping =  /* Temperature equation on/off flag */
(PID.TID 0000.0001)                   T
(PID.TID 0000.0001)     ;
(PID.TID 0000.0001) tempAdvection = /* Temperature advection on/off flag */
(PID.TID 0000.0001)                   T
(PID.TID 0000.0001)     ;
(PID.TID 0000.0001) tempImplVertAdv = /* Temp. implicit vert. advection on/off */
(PID.TID 0000.0001)                   F
(PID.TID 0000.0001)     ;
(PID.TID 0000.0001) tempForcing  =  /* Temperature forcing on/off flag */
(PID.TID 0000.0001)                   T
(PID.TID 0000.0001)     ;
(PID.TID 0000.0001) doThetaClimRelax = /* apply SST relaxation on/off flag */
(PID.TID 0000.0001)                   F
(PID.TID 0000.0001)     ;
(PID.TID 0000.0001) tempIsActiveTr = /* Temp. is a dynamically Active Tracer */
(PID.TID 0000.0001)                   T
(PID.TID 0000.0001)     ;
(PID.TID 0000.0001) saltStepping =  /* Salinity equation on/off flag */
(PID.TID 0000.0001)                   T
(PID.TID 0000.0001)     ;
(PID.TID 0000.0001) saltAdvection = /* Salinity advection on/off flag */
(PID.TID 0000.0001)                   T
(PID.TID 0000.0001)     ;
(PID.TID 0000.0001) saltImplVertAdv = /* Sali. implicit vert. advection on/off */
(PID.TID 0000.0001)                   F
(PID.TID 0000.0001)     ;
(PID.TID 0000.0001) saltForcing  =  /* Salinity forcing on/off flag */
(PID.TID 0000.0001)                   T
(PID.TID 0000.0001)     ;
(PID.TID 0000.0001) doSaltClimRelax = /* apply SSS relaxation on/off flag */
(PID.TID 0000.0001)                   F
(PID.TID 0000.0001)     ;
(PID.TID 0000.0001) saltIsActiveTr = /* Salt  is a dynamically Active Tracer */
(PID.TID 0000.0001)                   T
(PID.TID 0000.0001)     ;
(PID.TID 0000.0001)  readBinaryPrec = /* Precision used for reading binary files */
(PID.TID 0000.0001)                      64
(PID.TID 0000.0001)     ;
(PID.TID 0000.0001) writeBinaryPrec = /* Precision used for writing binary files */
(PID.TID 0000.0001)                      32
(PID.TID 0000.0001)     ;
(PID.TID 0000.0001)  rwSuffixType =   /* select format of mds file suffix */
(PID.TID 0000.0001)                       0
(PID.TID 0000.0001)    = 0 : myIter (I10.10) ;   = 1 : 100*myTime (100th sec) ;
(PID.TID 0000.0001)    = 2 : myTime (seconds);   = 3 : myTime/360 (10th of hr);
(PID.TID 0000.0001)    = 4 : myTime/3600 (hours)
(PID.TID 0000.0001)     ;
(PID.TID 0000.0001)  globalFiles = /* write "global" (=not per tile) files */
(PID.TID 0000.0001)                   F
(PID.TID 0000.0001)     ;
(PID.TID 0000.0001)  useSingleCpuIO = /* only master MPI process does I/O */
(PID.TID 0000.0001)                   F
(PID.TID 0000.0001)     ;
(PID.TID 0000.0001)  useSingleCpuInput = /* only master process reads input */
(PID.TID 0000.0001)                   F
(PID.TID 0000.0001)     ;
(PID.TID 0000.0001) /* debLev[*]  : level of debug & auxiliary message printing */
(PID.TID 0000.0001) debLevZero =  0 ; /* level of disabled aux. msg printing */
(PID.TID 0000.0001)    debLevA =  1 ; /* level of minimum  aux. msg printing */
(PID.TID 0000.0001)    debLevB =  2 ; /* level of low aux. print (report read-file opening)*/
(PID.TID 0000.0001)    debLevC =  3 ; /* level of moderate debug prt (most pkgs debug msg) */
(PID.TID 0000.0001)    debLevD =  4 ; /* level of enhanced debug prt (add DEBUG_STATS prt) */
(PID.TID 0000.0001)    debLevE =  5 ; /* level of extensive debug printing */
(PID.TID 0000.0001) debugLevel =  /* select debug printing level */
(PID.TID 0000.0001)                       2
(PID.TID 0000.0001)     ;
(PID.TID 0000.0001)  plotLevel =  /* select PLOT_FIELD printing level */
(PID.TID 0000.0001)                       2
(PID.TID 0000.0001)     ;
(PID.TID 0000.0001) //
(PID.TID 0000.0001) // Elliptic solver(s) paramters ( PARM02 in namelist )
(PID.TID 0000.0001) //
(PID.TID 0000.0001) cg2dMaxIters =   /* Upper limit on 2d con. grad iterations  */
(PID.TID 0000.0001)                    1000
(PID.TID 0000.0001)     ;
(PID.TID 0000.0001) cg2dChkResFreq =   /* 2d con. grad convergence test frequency */
(PID.TID 0000.0001)                       1
(PID.TID 0000.0001)     ;
(PID.TID 0000.0001) cg2dUseMinResSol= /* use cg2d last-iter(=0) / min-resid.(=1) solution */
(PID.TID 0000.0001)                       0
(PID.TID 0000.0001)     ;
(PID.TID 0000.0001) cg2dTargetResidual =   /* 2d con. grad target residual  */
(PID.TID 0000.0001)                 1.000000000000000E-13
(PID.TID 0000.0001)     ;
(PID.TID 0000.0001) cg2dTargetResWunit =   /* CG2d target residual [W units] */
(PID.TID 0000.0001)                -1.000000000000000E+00
(PID.TID 0000.0001)     ;
(PID.TID 0000.0001) cg2dPreCondFreq =   /* Freq. for updating cg2d preconditioner */
(PID.TID 0000.0001)                       1
(PID.TID 0000.0001)     ;
(PID.TID 0000.0001) useSRCGSolver =  /* use single reduction CG solver(s) */
(PID.TID 0000.0001)                   F
(PID.TID 0000.0001)     ;
(PID.TID 0000.0001) printResidualFreq = /* Freq. for printing CG residual */
(PID.TID 0000.0001)                       0
(PID.TID 0000.0001)     ;
(PID.TID 0000.0001) //
(PID.TID 0000.0001) // Time stepping paramters ( PARM03 in namelist )
(PID.TID 0000.0001) //
(PID.TID 0000.0001) deltaTMom =   /* Momentum equation timestep ( s ) */
(PID.TID 0000.0001)                 1.800000000000000E+03
(PID.TID 0000.0001)     ;
(PID.TID 0000.0001) deltaTFreeSurf = /* FreeSurface equation timestep ( s ) */
(PID.TID 0000.0001)                 1.800000000000000E+03
(PID.TID 0000.0001)     ;
(PID.TID 0000.0001) dTtracerLev =  /* Tracer equation timestep ( s ) */
(PID.TID 0000.0001)    30 @  1.800000000000000E+03              /* K =  1: 30 */
(PID.TID 0000.0001)     ;
(PID.TID 0000.0001) deltaTClock  =   /* Model clock timestep ( s ) */
(PID.TID 0000.0001)                 1.800000000000000E+03
(PID.TID 0000.0001)     ;
(PID.TID 0000.0001) cAdjFreq =   /* Convective adjustment interval ( s ) */
(PID.TID 0000.0001)                 1.800000000000000E+03
(PID.TID 0000.0001)     ;
(PID.TID 0000.0001) momForcingOutAB = /* =1: take Momentum Forcing out of Adams-Bash. stepping */
(PID.TID 0000.0001)                       0
(PID.TID 0000.0001)     ;
(PID.TID 0000.0001) tracForcingOutAB = /* =1: take T,S,pTr Forcing out of Adams-Bash. stepping */
(PID.TID 0000.0001)                       0
(PID.TID 0000.0001)     ;
(PID.TID 0000.0001) momDissip_In_AB = /* put Dissipation Tendency in Adams-Bash. stepping */
(PID.TID 0000.0001)                   T
(PID.TID 0000.0001)     ;
(PID.TID 0000.0001) doAB_onGtGs = /* apply AB on Tendencies (rather than on T,S)*/
(PID.TID 0000.0001)                   T
(PID.TID 0000.0001)     ;
(PID.TID 0000.0001) abEps =   /* Adams-Bashforth-2 stabilizing weight */
(PID.TID 0000.0001)                 1.000000000000000E-01
(PID.TID 0000.0001)     ;
(PID.TID 0000.0001) applyExchUV_early = /* Apply EXCH to U,V earlier in time-step */
(PID.TID 0000.0001)                   F
(PID.TID 0000.0001)     ;
(PID.TID 0000.0001) tauCD =   /* CD coupling time-scale ( s ) */
(PID.TID 0000.0001)                 4.000000000000000E+05
(PID.TID 0000.0001)     ;
(PID.TID 0000.0001) rCD =   /* Normalised CD coupling parameter */
(PID.TID 0000.0001)                 9.955000000000001E-01
(PID.TID 0000.0001)     ;
(PID.TID 0000.0001) epsAB_CD = /* AB-2 stabilizing weight for CD-scheme*/
(PID.TID 0000.0001)                 1.000000000000000E-01
(PID.TID 0000.0001)     ;
(PID.TID 0000.0001) pickupStrictlyMatch= /* stop if pickup do not strictly match */
(PID.TID 0000.0001)                   T
(PID.TID 0000.0001)     ;
(PID.TID 0000.0001) nIter0   =   /* Run starting timestep number */
(PID.TID 0000.0001)                       0
(PID.TID 0000.0001)     ;
(PID.TID 0000.0001) nTimeSteps = /* Number of timesteps */
(PID.TID 0000.0001)                      20
(PID.TID 0000.0001)     ;
(PID.TID 0000.0001) nEndIter =   /* Run ending timestep number */
(PID.TID 0000.0001)                      20
(PID.TID 0000.0001)     ;
(PID.TID 0000.0001) baseTime =   /* Model base time ( s ) */
(PID.TID 0000.0001)                 0.000000000000000E+00
(PID.TID 0000.0001)     ;
(PID.TID 0000.0001) startTime =  /* Run start time ( s ) */
(PID.TID 0000.0001)                 0.000000000000000E+00
(PID.TID 0000.0001)     ;
(PID.TID 0000.0001) endTime  =   /* Integration ending time ( s ) */
(PID.TID 0000.0001)                 3.600000000000000E+04
(PID.TID 0000.0001)     ;
(PID.TID 0000.0001) pChkPtFreq = /* Permanent restart/pickup file interval ( s ) */
(PID.TID 0000.0001)                 0.000000000000000E+00
(PID.TID 0000.0001)     ;
(PID.TID 0000.0001) chkPtFreq  = /* Rolling restart/pickup file interval ( s ) */
(PID.TID 0000.0001)                 0.000000000000000E+00
(PID.TID 0000.0001)     ;
(PID.TID 0000.0001) pickup_write_mdsio =   /* Model IO flag. */
(PID.TID 0000.0001)                   T
(PID.TID 0000.0001)     ;
(PID.TID 0000.0001) pickup_read_mdsio =   /* Model IO flag. */
(PID.TID 0000.0001)                   T
(PID.TID 0000.0001)     ;
(PID.TID 0000.0001) pickup_write_mnc =   /* Model IO flag. */
(PID.TID 0000.0001)                   F
(PID.TID 0000.0001)     ;
(PID.TID 0000.0001) pickup_read_mnc =   /* Model IO flag. */
(PID.TID 0000.0001)                   F
(PID.TID 0000.0001)     ;
(PID.TID 0000.0001) writePickupAtEnd =   /* Model IO flag. */
(PID.TID 0000.0001)                   T
(PID.TID 0000.0001)     ;
(PID.TID 0000.0001) dumpFreq =   /* Model state write out interval ( s ). */
(PID.TID 0000.0001)                 0.000000000000000E+00
(PID.TID 0000.0001)     ;
(PID.TID 0000.0001) dumpInitAndLast= /* write out Initial & Last iter. model state */
(PID.TID 0000.0001)                   T
(PID.TID 0000.0001)     ;
(PID.TID 0000.0001) snapshot_mdsio =   /* Model IO flag. */
(PID.TID 0000.0001)                   T
(PID.TID 0000.0001)     ;
(PID.TID 0000.0001) snapshot_mnc =   /* Model IO flag. */
(PID.TID 0000.0001)                   F
(PID.TID 0000.0001)     ;
(PID.TID 0000.0001) monitorFreq =   /* Monitor output interval ( s ). */
(PID.TID 0000.0001)                 1.000000000000000E+00
(PID.TID 0000.0001)     ;
(PID.TID 0000.0001) monitorSelect = /* select group of variables to monitor */
(PID.TID 0000.0001)                       2
(PID.TID 0000.0001)     ;
(PID.TID 0000.0001) monitor_stdio =   /* Model IO flag. */
(PID.TID 0000.0001)                   T
(PID.TID 0000.0001)     ;
(PID.TID 0000.0001) monitor_mnc =   /* Model IO flag. */
(PID.TID 0000.0001)                   F
(PID.TID 0000.0001)     ;
(PID.TID 0000.0001) externForcingPeriod =   /* forcing period (s) */
(PID.TID 0000.0001)                 0.000000000000000E+00
(PID.TID 0000.0001)     ;
(PID.TID 0000.0001) externForcingCycle =   /* period of the cyle (s). */
(PID.TID 0000.0001)                 0.000000000000000E+00
(PID.TID 0000.0001)     ;
(PID.TID 0000.0001) tauThetaClimRelax =   /* relaxation time scale (s) */
(PID.TID 0000.0001)                 0.000000000000000E+00
(PID.TID 0000.0001)     ;
(PID.TID 0000.0001) tauSaltClimRelax =   /* relaxation time scale (s) */
(PID.TID 0000.0001)                 0.000000000000000E+00
(PID.TID 0000.0001)     ;
(PID.TID 0000.0001) latBandClimRelax =   /* max. Lat. where relaxation */
(PID.TID 0000.0001)                 1.800000000000000E+02
(PID.TID 0000.0001)     ;
(PID.TID 0000.0001) //
(PID.TID 0000.0001) // Gridding paramters ( PARM04 in namelist )
(PID.TID 0000.0001) //
(PID.TID 0000.0001) usingCartesianGrid = /* Cartesian coordinates flag ( True/False ) */
(PID.TID 0000.0001)                   F
(PID.TID 0000.0001)     ;
(PID.TID 0000.0001) usingCylindricalGrid = /* Cylindrical coordinates flag ( True/False ) */
(PID.TID 0000.0001)                   F
(PID.TID 0000.0001)     ;
(PID.TID 0000.0001) usingSphericalPolarGrid = /* Spherical coordinates flag ( True/False ) */
(PID.TID 0000.0001)                   T
(PID.TID 0000.0001)     ;
(PID.TID 0000.0001) usingCurvilinearGrid = /* Curvilinear coordinates flag ( True/False ) */
(PID.TID 0000.0001)                   F
(PID.TID 0000.0001)     ;
(PID.TID 0000.0001) useMin4hFacEdges = /* set hFacW,S as minimum of adjacent hFacC factor */
(PID.TID 0000.0001)                   F
(PID.TID 0000.0001)     ;
(PID.TID 0000.0001) interViscAr_pCell = /* account for partial-cell in interior vert. viscosity */
(PID.TID 0000.0001)                   F
(PID.TID 0000.0001)     ;
(PID.TID 0000.0001) interDiffKr_pCell = /* account for partial-cell in interior vert. diffusion */
(PID.TID 0000.0001)                   F
(PID.TID 0000.0001)     ;
(PID.TID 0000.0001) pCellMix_select = /* option to enhance mixing near surface & bottom */
(PID.TID 0000.0001)                       0
(PID.TID 0000.0001)     ;
(PID.TID 0000.0001) selectSigmaCoord = /* Hybrid-Sigma Vert. Coordinate option */
(PID.TID 0000.0001)                       0
(PID.TID 0000.0001)     ;
(PID.TID 0000.0001) rSigmaBnd = /* r/sigma transition ( units of r ==  m ) */
(PID.TID 0000.0001)                 1.234567000000000E+05
(PID.TID 0000.0001)     ;
(PID.TID 0000.0001) rkSign =   /* index orientation relative to vertical coordinate */
(PID.TID 0000.0001)                -1.000000000000000E+00
(PID.TID 0000.0001)     ;
(PID.TID 0000.0001) gravitySign = /* gravity orientation relative to vertical coordinate */
(PID.TID 0000.0001)                -1.000000000000000E+00
(PID.TID 0000.0001)     ;
(PID.TID 0000.0001) seaLev_Z =  /* reference height of sea-level [m] */
(PID.TID 0000.0001)                 0.000000000000000E+00
(PID.TID 0000.0001)     ;
(PID.TID 0000.0001) top_Pres =  /* reference pressure at the top [Pa] */
(PID.TID 0000.0001)                 0.000000000000000E+00
(PID.TID 0000.0001)     ;
(PID.TID 0000.0001) mass2rUnit = /* convert mass per unit area [kg/m2] to r-units [m] */
(PID.TID 0000.0001)                 9.708737864077669E-04
(PID.TID 0000.0001)     ;
(PID.TID 0000.0001) rUnit2mass = /* convert r-units [m] to mass per unit area [kg/m2] */
(PID.TID 0000.0001)                 1.030000000000000E+03
(PID.TID 0000.0001)     ;
(PID.TID 0000.0001) drC =   /* C spacing ( units of r ) */
(PID.TID 0000.0001)                 1.500000000000000E+01,      /* K =  1 */
(PID.TID 0000.0001)    29 @  3.000000000000000E+01,             /* K =  2: 30 */
(PID.TID 0000.0001)                 1.500000000000000E+01       /* K = 31 */
(PID.TID 0000.0001)     ;
(PID.TID 0000.0001) drF =   /* W spacing ( units of r ) */
(PID.TID 0000.0001)    30 @  3.000000000000000E+01              /* K =  1: 30 */
(PID.TID 0000.0001)     ;
(PID.TID 0000.0001) delX = /* U spacing ( m - cartesian, degrees - spherical ) */
(PID.TID 0000.0001)    50 @  3.000000000000000E-01              /* I =  1: 50 */
(PID.TID 0000.0001)     ;
(PID.TID 0000.0001) delY = /* V spacing ( m - cartesian, degrees - spherical ) */
(PID.TID 0000.0001)   100 @  1.000000000000000E-01              /* J =  1:100 */
(PID.TID 0000.0001)     ;
(PID.TID 0000.0001) xgOrigin = /* X-axis origin of West  edge (cartesian: m, lat-lon: deg) */
(PID.TID 0000.0001)                 0.000000000000000E+00
(PID.TID 0000.0001)     ;
(PID.TID 0000.0001) ygOrigin = /* Y-axis origin of South edge (cartesian: m, lat-lon: deg) */
(PID.TID 0000.0001)                -8.000000000000000E+01
(PID.TID 0000.0001)     ;
(PID.TID 0000.0001) rSphere =  /* Radius ( ignored - cartesian, m - spherical ) */
(PID.TID 0000.0001)                 6.370000000000000E+06
(PID.TID 0000.0001)     ;
(PID.TID 0000.0001) deepAtmosphere = /* Deep/Shallow Atmosphere flag (True/False) */
(PID.TID 0000.0001)                   F
(PID.TID 0000.0001)     ;
(PID.TID 0000.0001) xC =  /* xC(:,1,:,1) : P-point X coord ( deg. or m if cartesian) */
(PID.TID 0000.0001)                 1.500000000000001E-01,      /* I =  1 */
(PID.TID 0000.0001)                 4.500000000000001E-01,      /* I =  2 */
(PID.TID 0000.0001)                 7.500000000000002E-01,      /* I =  3 */
(PID.TID 0000.0001)                 1.050000000000000E+00,      /* I =  4 */
(PID.TID 0000.0001)                 1.350000000000000E+00,      /* I =  5 */
(PID.TID 0000.0001)                 1.650000000000000E+00,      /* I =  6 */
(PID.TID 0000.0001)                 1.950000000000000E+00,      /* I =  7 */
(PID.TID 0000.0001)                 2.250000000000000E+00,      /* I =  8 */
(PID.TID 0000.0001)                 2.550000000000000E+00,      /* I =  9 */
(PID.TID 0000.0001)                 2.850000000000000E+00,      /* I = 10 */
(PID.TID 0000.0001)                 3.149999999999999E+00,      /* I = 11 */
(PID.TID 0000.0001)                 3.449999999999999E+00,      /* I = 12 */
(PID.TID 0000.0001)                 3.749999999999999E+00,      /* I = 13 */
(PID.TID 0000.0001)                 4.049999999999999E+00,      /* I = 14 */
(PID.TID 0000.0001)                 4.350000000000000E+00,      /* I = 15 */
(PID.TID 0000.0001)                 4.649999999999999E+00,      /* I = 16 */
(PID.TID 0000.0001)                 4.949999999999999E+00,      /* I = 17 */
(PID.TID 0000.0001)                 5.249999999999998E+00,      /* I = 18 */
(PID.TID 0000.0001)                 5.549999999999999E+00,      /* I = 19 */
(PID.TID 0000.0001)                 5.849999999999998E+00,      /* I = 20 */
(PID.TID 0000.0001)                 6.149999999999999E+00,      /* I = 21 */
(PID.TID 0000.0001)                 6.449999999999998E+00,      /* I = 22 */
(PID.TID 0000.0001)                 6.749999999999998E+00,      /* I = 23 */
(PID.TID 0000.0001)                 7.049999999999997E+00,      /* I = 24 */
(PID.TID 0000.0001)                 7.349999999999997E+00,      /* I = 25 */
(PID.TID 0000.0001)                 7.649999999999997E+00,      /* I = 26 */
(PID.TID 0000.0001)                 7.949999999999998E+00,      /* I = 27 */
(PID.TID 0000.0001)                 8.249999999999998E+00,      /* I = 28 */
(PID.TID 0000.0001)                 8.549999999999999E+00,      /* I = 29 */
(PID.TID 0000.0001)                 8.850000000000000E+00,      /* I = 30 */
(PID.TID 0000.0001)                 9.150000000000000E+00,      /* I = 31 */
(PID.TID 0000.0001)                 9.450000000000001E+00,      /* I = 32 */
(PID.TID 0000.0001)                 9.750000000000002E+00,      /* I = 33 */
(PID.TID 0000.0001)                 1.005000000000000E+01,      /* I = 34 */
(PID.TID 0000.0001)                 1.035000000000000E+01,      /* I = 35 */
(PID.TID 0000.0001)                 1.065000000000000E+01,      /* I = 36 */
(PID.TID 0000.0001)                 1.095000000000001E+01,      /* I = 37 */
(PID.TID 0000.0001)                 1.125000000000001E+01,      /* I = 38 */
(PID.TID 0000.0001)                 1.155000000000000E+01,      /* I = 39 */
(PID.TID 0000.0001)                 1.185000000000001E+01,      /* I = 40 */
(PID.TID 0000.0001)                 1.215000000000001E+01,      /* I = 41 */
(PID.TID 0000.0001)                 1.245000000000001E+01,      /* I = 42 */
(PID.TID 0000.0001)                 1.275000000000001E+01,      /* I = 43 */
(PID.TID 0000.0001)                 1.305000000000001E+01,      /* I = 44 */
(PID.TID 0000.0001)                 1.335000000000001E+01,      /* I = 45 */
(PID.TID 0000.0001)                 1.365000000000001E+01,      /* I = 46 */
(PID.TID 0000.0001)                 1.395000000000001E+01,      /* I = 47 */
(PID.TID 0000.0001)                 1.425000000000001E+01,      /* I = 48 */
(PID.TID 0000.0001)                 1.455000000000001E+01,      /* I = 49 */
(PID.TID 0000.0001)                 1.485000000000001E+01       /* I = 50 */
(PID.TID 0000.0001)     ;
(PID.TID 0000.0001) yC =  /* yC(1,:,1,:) : P-point Y coord ( deg. or m if cartesian) */
(PID.TID 0000.0001)                -7.995000000000000E+01,      /* J =  1 */
(PID.TID 0000.0001)                -7.985000000000001E+01,      /* J =  2 */
(PID.TID 0000.0001)                -7.975000000000001E+01,      /* J =  3 */
(PID.TID 0000.0001)      . . .
(PID.TID 0000.0001)                -7.775000000000013E+01,      /* J = 23 */
(PID.TID 0000.0001)                -7.765000000000013E+01,      /* J = 24 */
(PID.TID 0000.0001)                -7.755000000000014E+01,      /* J = 25 */
(PID.TID 0000.0001)                -7.745000000000014E+01,      /* J = 26 */
(PID.TID 0000.0001)                -7.735000000000015E+01,      /* J = 27 */
(PID.TID 0000.0001)                -7.725000000000016E+01,      /* J = 28 */
(PID.TID 0000.0001)      . . .
(PID.TID 0000.0001)                -7.525000000000027E+01,      /* J = 48 */
(PID.TID 0000.0001)                -7.515000000000028E+01,      /* J = 49 */
(PID.TID 0000.0001)                -7.505000000000028E+01,      /* J = 50 */
(PID.TID 0000.0001)                -7.495000000000029E+01,      /* J = 51 */
(PID.TID 0000.0001)                -7.485000000000029E+01,      /* J = 52 */
(PID.TID 0000.0001)                -7.475000000000030E+01,      /* J = 53 */
(PID.TID 0000.0001)      . . .
(PID.TID 0000.0001)                -7.275000000000041E+01,      /* J = 73 */
(PID.TID 0000.0001)                -7.265000000000042E+01,      /* J = 74 */
(PID.TID 0000.0001)                -7.255000000000042E+01,      /* J = 75 */
(PID.TID 0000.0001)                -7.245000000000043E+01,      /* J = 76 */
(PID.TID 0000.0001)                -7.235000000000043E+01,      /* J = 77 */
(PID.TID 0000.0001)                -7.225000000000044E+01,      /* J = 78 */
(PID.TID 0000.0001)      . . .
(PID.TID 0000.0001)                -7.025000000000055E+01,      /* J = 98 */
(PID.TID 0000.0001)                -7.015000000000056E+01,      /* J = 99 */
(PID.TID 0000.0001)                -7.005000000000057E+01       /* J =100 */
(PID.TID 0000.0001)     ;
(PID.TID 0000.0001) rcoord = /* P-point R coordinate (  units of r ) */
(PID.TID 0000.0001)                -1.500000000000000E+01,      /* K =  1 */
(PID.TID 0000.0001)                -4.500000000000000E+01,      /* K =  2 */
(PID.TID 0000.0001)                -7.500000000000000E+01,      /* K =  3 */
(PID.TID 0000.0001)                -1.050000000000000E+02,      /* K =  4 */
(PID.TID 0000.0001)                -1.350000000000000E+02,      /* K =  5 */
(PID.TID 0000.0001)                -1.650000000000000E+02,      /* K =  6 */
(PID.TID 0000.0001)                -1.950000000000000E+02,      /* K =  7 */
(PID.TID 0000.0001)                -2.250000000000000E+02,      /* K =  8 */
(PID.TID 0000.0001)                -2.550000000000000E+02,      /* K =  9 */
(PID.TID 0000.0001)                -2.850000000000000E+02,      /* K = 10 */
(PID.TID 0000.0001)                -3.150000000000000E+02,      /* K = 11 */
(PID.TID 0000.0001)                -3.450000000000000E+02,      /* K = 12 */
(PID.TID 0000.0001)                -3.750000000000000E+02,      /* K = 13 */
(PID.TID 0000.0001)                -4.050000000000000E+02,      /* K = 14 */
(PID.TID 0000.0001)                -4.350000000000000E+02,      /* K = 15 */
(PID.TID 0000.0001)                -4.650000000000000E+02,      /* K = 16 */
(PID.TID 0000.0001)                -4.950000000000000E+02,      /* K = 17 */
(PID.TID 0000.0001)                -5.250000000000000E+02,      /* K = 18 */
(PID.TID 0000.0001)                -5.550000000000000E+02,      /* K = 19 */
(PID.TID 0000.0001)                -5.850000000000000E+02,      /* K = 20 */
(PID.TID 0000.0001)                -6.150000000000000E+02,      /* K = 21 */
(PID.TID 0000.0001)                -6.450000000000000E+02,      /* K = 22 */
(PID.TID 0000.0001)                -6.750000000000000E+02,      /* K = 23 */
(PID.TID 0000.0001)                -7.050000000000000E+02,      /* K = 24 */
(PID.TID 0000.0001)                -7.350000000000000E+02,      /* K = 25 */
(PID.TID 0000.0001)                -7.650000000000000E+02,      /* K = 26 */
(PID.TID 0000.0001)                -7.950000000000000E+02,      /* K = 27 */
(PID.TID 0000.0001)                -8.250000000000000E+02,      /* K = 28 */
(PID.TID 0000.0001)                -8.550000000000000E+02,      /* K = 29 */
(PID.TID 0000.0001)                -8.850000000000000E+02       /* K = 30 */
(PID.TID 0000.0001)     ;
(PID.TID 0000.0001) rF =   /* W-Interf. R coordinate (  units of r ) */
(PID.TID 0000.0001)                 0.000000000000000E+00,      /* K =  1 */
(PID.TID 0000.0001)                -3.000000000000000E+01,      /* K =  2 */
(PID.TID 0000.0001)                -6.000000000000000E+01,      /* K =  3 */
(PID.TID 0000.0001)                -9.000000000000000E+01,      /* K =  4 */
(PID.TID 0000.0001)                -1.200000000000000E+02,      /* K =  5 */
(PID.TID 0000.0001)                -1.500000000000000E+02,      /* K =  6 */
(PID.TID 0000.0001)                -1.800000000000000E+02,      /* K =  7 */
(PID.TID 0000.0001)                -2.100000000000000E+02,      /* K =  8 */
(PID.TID 0000.0001)                -2.400000000000000E+02,      /* K =  9 */
(PID.TID 0000.0001)                -2.700000000000000E+02,      /* K = 10 */
(PID.TID 0000.0001)                -3.000000000000000E+02,      /* K = 11 */
(PID.TID 0000.0001)                -3.300000000000000E+02,      /* K = 12 */
(PID.TID 0000.0001)                -3.600000000000000E+02,      /* K = 13 */
(PID.TID 0000.0001)                -3.900000000000000E+02,      /* K = 14 */
(PID.TID 0000.0001)                -4.200000000000000E+02,      /* K = 15 */
(PID.TID 0000.0001)                -4.500000000000000E+02,      /* K = 16 */
(PID.TID 0000.0001)                -4.800000000000000E+02,      /* K = 17 */
(PID.TID 0000.0001)                -5.100000000000000E+02,      /* K = 18 */
(PID.TID 0000.0001)                -5.400000000000000E+02,      /* K = 19 */
(PID.TID 0000.0001)                -5.700000000000000E+02,      /* K = 20 */
(PID.TID 0000.0001)                -6.000000000000000E+02,      /* K = 21 */
(PID.TID 0000.0001)                -6.300000000000000E+02,      /* K = 22 */
(PID.TID 0000.0001)                -6.600000000000000E+02,      /* K = 23 */
(PID.TID 0000.0001)                -6.900000000000000E+02,      /* K = 24 */
(PID.TID 0000.0001)                -7.200000000000000E+02,      /* K = 25 */
(PID.TID 0000.0001)                -7.500000000000000E+02,      /* K = 26 */
(PID.TID 0000.0001)                -7.800000000000000E+02,      /* K = 27 */
(PID.TID 0000.0001)                -8.100000000000000E+02,      /* K = 28 */
(PID.TID 0000.0001)                -8.400000000000000E+02,      /* K = 29 */
(PID.TID 0000.0001)                -8.700000000000000E+02,      /* K = 30 */
(PID.TID 0000.0001)                -9.000000000000000E+02       /* K = 31 */
(PID.TID 0000.0001)     ;
(PID.TID 0000.0001) deepFacC = /* deep-model grid factor @ cell-Center (-) */
(PID.TID 0000.0001)    30 @  1.000000000000000E+00              /* K =  1: 30 */
(PID.TID 0000.0001)     ;
(PID.TID 0000.0001) deepFacF = /* deep-model grid factor @ W-Interface (-) */
(PID.TID 0000.0001)    31 @  1.000000000000000E+00              /* K =  1: 31 */
(PID.TID 0000.0001)     ;
(PID.TID 0000.0001) rVel2wUnit = /* convert units: rVel -> wSpeed (=1 if z-coord)*/
(PID.TID 0000.0001)    31 @  1.000000000000000E+00              /* K =  1: 31 */
(PID.TID 0000.0001)     ;
(PID.TID 0000.0001) wUnit2rVel = /* convert units: wSpeed -> rVel (=1 if z-coord)*/
(PID.TID 0000.0001)    31 @  1.000000000000000E+00              /* K =  1: 31 */
(PID.TID 0000.0001)     ;
(PID.TID 0000.0001) dBdrRef = /* Vertical grad. of reference buoyancy [(m/s/r)^2] */
(PID.TID 0000.0001)    30 @  0.000000000000000E+00              /* K =  1: 30 */
(PID.TID 0000.0001)     ;
(PID.TID 0000.0001) rotateGrid = /* use rotated grid ( True/False ) */
(PID.TID 0000.0001)                   F
(PID.TID 0000.0001)     ;
(PID.TID 0000.0001) phiEuler = /* Euler angle, rotation about original z-coordinate [rad] */
(PID.TID 0000.0001)                 0.000000000000000E+00
(PID.TID 0000.0001)     ;
(PID.TID 0000.0001) thetaEuler = /* Euler angle, rotation about new x-coordinate [rad] */
(PID.TID 0000.0001)                 0.000000000000000E+00
(PID.TID 0000.0001)     ;
(PID.TID 0000.0001) psiEuler = /* Euler angle, rotation about new z-coordinate [rad] */
(PID.TID 0000.0001)                 0.000000000000000E+00
(PID.TID 0000.0001)     ;
(PID.TID 0000.0001) dxF =  /* dxF(:,1,:,1) ( units: m ) */
(PID.TID 0000.0001)    50 @  5.820391490558872E+03              /* I =  1: 50 */
(PID.TID 0000.0001)     ;
(PID.TID 0000.0001) dxF =  /* dxF(1,:,1,:) ( units: m ) */
(PID.TID 0000.0001)                 5.820391490558872E+03,      /* J =  1 */
(PID.TID 0000.0001)                 5.877701765291692E+03,      /* J =  2 */
(PID.TID 0000.0001)                 5.934994135525598E+03,      /* J =  3 */
(PID.TID 0000.0001)      . . .
(PID.TID 0000.0001)                 7.076813247621209E+03,      /* J = 23 */
(PID.TID 0000.0001)                 7.133689397375063E+03,      /* J = 24 */
(PID.TID 0000.0001)                 7.190543816673855E+03,      /* J = 25 */
(PID.TID 0000.0001)                 7.247376332329164E+03,      /* J = 26 */
(PID.TID 0000.0001)                 7.304186771219292E+03,      /* J = 27 */
(PID.TID 0000.0001)                 7.360974960289787E+03,      /* J = 28 */
(PID.TID 0000.0001)      . . .
(PID.TID 0000.0001)                 8.491800393599013E+03,      /* J = 48 */
(PID.TID 0000.0001)                 8.548081485571185E+03,      /* J = 49 */
(PID.TID 0000.0001)                 8.604336538604706E+03,      /* J = 50 */
(PID.TID 0000.0001)                 8.660565381336924E+03,      /* J = 51 */
(PID.TID 0000.0001)                 8.716767842485036E+03,      /* J = 52 */
(PID.TID 0000.0001)                 8.772943750846600E+03,      /* J = 53 */
(PID.TID 0000.0001)      . . .
(PID.TID 0000.0001)                 9.890622914885218E+03,      /* J = 73 */
(PID.TID 0000.0001)                 9.946201814818334E+03,      /* J = 74 */
(PID.TID 0000.0001)                 1.000175041689580E+04,      /* J = 75 */
(PID.TID 0000.0001)                 1.005726855190695E+04,      /* J = 76 */
(PID.TID 0000.0001)                 1.011275605073392E+04,      /* J = 77 */
(PID.TID 0000.0001)                 1.016821274435215E+04,      /* J = 78 */
(PID.TID 0000.0001)      . . .
(PID.TID 0000.0001)                 1.127061807330668E+04,      /* J = 98 */
(PID.TID 0000.0001)                 1.132538898360582E+04,      /* J = 99 */
(PID.TID 0000.0001)                 1.138012539480601E+04       /* J =100 */
(PID.TID 0000.0001)     ;
(PID.TID 0000.0001) dyF =  /* dyF(:,1,:,1) ( units: m ) */
(PID.TID 0000.0001)    50 @  1.111774733520388E+04              /* I =  1: 50 */
(PID.TID 0000.0001)     ;
(PID.TID 0000.0001) dyF =  /* dyF(1,:,1,:) ( units: m ) */
(PID.TID 0000.0001)   100 @  1.111774733520388E+04              /* J =  1:100 */
(PID.TID 0000.0001)     ;
(PID.TID 0000.0001) dxG =  /* dxG(:,1,:,1) ( units: m ) */
(PID.TID 0000.0001)    50 @  5.791729693558576E+03              /* I =  1: 50 */
(PID.TID 0000.0001)     ;
(PID.TID 0000.0001) dxG =  /* dxG(1,:,1,:) ( units: m ) */
(PID.TID 0000.0001)                 5.791729693558576E+03,      /* J =  1 */
(PID.TID 0000.0001)                 5.849048855077854E+03,      /* J =  2 */
(PID.TID 0000.0001)                 5.906350199379949E+03,      /* J =  3 */
(PID.TID 0000.0001)      . . .
(PID.TID 0000.0001)                 7.048367077963129E+03,      /* J = 23 */
(PID.TID 0000.0001)                 7.105254027978149E+03,      /* J = 24 */
(PID.TID 0000.0001)                 7.162119334157175E+03,      /* J = 25 */
(PID.TID 0000.0001)                 7.218962823278620E+03,      /* J = 26 */
(PID.TID 0000.0001)                 7.275784322187360E+03,      /* J = 27 */
(PID.TID 0000.0001)                 7.332583657795253E+03,      /* J = 28 */
(PID.TID 0000.0001)      . . .
(PID.TID 0000.0001)                 8.463650136583461E+03,      /* J = 48 */
(PID.TID 0000.0001)                 8.519944183739159E+03,      /* J = 49 */
(PID.TID 0000.0001)                 8.576212277667308E+03,      /* J = 50 */
(PID.TID 0000.0001)                 8.632454246965530E+03,      /* J = 51 */
(PID.TID 0000.0001)                 8.688669920311038E+03,      /* J = 52 */
(PID.TID 0000.0001)                 8.744859126461139E+03,      /* J = 53 */
(PID.TID 0000.0001)      . . .
(PID.TID 0000.0001)                 9.862822156126382E+03,      /* J = 73 */
(PID.TID 0000.0001)                 9.918416141504455E+03,      /* J = 74 */
(PID.TID 0000.0001)                 9.973979913666863E+03,      /* J = 75 */
(PID.TID 0000.0001)                 1.002951330335672E+04,      /* J = 76 */
(PID.TID 0000.0001)                 1.008501614140969E+04,      /* J = 77 */
(PID.TID 0000.0001)                 1.014048825875450E+04,      /* J = 78 */
(PID.TID 0000.0001)      . . .
(PID.TID 0000.0001)                 1.124321973312895E+04,      /* J = 98 */
(PID.TID 0000.0001)                 1.129800783041847E+04,      /* J = 99 */
(PID.TID 0000.0001)                 1.135276151201679E+04       /* J =100 */
(PID.TID 0000.0001)     ;
(PID.TID 0000.0001) dyG =  /* dyG(:,1,:,1) ( units: m ) */
(PID.TID 0000.0001)    50 @  1.111774733520388E+04              /* I =  1: 50 */
(PID.TID 0000.0001)     ;
(PID.TID 0000.0001) dyG =  /* dyG(1,:,1,:) ( units: m ) */
(PID.TID 0000.0001)   100 @  1.111774733520388E+04              /* J =  1:100 */
(PID.TID 0000.0001)     ;
(PID.TID 0000.0001) dxC =  /* dxC(:,1,:,1) ( units: m ) */
(PID.TID 0000.0001)    50 @  5.820391490558872E+03              /* I =  1: 50 */
(PID.TID 0000.0001)     ;
(PID.TID 0000.0001) dxC =  /* dxC(1,:,1,:) ( units: m ) */
(PID.TID 0000.0001)                 5.820391490558872E+03,      /* J =  1 */
(PID.TID 0000.0001)                 5.877701765291692E+03,      /* J =  2 */
(PID.TID 0000.0001)                 5.934994135525598E+03,      /* J =  3 */
(PID.TID 0000.0001)      . . .
(PID.TID 0000.0001)                 7.076813247621209E+03,      /* J = 23 */
(PID.TID 0000.0001)                 7.133689397375063E+03,      /* J = 24 */
(PID.TID 0000.0001)                 7.190543816673855E+03,      /* J = 25 */
(PID.TID 0000.0001)                 7.247376332329164E+03,      /* J = 26 */
(PID.TID 0000.0001)                 7.304186771219292E+03,      /* J = 27 */
(PID.TID 0000.0001)                 7.360974960289787E+03,      /* J = 28 */
(PID.TID 0000.0001)      . . .
(PID.TID 0000.0001)                 8.491800393599013E+03,      /* J = 48 */
(PID.TID 0000.0001)                 8.548081485571185E+03,      /* J = 49 */
(PID.TID 0000.0001)                 8.604336538604706E+03,      /* J = 50 */
(PID.TID 0000.0001)                 8.660565381336924E+03,      /* J = 51 */
(PID.TID 0000.0001)                 8.716767842485036E+03,      /* J = 52 */
(PID.TID 0000.0001)                 8.772943750846600E+03,      /* J = 53 */
(PID.TID 0000.0001)      . . .
(PID.TID 0000.0001)                 9.890622914885218E+03,      /* J = 73 */
(PID.TID 0000.0001)                 9.946201814818334E+03,      /* J = 74 */
(PID.TID 0000.0001)                 1.000175041689580E+04,      /* J = 75 */
(PID.TID 0000.0001)                 1.005726855190695E+04,      /* J = 76 */
(PID.TID 0000.0001)                 1.011275605073392E+04,      /* J = 77 */
(PID.TID 0000.0001)                 1.016821274435215E+04,      /* J = 78 */
(PID.TID 0000.0001)      . . .
(PID.TID 0000.0001)                 1.127061807330668E+04,      /* J = 98 */
(PID.TID 0000.0001)                 1.132538898360582E+04,      /* J = 99 */
(PID.TID 0000.0001)                 1.138012539480601E+04       /* J =100 */
(PID.TID 0000.0001)     ;
(PID.TID 0000.0001) dyC =  /* dyC(:,1,:,1) ( units: m ) */
(PID.TID 0000.0001)    50 @  1.111774733520388E+04              /* I =  1: 50 */
(PID.TID 0000.0001)     ;
(PID.TID 0000.0001) dyC =  /* dyC(1,:,1,:) ( units: m ) */
(PID.TID 0000.0001)   100 @  1.111774733520388E+04              /* J =  1:100 */
(PID.TID 0000.0001)     ;
(PID.TID 0000.0001) dxV =  /* dxV(:,1,:,1) ( units: m ) */
(PID.TID 0000.0001)    50 @  5.791729693558576E+03              /* I =  1: 50 */
(PID.TID 0000.0001)     ;
(PID.TID 0000.0001) dxV =  /* dxV(1,:,1,:) ( units: m ) */
(PID.TID 0000.0001)                 5.791729693558576E+03,      /* J =  1 */
(PID.TID 0000.0001)                 5.849048855077854E+03,      /* J =  2 */
(PID.TID 0000.0001)                 5.906350199379949E+03,      /* J =  3 */
(PID.TID 0000.0001)      . . .
(PID.TID 0000.0001)                 7.048367077963129E+03,      /* J = 23 */
(PID.TID 0000.0001)                 7.105254027978149E+03,      /* J = 24 */
(PID.TID 0000.0001)                 7.162119334157175E+03,      /* J = 25 */
(PID.TID 0000.0001)                 7.218962823278620E+03,      /* J = 26 */
(PID.TID 0000.0001)                 7.275784322187360E+03,      /* J = 27 */
(PID.TID 0000.0001)                 7.332583657795253E+03,      /* J = 28 */
(PID.TID 0000.0001)      . . .
(PID.TID 0000.0001)                 8.463650136583461E+03,      /* J = 48 */
(PID.TID 0000.0001)                 8.519944183739159E+03,      /* J = 49 */
(PID.TID 0000.0001)                 8.576212277667308E+03,      /* J = 50 */
(PID.TID 0000.0001)                 8.632454246965530E+03,      /* J = 51 */
(PID.TID 0000.0001)                 8.688669920311038E+03,      /* J = 52 */
(PID.TID 0000.0001)                 8.744859126461139E+03,      /* J = 53 */
(PID.TID 0000.0001)      . . .
(PID.TID 0000.0001)                 9.862822156126382E+03,      /* J = 73 */
(PID.TID 0000.0001)                 9.918416141504455E+03,      /* J = 74 */
(PID.TID 0000.0001)                 9.973979913666863E+03,      /* J = 75 */
(PID.TID 0000.0001)                 1.002951330335672E+04,      /* J = 76 */
(PID.TID 0000.0001)                 1.008501614140969E+04,      /* J = 77 */
(PID.TID 0000.0001)                 1.014048825875450E+04,      /* J = 78 */
(PID.TID 0000.0001)      . . .
(PID.TID 0000.0001)                 1.124321973312895E+04,      /* J = 98 */
(PID.TID 0000.0001)                 1.129800783041847E+04,      /* J = 99 */
(PID.TID 0000.0001)                 1.135276151201679E+04       /* J =100 */
(PID.TID 0000.0001)     ;
(PID.TID 0000.0001) dyU =  /* dyU(:,1,:,1) ( units: m ) */
(PID.TID 0000.0001)    50 @  1.111774733520388E+04              /* I =  1: 50 */
(PID.TID 0000.0001)     ;
(PID.TID 0000.0001) dyU =  /* dyU(1,:,1,:) ( units: m ) */
(PID.TID 0000.0001)   100 @  1.111774733520388E+04              /* J =  1:100 */
(PID.TID 0000.0001)     ;
(PID.TID 0000.0001) rA  =  /* rA (:,1,:,1) ( units: m^2 ) */
(PID.TID 0000.0001)    50 @  6.470963377080289E+07              /* I =  1: 50 */
(PID.TID 0000.0001)     ;
(PID.TID 0000.0001) rA  =  /* rA (1,:,1,:) ( units: m^2 ) */
(PID.TID 0000.0001)                 6.470963377080289E+07,      /* J =  1 */
(PID.TID 0000.0001)                 6.534679484410104E+07,      /* J =  2 */
(PID.TID 0000.0001)                 6.598375685977945E+07,      /* J =  3 */
(PID.TID 0000.0001)      . . .
(PID.TID 0000.0001)                 7.867821163932665E+07,      /* J = 23 */
(PID.TID 0000.0001)                 7.931054622142966E+07,      /* J = 24 */
(PID.TID 0000.0001)                 7.994263920984067E+07,      /* J = 25 */
(PID.TID 0000.0001)                 8.057448867913349E+07,      /* J = 26 */
(PID.TID 0000.0001)                 8.120609270456599E+07,      /* J = 27 */
(PID.TID 0000.0001)                 8.183744936212724E+07,      /* J = 28 */
(PID.TID 0000.0001)      . . .
(PID.TID 0000.0001)                 9.440967921416211E+07,      /* J = 48 */
(PID.TID 0000.0001)                 9.503539809503193E+07,      /* J = 49 */
(PID.TID 0000.0001)                 9.566082748163140E+07,      /* J = 50 */
(PID.TID 0000.0001)                 9.628596546870193E+07,      /* J = 51 */
(PID.TID 0000.0001)                 9.691081015209354E+07,      /* J = 52 */
(PID.TID 0000.0001)                 9.753535962826957E+07,      /* J = 53 */
(PID.TID 0000.0001)      . . .
(PID.TID 0000.0001)                 1.099614325987181E+08,      /* J = 73 */
(PID.TID 0000.0001)                 1.105793446869293E+08,      /* J = 74 */
(PID.TID 0000.0001)                 1.111969199312560E+08,      /* J = 75 */
(PID.TID 0000.0001)                 1.118141564504991E+08,      /* J = 76 */
(PID.TID 0000.0001)                 1.124310523644033E+08,      /* J = 77 */
(PID.TID 0000.0001)                 1.130476057938687E+08,      /* J = 78 */
(PID.TID 0000.0001)      . . .
(PID.TID 0000.0001)                 1.253038681465364E+08,      /* J = 98 */
(PID.TID 0000.0001)                 1.259127972112936E+08,      /* J = 99 */
(PID.TID 0000.0001)                 1.265213427237870E+08       /* J =100 */
(PID.TID 0000.0001)     ;
(PID.TID 0000.0001) rAw =  /* rAw(:,1,:,1) ( units: m^2 ) */
(PID.TID 0000.0001)    50 @  6.470963377080289E+07              /* I =  1: 50 */
(PID.TID 0000.0001)     ;
(PID.TID 0000.0001) rAw =  /* rAw(1,:,1,:) ( units: m^2 ) */
(PID.TID 0000.0001)                 6.470963377080289E+07,      /* J =  1 */
(PID.TID 0000.0001)                 6.534679484410104E+07,      /* J =  2 */
(PID.TID 0000.0001)                 6.598375685977945E+07,      /* J =  3 */
(PID.TID 0000.0001)      . . .
(PID.TID 0000.0001)                 7.867821163932665E+07,      /* J = 23 */
(PID.TID 0000.0001)                 7.931054622142966E+07,      /* J = 24 */
(PID.TID 0000.0001)                 7.994263920984067E+07,      /* J = 25 */
(PID.TID 0000.0001)                 8.057448867913349E+07,      /* J = 26 */
(PID.TID 0000.0001)                 8.120609270456599E+07,      /* J = 27 */
(PID.TID 0000.0001)                 8.183744936212724E+07,      /* J = 28 */
(PID.TID 0000.0001)      . . .
(PID.TID 0000.0001)                 9.440967921416211E+07,      /* J = 48 */
(PID.TID 0000.0001)                 9.503539809503193E+07,      /* J = 49 */
(PID.TID 0000.0001)                 9.566082748163140E+07,      /* J = 50 */
(PID.TID 0000.0001)                 9.628596546870193E+07,      /* J = 51 */
(PID.TID 0000.0001)                 9.691081015209354E+07,      /* J = 52 */
(PID.TID 0000.0001)                 9.753535962826957E+07,      /* J = 53 */
(PID.TID 0000.0001)      . . .
(PID.TID 0000.0001)                 1.099614325987181E+08,      /* J = 73 */
(PID.TID 0000.0001)                 1.105793446869293E+08,      /* J = 74 */
(PID.TID 0000.0001)                 1.111969199312560E+08,      /* J = 75 */
(PID.TID 0000.0001)                 1.118141564504991E+08,      /* J = 76 */
(PID.TID 0000.0001)                 1.124310523644033E+08,      /* J = 77 */
(PID.TID 0000.0001)                 1.130476057938687E+08,      /* J = 78 */
(PID.TID 0000.0001)      . . .
(PID.TID 0000.0001)                 1.253038681465364E+08,      /* J = 98 */
(PID.TID 0000.0001)                 1.259127972112936E+08,      /* J = 99 */
(PID.TID 0000.0001)                 1.265213427237870E+08       /* J =100 */
(PID.TID 0000.0001)     ;
(PID.TID 0000.0001) rAs =  /* rAs(:,1,:,1) ( units: m^2 ) */
(PID.TID 0000.0001)    50 @  6.439097919401864E+07              /* I =  1: 50 */
(PID.TID 0000.0001)     ;
(PID.TID 0000.0001) rAs =  /* rAs(1,:,1,:) ( units: m^2 ) */
(PID.TID 0000.0001)                 6.439097919401864E+07,      /* J =  1 */
(PID.TID 0000.0001)                 6.502823906837179E+07,      /* J =  2 */
(PID.TID 0000.0001)                 6.566530085543716E+07,      /* J =  3 */
(PID.TID 0000.0001)      . . .
(PID.TID 0000.0001)                 7.836195435256335E+07,      /* J = 23 */
(PID.TID 0000.0001)                 7.899440900921808E+07,      /* J = 24 */
(PID.TID 0000.0001)                 7.962662303520055E+07,      /* J = 25 */
(PID.TID 0000.0001)                 8.025859450470714E+07,      /* J = 26 */
(PID.TID 0000.0001)                 8.089032149259475E+07,      /* J = 27 */
(PID.TID 0000.0001)                 8.152180207452223E+07,      /* J = 28 */
(PID.TID 0000.0001)      . . .
(PID.TID 0000.0001)                 9.409671180895932E+07,      /* J = 48 */
(PID.TID 0000.0001)                 9.472257472228888E+07,      /* J = 49 */
(PID.TID 0000.0001)                 9.534814909420149E+07,      /* J = 50 */
(PID.TID 0000.0001)                 9.597343301913190E+07,      /* J = 51 */
(PID.TID 0000.0001)                 9.659842459236403E+07,      /* J = 52 */
(PID.TID 0000.0001)                 9.722312190998378E+07,      /* J = 53 */
(PID.TID 0000.0001)      . . .
(PID.TID 0000.0001)                 1.096523508263446E+08,      /* J = 73 */
(PID.TID 0000.0001)                 1.102704306306916E+08,      /* J = 74 */
(PID.TID 0000.0001)                 1.108881745321664E+08,      /* J = 75 */
(PID.TID 0000.0001)                 1.115055806490511E+08,      /* J = 76 */
(PID.TID 0000.0001)                 1.121226471005947E+08,      /* J = 77 */
(PID.TID 0000.0001)                 1.127393720071080E+08,      /* J = 78 */
(PID.TID 0000.0001)      . . .
(PID.TID 0000.0001)                 1.249992603617116E+08,      /* J = 98 */
(PID.TID 0000.0001)                 1.256083805070198E+08,      /* J = 99 */
(PID.TID 0000.0001)                 1.262171180274426E+08       /* J =100 */
(PID.TID 0000.0001)     ;
(PID.TID 0000.0001) globalArea = /* Integrated horizontal Area (m^2) */
(PID.TID 0000.0001)                 4.665024516720074E+11
(PID.TID 0000.0001)     ;
(PID.TID 0000.0001) // =======================================================
(PID.TID 0000.0001) // End of Model config. summary
(PID.TID 0000.0001) // =======================================================
(PID.TID 0000.0001) 
(PID.TID 0000.0001) == Packages configuration : Check & print summary ==
(PID.TID 0000.0001) 
(PID.TID 0000.0001) SHELFICE_CHECK: #define ALLOW_SHELFICE
(PID.TID 0000.0001) 
(PID.TID 0000.0001) SHELFICE_CHECK: start of SHELFICE config. summary
(PID.TID 0000.0001) SHELFICEisOn = /* package is turned on */
(PID.TID 0000.0001)                   T
(PID.TID 0000.0001)     ;
(PID.TID 0000.0001) useISOMIPTD = /* use simple isomip thermodynamics */
(PID.TID 0000.0001)                   T
(PID.TID 0000.0001)     ;
(PID.TID 0000.0001) SHELFICEconserve = /* use a conservative form of boundary conditions */
(PID.TID 0000.0001)                   F
(PID.TID 0000.0001)     ;
(PID.TID 0000.0001) SHELFICEboundaryLayer = /* use simple boundary layer scheme to suppress noise */
(PID.TID 0000.0001)                   T
(PID.TID 0000.0001)     ;
(PID.TID 0000.0001) SHI_withBL_realFWflux = /* use real FW Flux in boundary layer scheme */
(PID.TID 0000.0001)                   F
(PID.TID 0000.0001)     ;
(PID.TID 0000.0001) SHELFICEadvDiffHeatFlux = /* use adv.-diff. instead of just diff. heat flux into the ice shelf */
(PID.TID 0000.0001)                   F
(PID.TID 0000.0001)     ;
(PID.TID 0000.0001) SHELFICEMassStepping = /* step forward ice shelf mass/thickness */
(PID.TID 0000.0001)                   F
(PID.TID 0000.0001)     ;
(PID.TID 0000.0001) no_slip_shelfice = /* use no slip boundary conditions */
(PID.TID 0000.0001)                   F
(PID.TID 0000.0001)     ;
(PID.TID 0000.0001) SHELFICEdragLinear    = /* linear drag coefficient */
(PID.TID 0000.0001)                 0.000000000000000E+00
(PID.TID 0000.0001)     ;
(PID.TID 0000.0001) SHELFICEdragQuadratic = /* quadratic drag coefficient */
(PID.TID 0000.0001)                 2.500000000000000E-03
(PID.TID 0000.0001)     ;
(PID.TID 0000.0001) SHELFICEselectDragQuadr = /* select quadratic drag option */
(PID.TID 0000.0001)                       0
(PID.TID 0000.0001)     ;
(PID.TID 0000.0001) SHELFICElatentHeat      = /* latent heat of ice */
(PID.TID 0000.0001)                 3.340000000000000E+05
(PID.TID 0000.0001)     ;
(PID.TID 0000.0001) SHELFICEheatCapacity_Cp = /* heat capacity of ice shelf */
(PID.TID 0000.0001)                 2.000000000000000E+03
(PID.TID 0000.0001)     ;
(PID.TID 0000.0001) rhoShelfice   = /* density of ice shelf */
(PID.TID 0000.0001)                 9.170000000000000E+02
(PID.TID 0000.0001)     ;
(PID.TID 0000.0001) SHELFICEkappa = /* thermal conductivity of ice shelf */
(PID.TID 0000.0001)                 1.540000000000000E-06
(PID.TID 0000.0001)     ;
(PID.TID 0000.0001) SHELFICEthetaSurface = /* surface temperature above i.s. */
(PID.TID 0000.0001)                -2.000000000000000E+01
(PID.TID 0000.0001)     ;
(PID.TID 0000.0001) SHELFICEheatTransCoeff = /* heat transfer coefficient */
(PID.TID 0000.0001)                 1.000000000000000E-04
(PID.TID 0000.0001)     ;
(PID.TID 0000.0001) SHELFICEsaltTransCoeff = /* salt transfer coefficient */
(PID.TID 0000.0001)                 5.050000000000000E-07
(PID.TID 0000.0001)     ;
(PID.TID 0000.0001) SHELFICEuseGammaFrict = /* use velocity dependent exchange coefficients */
(PID.TID 0000.0001)                   F
(PID.TID 0000.0001)     ;
(PID.TID 0000.0001) SHELFICEremeshFrequency = /* Frequency (in s) of Remeshing */
(PID.TID 0000.0001)                 0.000000000000000E+00
(PID.TID 0000.0001)     ;
(PID.TID 0000.0001) SHELFICEloadAnomalyFile = /* file name of loaded loadAnomaly field */
(PID.TID 0000.0001)               'phi0surf.exp1.jmd95z'
(PID.TID 0000.0001)     ;
(PID.TID 0000.0001) SHELFICEmassFile = /* file name of loaded mass field */
(PID.TID 0000.0001)               ''
(PID.TID 0000.0001)     ;
(PID.TID 0000.0001) SHELFICEtopoFile = /* file name of loaded under-ice topography */
(PID.TID 0000.0001)               'icetopo.exp1'
(PID.TID 0000.0001)     ;
(PID.TID 0000.0001) SHELFICEMassDynTendFile = /* file name of loaded dynamic mass tendency field */
(PID.TID 0000.0001)               ''
(PID.TID 0000.0001)     ;
(PID.TID 0000.0001) SHELFICEwriteState  = /* do simple standard output */
(PID.TID 0000.0001)                   T
(PID.TID 0000.0001)     ;
(PID.TID 0000.0001) SHELFICE_dump_mdsio = /* use mdsio for snapshots */
(PID.TID 0000.0001)                   T
(PID.TID 0000.0001)     ;
(PID.TID 0000.0001) SHELFICE_tave_mdsio = /* use mdsio for time averages */
(PID.TID 0000.0001)                   T
(PID.TID 0000.0001)     ;
(PID.TID 0000.0001) SHELFICE_dump_mnc   = /* use netcdf for snapshots */
(PID.TID 0000.0001)                   F
(PID.TID 0000.0001)     ;
(PID.TID 0000.0001) SHELFICE_tave_mnc   = /* use netcdf for time averages */
(PID.TID 0000.0001)                   F
(PID.TID 0000.0001)     ;
(PID.TID 0000.0001) SHELFICE_dumpFreq = /* analoguous to dumpFreq */
(PID.TID 0000.0001)                 0.000000000000000E+00
(PID.TID 0000.0001)     ;
(PID.TID 0000.0001) SHELFICE_taveFreq = /* analoguous to taveFreq */
(PID.TID 0000.0001)                 0.000000000000000E+00
(PID.TID 0000.0001)     ;
(PID.TID 0000.0001) SHELFICE_CHECK: end of SHELFICE config. summary
(PID.TID 0000.0001) GAD_CHECK: #define ALLOW_GENERIC_ADVDIFF
(PID.TID 0000.0001) // =======================================================
(PID.TID 0000.0001) // Check Model config. (CONFIG_CHECK):
(PID.TID 0000.0001) // CONFIG_CHECK : Normal End
(PID.TID 0000.0001) // =======================================================
(PID.TID 0000.0001) 
(PID.TID 0000.0001) Start initial hydrostatic pressure computation
(PID.TID 0000.0001) Pressure is predetermined for buoyancyRelation OCEANIC
(PID.TID 0000.0001) 
(PID.TID 0000.0001) // =======================================================
(PID.TID 0000.0001) // Model current state
(PID.TID 0000.0001) // =======================================================
(PID.TID 0000.0001) 
(PID.TID 0000.0001) // =======================================================
(PID.TID 0000.0001) // Begin MONITOR dynamic field statistics
(PID.TID 0000.0001) // =======================================================
(PID.TID 0000.0001) %MON time_tsnumber                =                     0
(PID.TID 0000.0001) %MON time_secondsf                =   0.0000000000000E+00
(PID.TID 0000.0001) %MON dynstat_eta_max              =   0.0000000000000E+00
(PID.TID 0000.0001) %MON dynstat_eta_min              =   0.0000000000000E+00
(PID.TID 0000.0001) %MON dynstat_eta_mean             =   0.0000000000000E+00
(PID.TID 0000.0001) %MON dynstat_eta_sd               =   0.0000000000000E+00
(PID.TID 0000.0001) %MON dynstat_eta_del2             =   0.0000000000000E+00
(PID.TID 0000.0001) %MON dynstat_uvel_max             =   0.0000000000000E+00
(PID.TID 0000.0001) %MON dynstat_uvel_min             =   0.0000000000000E+00
(PID.TID 0000.0001) %MON dynstat_uvel_mean            =   0.0000000000000E+00
(PID.TID 0000.0001) %MON dynstat_uvel_sd              =   0.0000000000000E+00
(PID.TID 0000.0001) %MON dynstat_uvel_del2            =   0.0000000000000E+00
(PID.TID 0000.0001) %MON dynstat_vvel_max             =   0.0000000000000E+00
(PID.TID 0000.0001) %MON dynstat_vvel_min             =   0.0000000000000E+00
(PID.TID 0000.0001) %MON dynstat_vvel_mean            =   0.0000000000000E+00
(PID.TID 0000.0001) %MON dynstat_vvel_sd              =   0.0000000000000E+00
(PID.TID 0000.0001) %MON dynstat_vvel_del2            =   0.0000000000000E+00
(PID.TID 0000.0001) %MON dynstat_wvel_max             =  -0.0000000000000E+00
(PID.TID 0000.0001) %MON dynstat_wvel_min             =  -0.0000000000000E+00
(PID.TID 0000.0001) %MON dynstat_wvel_mean            =   0.0000000000000E+00
(PID.TID 0000.0001) %MON dynstat_wvel_sd              =   0.0000000000000E+00
(PID.TID 0000.0001) %MON dynstat_wvel_del2            =   0.0000000000000E+00
(PID.TID 0000.0001) %MON dynstat_theta_max            =  -1.9000000000000E+00
(PID.TID 0000.0001) %MON dynstat_theta_min            =  -1.9000000000000E+00
(PID.TID 0000.0001) %MON dynstat_theta_mean           =  -1.9000000000001E+00
(PID.TID 0000.0001) %MON dynstat_theta_sd             =   8.1268325402562E-14
(PID.TID 0000.0001) %MON dynstat_theta_del2           =   0.0000000000000E+00
(PID.TID 0000.0001) %MON dynstat_salt_max             =   3.4400000000000E+01
(PID.TID 0000.0001) %MON dynstat_salt_min             =   3.4400000000000E+01
(PID.TID 0000.0001) %MON dynstat_salt_mean            =   3.4400000000001E+01
(PID.TID 0000.0001) %MON dynstat_salt_sd              =   7.3185901783291E-13
(PID.TID 0000.0001) %MON dynstat_salt_del2            =   0.0000000000000E+00
(PID.TID 0000.0001) %MON trAdv_CFL_u_max              =   0.0000000000000E+00
(PID.TID 0000.0001) %MON trAdv_CFL_v_max              =   0.0000000000000E+00
(PID.TID 0000.0001) %MON trAdv_CFL_w_max              =   0.0000000000000E+00
(PID.TID 0000.0001) %MON advcfl_uvel_max              =   0.0000000000000E+00
(PID.TID 0000.0001) %MON advcfl_vvel_max              =   0.0000000000000E+00
(PID.TID 0000.0001) %MON advcfl_wvel_max              =   0.0000000000000E+00
(PID.TID 0000.0001) %MON advcfl_W_hf_max              =   0.0000000000000E+00
(PID.TID 0000.0001) %MON pe_b_mean                    =   0.0000000000000E+00
(PID.TID 0000.0001) %MON ke_max                       =   0.0000000000000E+00
(PID.TID 0000.0001) %MON ke_mean                      =   0.0000000000000E+00
(PID.TID 0000.0001) %MON ke_vol                       =   2.9241705273105E+14
(PID.TID 0000.0001) %MON vort_r_min                   =   0.0000000000000E+00
(PID.TID 0000.0001) %MON vort_r_max                   =   0.0000000000000E+00
(PID.TID 0000.0001) %MON vort_a_mean                  =  -1.4007437277914E-04
(PID.TID 0000.0001) %MON vort_a_sd                    =   1.7682771475900E-06
(PID.TID 0000.0001) %MON vort_p_mean                  =  -1.5039772194953E-04
(PID.TID 0000.0001) %MON vort_p_sd                    =   8.7081213929730E-05
(PID.TID 0000.0001) %MON surfExpan_theta_mean         =   0.0000000000000E+00
(PID.TID 0000.0001) %MON surfExpan_salt_mean          =   0.0000000000000E+00
(PID.TID 0000.0001) // =======================================================
(PID.TID 0000.0001) // End MONITOR dynamic field statistics
(PID.TID 0000.0001) // =======================================================
(PID.TID 0000.0001) SOLVE_FOR_PRESSURE: putPmEinXvector =    F
(PID.TID 0000.0001) SOLVE_FOR_PRESSURE: zeroPsNH=    F , zeroMeanPnh=    F
(PID.TID 0000.0001) SOLVE_FOR_PRESSURE: oldFreeSurfTerm =    F
 cg2d: Sum(rhs),rhsMax =   2.04281036531029E-14  2.93733620583064E-13
(PID.TID 0000.0001)      cg2d_init_res =   1.98627929058536E+01
(PID.TID 0000.0001)      cg2d_iters(min,last) =      -1     213
(PID.TID 0000.0001)      cg2d_last_res =   8.51519638357812E-14
(PID.TID 0000.0001) // =======================================================
(PID.TID 0000.0001) // Begin MONITOR dynamic field statistics
(PID.TID 0000.0001) // =======================================================
(PID.TID 0000.0001) %MON time_tsnumber                =                     1
(PID.TID 0000.0001) %MON time_secondsf                =   1.8000000000000E+03
(PID.TID 0000.0001) %MON dynstat_eta_max              =   6.4489366259464E-14
(PID.TID 0000.0001) %MON dynstat_eta_min              =  -3.6172495628181E-14
(PID.TID 0000.0001) %MON dynstat_eta_mean             =  -1.3015005910811E-30
(PID.TID 0000.0001) %MON dynstat_eta_sd               =   1.3932096145382E-14
(PID.TID 0000.0001) %MON dynstat_eta_del2             =   4.4441285693597E-16
(PID.TID 0000.0001) %MON dynstat_uvel_max             =   1.8202127888508E-14
(PID.TID 0000.0001) %MON dynstat_uvel_min             =  -1.0974052134043E-14
(PID.TID 0000.0001) %MON dynstat_uvel_mean            =   8.0982295754563E-17
(PID.TID 0000.0001) %MON dynstat_uvel_sd              =   2.5578230812468E-15
(PID.TID 0000.0001) %MON dynstat_uvel_del2            =   1.7874272229403E-17
(PID.TID 0000.0001) %MON dynstat_vvel_max             =   1.2102977817343E-14
(PID.TID 0000.0001) %MON dynstat_vvel_min             =  -1.5644893150655E-14
(PID.TID 0000.0001) %MON dynstat_vvel_mean            =  -8.6595007985511E-16
(PID.TID 0000.0001) %MON dynstat_vvel_sd              =   1.3541078193367E-15
(PID.TID 0000.0001) %MON dynstat_vvel_del2            =   2.7283604765974E-18
(PID.TID 0000.0001) %MON dynstat_wvel_max             =   4.3644681172139E-17
(PID.TID 0000.0001) %MON dynstat_wvel_min             =  -2.6054641419741E-17
(PID.TID 0000.0001) %MON dynstat_wvel_mean            =  -7.5552037884627E-19
(PID.TID 0000.0001) %MON dynstat_wvel_sd              =   3.9876744935767E-18
(PID.TID 0000.0001) %MON dynstat_wvel_del2            =   2.6636016016166E-20
(PID.TID 0000.0001) %MON dynstat_theta_max            =  -1.9000000000000E+00
(PID.TID 0000.0001) %MON dynstat_theta_min            =  -1.9031389255137E+00
(PID.TID 0000.0001) %MON dynstat_theta_mean           =  -1.9000578333446E+00
(PID.TID 0000.0001) %MON dynstat_theta_sd             =   2.6291578856354E-04
(PID.TID 0000.0001) %MON dynstat_theta_del2           =   2.7580173217958E-07
(PID.TID 0000.0001) %MON dynstat_salt_max             =   3.4400000000000E+01
(PID.TID 0000.0001) %MON dynstat_salt_min             =   3.4398752591001E+01
(PID.TID 0000.0001) %MON dynstat_salt_mean            =   3.4399977017030E+01
(PID.TID 0000.0001) %MON dynstat_salt_sd              =   1.0448273437498E-04
(PID.TID 0000.0001) %MON dynstat_salt_del2            =   1.0960360836813E-07
(PID.TID 0000.0001) %MON trAdv_CFL_u_max              =   0.0000000000000E+00
(PID.TID 0000.0001) %MON trAdv_CFL_v_max              =   0.0000000000000E+00
(PID.TID 0000.0001) %MON trAdv_CFL_w_max              =   0.0000000000000E+00
(PID.TID 0000.0001) %MON advcfl_uvel_max              =   5.3153683900459E-15
(PID.TID 0000.0001) %MON advcfl_vvel_max              =   2.5329598543770E-15
(PID.TID 0000.0001) %MON advcfl_wvel_max              =   2.6186808703283E-15
(PID.TID 0000.0001) %MON advcfl_W_hf_max              =   1.9543340299404E-14
(PID.TID 0000.0001) %MON pe_b_mean                    =  -5.0056638937829E-18
(PID.TID 0000.0001) %MON ke_max                       =   1.6879902920162E-28
(PID.TID 0000.0001) %MON ke_mean                      =   4.4842333696478E-30
(PID.TID 0000.0001) %MON ke_vol                       =   2.9241705273105E+14
(PID.TID 0000.0001) %MON vort_r_min                   =  -2.1928629128559E-18
(PID.TID 0000.0001) %MON vort_r_max                   =   2.5499497430862E-18
(PID.TID 0000.0001) %MON vort_a_mean                  =  -1.4007437277914E-04
(PID.TID 0000.0001) %MON vort_a_sd                    =   1.7682771475769E-06
(PID.TID 0000.0001) %MON vort_p_mean                  =  -1.5039772194954E-04
(PID.TID 0000.0001) %MON vort_p_sd                    =   8.7081213929731E-05
(PID.TID 0000.0001) %MON surfExpan_theta_mean         =  -2.2514380499291E-21
(PID.TID 0000.0001) %MON surfExpan_salt_mean          =  -8.9472148105717E-22
(PID.TID 0000.0001) // =======================================================
(PID.TID 0000.0001) // End MONITOR dynamic field statistics
(PID.TID 0000.0001) // =======================================================
 cg2d: Sum(rhs),rhsMax =   4.50220984463300E-14  2.08505177578556E-06
(PID.TID 0000.0001)      cg2d_init_res =   1.60247623113168E+01
(PID.TID 0000.0001)      cg2d_iters(min,last) =      -1     220
(PID.TID 0000.0001)      cg2d_last_res =   9.39774990997693E-14
(PID.TID 0000.0001) // =======================================================
(PID.TID 0000.0001) // Begin MONITOR dynamic field statistics
(PID.TID 0000.0001) // =======================================================
(PID.TID 0000.0001) %MON time_tsnumber                =                     2
(PID.TID 0000.0001) %MON time_secondsf                =   3.6000000000000E+03
(PID.TID 0000.0001) %MON dynstat_eta_max              =   2.6881488646342E-06
(PID.TID 0000.0001) %MON dynstat_eta_min              =  -5.8818564281982E-06
(PID.TID 0000.0001) %MON dynstat_eta_mean             =   9.5660533416377E-23
(PID.TID 0000.0001) %MON dynstat_eta_sd               =   1.1126275278946E-06
(PID.TID 0000.0001) %MON dynstat_eta_del2             =   2.9692349307639E-09
(PID.TID 0000.0001) %MON dynstat_uvel_max             =   8.0156825594733E-07
(PID.TID 0000.0001) %MON dynstat_uvel_min             =  -6.3321137792513E-06
(PID.TID 0000.0001) %MON dynstat_uvel_mean            =   1.5426579088123E-09
(PID.TID 0000.0001) %MON dynstat_uvel_sd              =   4.3299043219889E-07
(PID.TID 0000.0001) %MON dynstat_uvel_del2            =   1.0079615221569E-09
(PID.TID 0000.0001) %MON dynstat_vvel_max             =   2.4942596516569E-05
(PID.TID 0000.0001) %MON dynstat_vvel_min             =  -3.1219573587040E-06
(PID.TID 0000.0001) %MON dynstat_vvel_mean            =  -7.1125221931839E-08
(PID.TID 0000.0001) %MON dynstat_vvel_sd              =   1.5676545486392E-06
(PID.TID 0000.0001) %MON dynstat_vvel_del2            =   3.1502300106936E-09
(PID.TID 0000.0001) %MON dynstat_wvel_max             =   5.6459434031884E-08
(PID.TID 0000.0001) %MON dynstat_wvel_min             =  -5.1966809878235E-08
(PID.TID 0000.0001) %MON dynstat_wvel_mean            =  -4.2531381571338E-11
(PID.TID 0000.0001) %MON dynstat_wvel_sd              =   4.1524869696944E-09
(PID.TID 0000.0001) %MON dynstat_wvel_del2            =   4.5367896501535E-11
(PID.TID 0000.0001) %MON dynstat_theta_max            =  -1.9000000000000E+00
(PID.TID 0000.0001) %MON dynstat_theta_min            =  -1.9062526029515E+00
(PID.TID 0000.0001) %MON dynstat_theta_mean           =  -1.9001152080661E+00
(PID.TID 0000.0001) %MON dynstat_theta_sd             =   5.2357962872219E-04
(PID.TID 0000.0001) %MON dynstat_theta_del2           =   5.4749951210005E-07
(PID.TID 0000.0001) %MON dynstat_salt_max             =   3.4400000000000E+01
(PID.TID 0000.0001) %MON dynstat_salt_min             =   3.4397515215587E+01
(PID.TID 0000.0001) %MON dynstat_salt_mean            =   3.4399954216315E+01
(PID.TID 0000.0001) %MON dynstat_salt_sd              =   2.0807054445395E-04
(PID.TID 0000.0001) %MON dynstat_salt_del2            =   2.1757630610889E-07
(PID.TID 0000.0001) %MON trAdv_CFL_u_max              =   5.3153690646929E-15
(PID.TID 0000.0001) %MON trAdv_CFL_v_max              =   2.5212046536955E-15
(PID.TID 0000.0001) %MON trAdv_CFL_w_max              =   1.9543340299404E-14
(PID.TID 0000.0001) %MON advcfl_uvel_max              =   1.8840827687547E-06
(PID.TID 0000.0001) %MON advcfl_vvel_max              =   4.0382887266795E-06
(PID.TID 0000.0001) %MON advcfl_wvel_max              =   3.3875660419130E-06
(PID.TID 0000.0001) %MON advcfl_W_hf_max              =   5.2147096335089E-06
(PID.TID 0000.0001) %MON pe_b_mean                    =  -7.7291614927283E-10
(PID.TID 0000.0001) %MON ke_max                       =   1.8629377844412E-10
(PID.TID 0000.0001) %MON ke_mean                      =   1.3086512476667E-12
(PID.TID 0000.0001) %MON ke_vol                       =   2.9241705273105E+14
(PID.TID 0000.0001) %MON vort_r_min                   =  -4.1867362615463E-09
(PID.TID 0000.0001) %MON vort_r_max                   =   4.1423096844049E-09
(PID.TID 0000.0001) %MON vort_a_mean                  =  -1.4007437277909E-04
(PID.TID 0000.0001) %MON vort_a_sd                    =   1.7682771048546E-06
(PID.TID 0000.0001) %MON vort_p_mean                  =  -1.5039772194948E-04
(PID.TID 0000.0001) %MON vort_p_sd                    =   8.7081151464315E-05
(PID.TID 0000.0001) %MON surfExpan_theta_mean         =  -2.4938748104976E-13
(PID.TID 0000.0001) %MON surfExpan_salt_mean          =  -9.9106584970990E-14
(PID.TID 0000.0001) // =======================================================
(PID.TID 0000.0001) // End MONITOR dynamic field statistics
(PID.TID 0000.0001) // =======================================================
 cg2d: Sum(rhs),rhsMax =   2.26485497023532E-14  3.49592206603561E-06
(PID.TID 0000.0001)      cg2d_init_res =   5.09564556234724E+00
(PID.TID 0000.0001)      cg2d_iters(min,last) =      -1     218
(PID.TID 0000.0001)      cg2d_last_res =   9.43658736579253E-14
(PID.TID 0000.0001) // =======================================================
(PID.TID 0000.0001) // Begin MONITOR dynamic field statistics
(PID.TID 0000.0001) // =======================================================
(PID.TID 0000.0001) %MON time_tsnumber                =                     3
(PID.TID 0000.0001) %MON time_secondsf                =   5.4000000000000E+03
(PID.TID 0000.0001) %MON dynstat_eta_max              =   6.8843370344542E-06
(PID.TID 0000.0001) %MON dynstat_eta_min              =  -1.1486023091236E-05
(PID.TID 0000.0001) %MON dynstat_eta_mean             =  -1.8300275957916E-22
(PID.TID 0000.0001) %MON dynstat_eta_sd               =   2.6362963101838E-06
(PID.TID 0000.0001) %MON dynstat_eta_del2             =   4.2808829386883E-09
(PID.TID 0000.0001) %MON dynstat_uvel_max             =   2.9629456772958E-06
(PID.TID 0000.0001) %MON dynstat_uvel_min             =  -2.1526244366029E-05
(PID.TID 0000.0001) %MON dynstat_uvel_mean            =   5.8952896497738E-09
(PID.TID 0000.0001) %MON dynstat_uvel_sd              =   1.5050926899290E-06
(PID.TID 0000.0001) %MON dynstat_uvel_del2            =   3.4185773470677E-09
(PID.TID 0000.0001) %MON dynstat_vvel_max             =   6.1373020047675E-05
(PID.TID 0000.0001) %MON dynstat_vvel_min             =  -8.1618143249109E-06
(PID.TID 0000.0001) %MON dynstat_vvel_mean            =  -1.7143598721199E-07
(PID.TID 0000.0001) %MON dynstat_vvel_sd              =   3.9164509391482E-06
(PID.TID 0000.0001) %MON dynstat_vvel_del2            =   7.8129360971128E-09
(PID.TID 0000.0001) %MON dynstat_wvel_max             =   1.5563175637279E-07
(PID.TID 0000.0001) %MON dynstat_wvel_min             =  -1.5431603505112E-07
(PID.TID 0000.0001) %MON dynstat_wvel_mean            =  -8.8836834039259E-11
(PID.TID 0000.0001) %MON dynstat_wvel_sd              =   1.0516428468897E-08
(PID.TID 0000.0001) %MON dynstat_wvel_del2            =   1.1250219450058E-10
(PID.TID 0000.0001) %MON dynstat_theta_max            =  -1.9000000000000E+00
(PID.TID 0000.0001) %MON dynstat_theta_min            =  -1.9093507163309E+00
(PID.TID 0000.0001) %MON dynstat_theta_mean           =  -1.9001722999594E+00
(PID.TID 0000.0001) %MON dynstat_theta_sd             =   7.8285581175278E-04
(PID.TID 0000.0001) %MON dynstat_theta_del2           =   8.1669737180502E-07
(PID.TID 0000.0001) %MON dynstat_salt_max             =   3.4400000000000E+01
(PID.TID 0000.0001) %MON dynstat_salt_min             =   3.4396284025330E+01
(PID.TID 0000.0001) %MON dynstat_salt_mean            =   3.4399931527997E+01
(PID.TID 0000.0001) %MON dynstat_salt_sd              =   3.1110689959030E-04
(PID.TID 0000.0001) %MON dynstat_salt_del2            =   3.2455553555561E-07
(PID.TID 0000.0001) %MON trAdv_CFL_u_max              =   1.8840830078900E-06
(PID.TID 0000.0001) %MON trAdv_CFL_v_max              =   4.0575836817416E-06
(PID.TID 0000.0001) %MON trAdv_CFL_w_max              =   3.3875660419130E-06
(PID.TID 0000.0001) %MON advcfl_uvel_max              =   6.4050058953351E-06
(PID.TID 0000.0001) %MON advcfl_vvel_max              =   9.9364945753006E-06
(PID.TID 0000.0001) %MON advcfl_wvel_max              =   9.3379053823673E-06
(PID.TID 0000.0001) %MON advcfl_W_hf_max              =   1.2762332207411E-05
(PID.TID 0000.0001) %MON pe_b_mean                    =  -2.0542812622374E-09
(PID.TID 0000.0001) %MON ke_max                       =   1.2513379726083E-09
(PID.TID 0000.0001) %MON ke_mean                      =   8.7031984356284E-12
(PID.TID 0000.0001) %MON ke_vol                       =   2.9241705273105E+14
(PID.TID 0000.0001) %MON vort_r_min                   =  -1.0358136496501E-08
(PID.TID 0000.0001) %MON vort_r_max                   =   1.0187200250353E-08
(PID.TID 0000.0001) %MON vort_a_mean                  =  -1.4007437277834E-04
(PID.TID 0000.0001) %MON vort_a_sd                    =   1.7682770039105E-06
(PID.TID 0000.0001) %MON vort_p_mean                  =  -1.5039772194867E-04
(PID.TID 0000.0001) %MON vort_p_sd                    =   8.7080995330775E-05
(PID.TID 0000.0001) %MON surfExpan_theta_mean         =  -7.8387573800315E-13
(PID.TID 0000.0001) %MON surfExpan_salt_mean          =  -3.1151221828453E-13
(PID.TID 0000.0001) // =======================================================
(PID.TID 0000.0001) // End MONITOR dynamic field statistics
(PID.TID 0000.0001) // =======================================================
 cg2d: Sum(rhs),rhsMax =  -3.10862446895044E-14  4.86659391821233E-06
(PID.TID 0000.0001)      cg2d_init_res =   3.38386525930609E+00
(PID.TID 0000.0001)      cg2d_iters(min,last) =      -1     218
(PID.TID 0000.0001)      cg2d_last_res =   9.91487350221677E-14
(PID.TID 0000.0001) // =======================================================
(PID.TID 0000.0001) // Begin MONITOR dynamic field statistics
(PID.TID 0000.0001) // =======================================================
(PID.TID 0000.0001) %MON time_tsnumber                =                     4
(PID.TID 0000.0001) %MON time_secondsf                =   7.2000000000000E+03
(PID.TID 0000.0001) %MON dynstat_eta_max              =   1.1730881242169E-05
(PID.TID 0000.0001) %MON dynstat_eta_min              =  -1.5615804588329E-05
(PID.TID 0000.0001) %MON dynstat_eta_mean             =   8.4846733986699E-22
(PID.TID 0000.0001) %MON dynstat_eta_sd               =   4.2975066470366E-06
(PID.TID 0000.0001) %MON dynstat_eta_del2             =   5.4565375232937E-09
(PID.TID 0000.0001) %MON dynstat_uvel_max             =   6.7563526837225E-06
(PID.TID 0000.0001) %MON dynstat_uvel_min             =  -4.7672507710614E-05
(PID.TID 0000.0001) %MON dynstat_uvel_mean            =   1.0635060331360E-08
(PID.TID 0000.0001) %MON dynstat_uvel_sd              =   3.3786796818895E-06
(PID.TID 0000.0001) %MON dynstat_uvel_del2            =   7.5574751468197E-09
(PID.TID 0000.0001) %MON dynstat_vvel_max             =   1.0653766566166E-04
(PID.TID 0000.0001) %MON dynstat_vvel_min             =  -1.4642714851745E-05
(PID.TID 0000.0001) %MON dynstat_vvel_mean            =  -2.7931675434279E-07
(PID.TID 0000.0001) %MON dynstat_vvel_sd              =   6.8595933696096E-06
(PID.TID 0000.0001) %MON dynstat_vvel_del2            =   1.3609243127098E-08
(PID.TID 0000.0001) %MON dynstat_wvel_max             =   3.0455392708097E-07
(PID.TID 0000.0001) %MON dynstat_wvel_min             =  -3.1180293054161E-07
(PID.TID 0000.0001) %MON dynstat_wvel_mean            =  -1.3004638101679E-10
(PID.TID 0000.0001) %MON dynstat_wvel_sd              =   1.8825401465462E-08
(PID.TID 0000.0001) %MON dynstat_wvel_del2            =   1.9597156455706E-10
(PID.TID 0000.0001) %MON dynstat_theta_max            =  -1.9000000000000E+00
(PID.TID 0000.0001) %MON dynstat_theta_min            =  -1.9124333146519E+00
(PID.TID 0000.0001) %MON dynstat_theta_mean           =  -1.9002291099447E+00
(PID.TID 0000.0001) %MON dynstat_theta_sd             =   1.0407491623950E-03
(PID.TID 0000.0001) %MON dynstat_theta_del2           =   1.0834143918549E-06
(PID.TID 0000.0001) %MON dynstat_salt_max             =   3.4400000000000E+01
(PID.TID 0000.0001) %MON dynstat_salt_min             =   3.4395059000757E+01
(PID.TID 0000.0001) %MON dynstat_salt_mean            =   3.4399908951709E+01
(PID.TID 0000.0001) %MON dynstat_salt_sd              =   4.1359371713554E-04
(PID.TID 0000.0001) %MON dynstat_salt_del2            =   4.3054887932346E-07
(PID.TID 0000.0001) %MON trAdv_CFL_u_max              =   6.4050067082839E-06
(PID.TID 0000.0001) %MON trAdv_CFL_v_max              =   9.9839711747419E-06
(PID.TID 0000.0001) %MON trAdv_CFL_w_max              =   9.3379053823673E-06
(PID.TID 0000.0001) %MON advcfl_uvel_max              =   1.4184670941196E-05
(PID.TID 0000.0001) %MON advcfl_vvel_max              =   1.7248799816106E-05
(PID.TID 0000.0001) %MON advcfl_wvel_max              =   1.8708175832496E-05
(PID.TID 0000.0001) %MON advcfl_W_hf_max              =   2.5380018236229E-05
(PID.TID 0000.0001) %MON pe_b_mean                    =  -3.6618299324038E-09
(PID.TID 0000.0001) %MON ke_max                       =   4.2363212656653E-09
(PID.TID 0000.0001) %MON ke_mean                      =   2.8880251870403E-11
(PID.TID 0000.0001) %MON ke_vol                       =   2.9241705273105E+14
(PID.TID 0000.0001) %MON vort_r_min                   =  -1.8033298078598E-08
(PID.TID 0000.0001) %MON vort_r_max                   =   1.7720732271653E-08
(PID.TID 0000.0001) %MON vort_a_mean                  =  -1.4007437277488E-04
(PID.TID 0000.0001) %MON vort_a_sd                    =   1.7682768383814E-06
(PID.TID 0000.0001) %MON vort_p_mean                  =  -1.5039772194496E-04
(PID.TID 0000.0001) %MON vort_p_sd                    =   8.7080722413730E-05
(PID.TID 0000.0001) %MON surfExpan_theta_mean         =  -1.5303175784651E-12
(PID.TID 0000.0001) %MON surfExpan_salt_mean          =  -6.0814820567801E-13
(PID.TID 0000.0001) // =======================================================
(PID.TID 0000.0001) // End MONITOR dynamic field statistics
(PID.TID 0000.0001) // =======================================================
 cg2d: Sum(rhs),rhsMax =   2.84217094304040E-14  6.04842537438708E-06
(PID.TID 0000.0001)      cg2d_init_res =   2.55705534469324E+00
(PID.TID 0000.0001)      cg2d_iters(min,last) =      -1     219
(PID.TID 0000.0001)      cg2d_last_res =   8.65850264030500E-14
(PID.TID 0000.0001) // =======================================================
(PID.TID 0000.0001) // Begin MONITOR dynamic field statistics
(PID.TID 0000.0001) // =======================================================
(PID.TID 0000.0001) %MON time_tsnumber                =                     5
(PID.TID 0000.0001) %MON time_secondsf                =   9.0000000000000E+03
(PID.TID 0000.0001) %MON dynstat_eta_max              =   1.6952544924756E-05
(PID.TID 0000.0001) %MON dynstat_eta_min              =  -1.8596817943251E-05
(PID.TID 0000.0001) %MON dynstat_eta_mean             =   8.6510395437419E-22
(PID.TID 0000.0001) %MON dynstat_eta_sd               =   6.0662735987093E-06
(PID.TID 0000.0001) %MON dynstat_eta_del2             =   6.4490829131826E-09
(PID.TID 0000.0001) %MON dynstat_uvel_max             =   1.2350847033400E-05
(PID.TID 0000.0001) %MON dynstat_uvel_min             =  -8.6080315240027E-05
(PID.TID 0000.0001) %MON dynstat_uvel_mean            =   1.2999559042573E-08
(PID.TID 0000.0001) %MON dynstat_uvel_sd              =   6.1530079081881E-06
(PID.TID 0000.0001) %MON dynstat_uvel_del2            =   1.3599904193725E-08
(PID.TID 0000.0001) %MON dynstat_vvel_max             =   1.5729923690012E-04
(PID.TID 0000.0001) %MON dynstat_vvel_min             =  -2.2060025783771E-05
(PID.TID 0000.0001) %MON dynstat_vvel_mean            =  -3.7354380197307E-07
(PID.TID 0000.0001) %MON dynstat_vvel_sd              =   1.0173930745563E-05
(PID.TID 0000.0001) %MON dynstat_vvel_del2            =   2.0097033155845E-08
(PID.TID 0000.0001) %MON dynstat_wvel_max             =   5.2134421787269E-07
(PID.TID 0000.0001) %MON dynstat_wvel_min             =  -5.2567266495934E-07
(PID.TID 0000.0001) %MON dynstat_wvel_mean            =  -1.5943727719511E-10
(PID.TID 0000.0001) %MON dynstat_wvel_sd              =   2.8756652077739E-08
(PID.TID 0000.0001) %MON dynstat_wvel_del2            =   2.8976551286231E-10
(PID.TID 0000.0001) %MON dynstat_theta_max            =  -1.9000000000000E+00
(PID.TID 0000.0001) %MON dynstat_theta_min            =  -1.9155004801571E+00
(PID.TID 0000.0001) %MON dynstat_theta_mean           =  -1.9002856394829E+00
(PID.TID 0000.0001) %MON dynstat_theta_sd             =   1.2972672954247E-03
(PID.TID 0000.0001) %MON dynstat_theta_del2           =   1.3476775389528E-06
(PID.TID 0000.0001) %MON dynstat_salt_max             =   3.4400000000000E+01
(PID.TID 0000.0001) %MON dynstat_salt_min             =   3.4393840109186E+01
(PID.TID 0000.0001) %MON dynstat_salt_mean            =   3.4399886486870E+01
(PID.TID 0000.0001) %MON dynstat_salt_sd              =   5.1553402320156E-04
(PID.TID 0000.0001) %MON dynstat_salt_del2            =   5.3556705398011E-07
(PID.TID 0000.0001) %MON trAdv_CFL_u_max              =   1.4184672741571E-05
(PID.TID 0000.0001) %MON trAdv_CFL_v_max              =   1.7331214630859E-05
(PID.TID 0000.0001) %MON trAdv_CFL_w_max              =   1.8708175832496E-05
(PID.TID 0000.0001) %MON advcfl_uvel_max              =   2.5612685483343E-05
(PID.TID 0000.0001) %MON advcfl_vvel_max              =   2.5467265794364E-05
(PID.TID 0000.0001) %MON advcfl_wvel_max              =   3.1540359897560E-05
(PID.TID 0000.0001) %MON advcfl_W_hf_max              =   4.2038565932745E-05
(PID.TID 0000.0001) %MON pe_b_mean                    =  -5.4882264044663E-09
(PID.TID 0000.0001) %MON ke_max                       =   1.0486050093104E-08
(PID.TID 0000.0001) %MON ke_mean                      =   6.9758394577337E-11
(PID.TID 0000.0001) %MON ke_vol                       =   2.9241705273105E+14
(PID.TID 0000.0001) %MON vort_r_min                   =  -2.6632226595991E-08
(PID.TID 0000.0001) %MON vort_r_max                   =   2.6140836616346E-08
(PID.TID 0000.0001) %MON vort_a_mean                  =  -1.4007437276577E-04
(PID.TID 0000.0001) %MON vort_a_sd                    =   1.7682766175878E-06
(PID.TID 0000.0001) %MON vort_p_mean                  =  -1.5039772193518E-04
(PID.TID 0000.0001) %MON vort_p_sd                    =   8.7080318259132E-05
(PID.TID 0000.0001) %MON surfExpan_theta_mean         =  -2.3414369352672E-12
(PID.TID 0000.0001) %MON surfExpan_salt_mean          =  -9.3048703806919E-13
(PID.TID 0000.0001) // =======================================================
(PID.TID 0000.0001) // End MONITOR dynamic field statistics
(PID.TID 0000.0001) // =======================================================
 cg2d: Sum(rhs),rhsMax =   1.86517468137026E-14  7.47452323396340E-06
(PID.TID 0000.0001)      cg2d_init_res =   2.02256878892997E+00
(PID.TID 0000.0001)      cg2d_iters(min,last) =      -1     217
(PID.TID 0000.0001)      cg2d_last_res =   9.81231832875101E-14
(PID.TID 0000.0001) // =======================================================
(PID.TID 0000.0001) // Begin MONITOR dynamic field statistics
(PID.TID 0000.0001) // =======================================================
(PID.TID 0000.0001) %MON time_tsnumber                =                     6
(PID.TID 0000.0001) %MON time_secondsf                =   1.0800000000000E+04
(PID.TID 0000.0001) %MON dynstat_eta_max              =   2.2523175787940E-05
(PID.TID 0000.0001) %MON dynstat_eta_min              =  -2.1268679778761E-05
(PID.TID 0000.0001) %MON dynstat_eta_mean             =  -5.3237166423027E-22
(PID.TID 0000.0001) %MON dynstat_eta_sd               =   7.9512435678097E-06
(PID.TID 0000.0001) %MON dynstat_eta_del2             =   7.2669271339361E-09
(PID.TID 0000.0001) %MON dynstat_uvel_max             =   1.9895376666939E-05
(PID.TID 0000.0001) %MON dynstat_uvel_min             =  -1.3713340309157E-04
(PID.TID 0000.0001) %MON dynstat_uvel_mean            =   1.1398585027498E-08
(PID.TID 0000.0001) %MON dynstat_uvel_sd              =   9.8614009741087E-06
(PID.TID 0000.0001) %MON dynstat_uvel_del2            =   2.1582325429434E-08
(PID.TID 0000.0001) %MON dynstat_vvel_max             =   2.0998575927338E-04
(PID.TID 0000.0001) %MON dynstat_vvel_min             =  -2.9901809798183E-05
(PID.TID 0000.0001) %MON dynstat_vvel_mean            =  -4.3735103749512E-07
(PID.TID 0000.0001) %MON dynstat_vvel_sd              =   1.3622427621332E-05
(PID.TID 0000.0001) %MON dynstat_vvel_del2            =   2.6821074650990E-08
(PID.TID 0000.0001) %MON dynstat_wvel_max             =   7.9541907760340E-07
(PID.TID 0000.0001) %MON dynstat_wvel_min             =  -7.9336070165705E-07
(PID.TID 0000.0001) %MON dynstat_wvel_mean            =  -1.7324952742886E-10
(PID.TID 0000.0001) %MON dynstat_wvel_sd              =   3.9962653170528E-08
(PID.TID 0000.0001) %MON dynstat_wvel_del2            =   3.8770257993616E-10
(PID.TID 0000.0001) %MON dynstat_theta_max            =  -1.9000000000000E+00
(PID.TID 0000.0001) %MON dynstat_theta_min            =  -1.9185522974593E+00
(PID.TID 0000.0001) %MON dynstat_theta_mean           =  -1.9003418900259E+00
(PID.TID 0000.0001) %MON dynstat_theta_sd             =   1.5524177774575E-03
(PID.TID 0000.0001) %MON dynstat_theta_del2           =   1.6095134465755E-06
(PID.TID 0000.0001) %MON dynstat_salt_max             =   3.4400000000000E+01
(PID.TID 0000.0001) %MON dynstat_salt_min             =   3.4392627316990E+01
(PID.TID 0000.0001) %MON dynstat_salt_mean            =   3.4399864132904E+01
(PID.TID 0000.0001) %MON dynstat_salt_sd              =   6.1693082476142E-04
(PID.TID 0000.0001) %MON dynstat_salt_del2            =   6.3962064366942E-07
(PID.TID 0000.0001) %MON trAdv_CFL_u_max              =   2.5612688734207E-05
(PID.TID 0000.0001) %MON trAdv_CFL_v_max              =   2.5591398730402E-05
(PID.TID 0000.0001) %MON trAdv_CFL_w_max              =   3.1540359897560E-05
(PID.TID 0000.0001) %MON advcfl_uvel_max              =   4.0803227925585E-05
(PID.TID 0000.0001) %MON advcfl_vvel_max              =   3.3997387716777E-05
(PID.TID 0000.0001) %MON advcfl_wvel_max              =   4.7725144656204E-05
(PID.TID 0000.0001) %MON advcfl_W_hf_max              =   6.2357240127093E-05
(PID.TID 0000.0001) %MON pe_b_mean                    =  -7.4418817758065E-09
(PID.TID 0000.0001) %MON ke_max                       =   2.1508589584350E-08
(PID.TID 0000.0001) %MON ke_mean                      =   1.3942022336234E-10
(PID.TID 0000.0001) %MON ke_vol                       =   2.9241705273105E+14
(PID.TID 0000.0001) %MON vort_r_min                   =  -3.5552545791757E-08
(PID.TID 0000.0001) %MON vort_r_max                   =   3.4846108364486E-08
(PID.TID 0000.0001) %MON vort_a_mean                  =  -1.4007437274891E-04
(PID.TID 0000.0001) %MON vort_a_sd                    =   1.7682763598977E-06
(PID.TID 0000.0001) %MON vort_p_mean                  =  -1.5039772191708E-04
(PID.TID 0000.0001) %MON vort_p_sd                    =   8.7079777970060E-05
(PID.TID 0000.0001) %MON surfExpan_theta_mean         =  -3.0444285698561E-12
(PID.TID 0000.0001) %MON surfExpan_salt_mean          =  -1.2098559136750E-12
(PID.TID 0000.0001) // =======================================================
(PID.TID 0000.0001) // End MONITOR dynamic field statistics
(PID.TID 0000.0001) // =======================================================
 cg2d: Sum(rhs),rhsMax =  -4.08562073062058E-14  8.93368755729874E-06
(PID.TID 0000.0001)      cg2d_init_res =   1.71771490611216E+00
(PID.TID 0000.0001)      cg2d_iters(min,last) =      -1     216
(PID.TID 0000.0001)      cg2d_last_res =   9.86443577444302E-14
(PID.TID 0000.0001) // =======================================================
(PID.TID 0000.0001) // Begin MONITOR dynamic field statistics
(PID.TID 0000.0001) // =======================================================
(PID.TID 0000.0001) %MON time_tsnumber                =                     7
(PID.TID 0000.0001) %MON time_secondsf                =   1.2600000000000E+04
(PID.TID 0000.0001) %MON dynstat_eta_max              =   2.8384697035409E-05
(PID.TID 0000.0001) %MON dynstat_eta_min              =  -2.4325431170616E-05
(PID.TID 0000.0001) %MON dynstat_eta_mean             =  -7.9855749634540E-22
(PID.TID 0000.0001) %MON dynstat_eta_sd               =   9.9049444666972E-06
(PID.TID 0000.0001) %MON dynstat_eta_del2             =   7.9246921426177E-09
(PID.TID 0000.0001) %MON dynstat_uvel_max             =   2.9420858149324E-05
(PID.TID 0000.0001) %MON dynstat_uvel_min             =  -2.0030513211428E-04
(PID.TID 0000.0001) %MON dynstat_uvel_mean            =   6.1278284917071E-09
(PID.TID 0000.0001) %MON dynstat_uvel_sd              =   1.4472770673750E-05
(PID.TID 0000.0001) %MON dynstat_uvel_del2            =   3.1409544578930E-08
(PID.TID 0000.0001) %MON dynstat_vvel_max             =   2.6111719346153E-04
(PID.TID 0000.0001) %MON dynstat_vvel_min             =  -3.7683200500013E-05
(PID.TID 0000.0001) %MON dynstat_vvel_mean            =  -4.6092569369679E-07
(PID.TID 0000.0001) %MON dynstat_vvel_sd              =   1.6970827370914E-05
(PID.TID 0000.0001) %MON dynstat_vvel_del2            =   3.3343878954308E-08
(PID.TID 0000.0001) %MON dynstat_wvel_max             =   1.1212209430487E-06
(PID.TID 0000.0001) %MON dynstat_wvel_min             =  -1.1089005425966E-06
(PID.TID 0000.0001) %MON dynstat_wvel_mean            =  -1.7071500242895E-10
(PID.TID 0000.0001) %MON dynstat_wvel_sd              =   5.2094842622639E-08
(PID.TID 0000.0001) %MON dynstat_wvel_del2            =   4.8393082634171E-10
(PID.TID 0000.0001) %MON dynstat_theta_max            =  -1.9000000000000E+00
(PID.TID 0000.0001) %MON dynstat_theta_min            =  -1.9215888542352E+00
(PID.TID 0000.0001) %MON dynstat_theta_mean           =  -1.9003978630185E+00
(PID.TID 0000.0001) %MON dynstat_theta_sd             =   1.8062081355332E-03
(PID.TID 0000.0001) %MON dynstat_theta_del2           =   1.8689483314129E-06
(PID.TID 0000.0001) %MON dynstat_salt_max             =   3.4400000000000E+01
(PID.TID 0000.0001) %MON dynstat_salt_min             =   3.4391420589327E+01
(PID.TID 0000.0001) %MON dynstat_salt_mean            =   3.4399841889237E+01
(PID.TID 0000.0001) %MON dynstat_salt_sd              =   7.1778711306068E-04
(PID.TID 0000.0001) %MON dynstat_salt_del2            =   7.4272006690376E-07
(PID.TID 0000.0001) %MON trAdv_CFL_u_max              =   4.0803233104493E-05
(PID.TID 0000.0001) %MON trAdv_CFL_v_max              =   3.4163098303418E-05
(PID.TID 0000.0001) %MON trAdv_CFL_w_max              =   4.7725144656204E-05
(PID.TID 0000.0001) %MON advcfl_uvel_max              =   5.9599599922899E-05
(PID.TID 0000.0001) %MON advcfl_vvel_max              =   4.2275735727730E-05
(PID.TID 0000.0001) %MON advcfl_wvel_max              =   6.7273256582921E-05
(PID.TID 0000.0001) %MON advcfl_W_hf_max              =   8.5766860454886E-05
(PID.TID 0000.0001) %MON pe_b_mean                    =  -9.4160284993624E-09
(PID.TID 0000.0001) %MON ke_max                       =   3.8781932928472E-08
(PID.TID 0000.0001) %MON ke_mean                      =   2.4500955397013E-10
(PID.TID 0000.0001) %MON ke_vol                       =   2.9241705273105E+14
(PID.TID 0000.0001) %MON vort_r_min                   =  -4.4209574066734E-08
(PID.TID 0000.0001) %MON vort_r_max                   =   4.3257466575008E-08
(PID.TID 0000.0001) %MON vort_a_mean                  =  -1.4007437272496E-04
(PID.TID 0000.0001) %MON vort_a_sd                    =   1.7682760827962E-06
(PID.TID 0000.0001) %MON vort_p_mean                  =  -1.5039772189136E-04
(PID.TID 0000.0001) %MON vort_p_sd                    =   8.7079106078919E-05
(PID.TID 0000.0001) %MON surfExpan_theta_mean         =  -3.4867342596174E-12
(PID.TID 0000.0001) %MON surfExpan_salt_mean          =  -1.3856281947883E-12
(PID.TID 0000.0001) // =======================================================
(PID.TID 0000.0001) // End MONITOR dynamic field statistics
(PID.TID 0000.0001) // =======================================================
 cg2d: Sum(rhs),rhsMax =   7.10542735760100E-15  1.03795040835731E-05
(PID.TID 0000.0001)      cg2d_init_res =   1.54169549051048E+00
(PID.TID 0000.0001)      cg2d_iters(min,last) =      -1     216
(PID.TID 0000.0001)      cg2d_last_res =   8.04797258411457E-14
(PID.TID 0000.0001) // =======================================================
(PID.TID 0000.0001) // Begin MONITOR dynamic field statistics
(PID.TID 0000.0001) // =======================================================
(PID.TID 0000.0001) %MON time_tsnumber                =                     8
(PID.TID 0000.0001) %MON time_secondsf                =   1.4400000000000E+04
(PID.TID 0000.0001) %MON dynstat_eta_max              =   3.4291525188335E-05
(PID.TID 0000.0001) %MON dynstat_eta_min              =  -2.8089351625078E-05
(PID.TID 0000.0001) %MON dynstat_eta_mean             =  -2.5287654050938E-21
(PID.TID 0000.0001) %MON dynstat_eta_sd               =   1.1832037039597E-05
(PID.TID 0000.0001) %MON dynstat_eta_del2             =   8.4405215443479E-09
(PID.TID 0000.0001) %MON dynstat_uvel_max             =   4.0664229105462E-05
(PID.TID 0000.0001) %MON dynstat_uvel_min             =  -2.7426591108308E-04
(PID.TID 0000.0001) %MON dynstat_uvel_mean            =  -8.8182481327974E-10
(PID.TID 0000.0001) %MON dynstat_uvel_sd              =   1.9897051485842E-05
(PID.TID 0000.0001) %MON dynstat_uvel_del2            =   4.2870678986674E-08
(PID.TID 0000.0001) %MON dynstat_vvel_max             =   3.0756665324694E-04
(PID.TID 0000.0001) %MON dynstat_vvel_min             =  -4.4966723308754E-05
(PID.TID 0000.0001) %MON dynstat_vvel_mean            =  -4.4198720732031E-07
(PID.TID 0000.0001) %MON dynstat_vvel_sd              =   2.0002900556109E-05
(PID.TID 0000.0001) %MON dynstat_vvel_del2            =   3.9272673030144E-08
(PID.TID 0000.0001) %MON dynstat_wvel_max             =   1.4902107966809E-06
(PID.TID 0000.0001) %MON dynstat_wvel_min             =  -1.4635758211065E-06
(PID.TID 0000.0001) %MON dynstat_wvel_mean            =  -1.5336990257123E-10
(PID.TID 0000.0001) %MON dynstat_wvel_sd              =   6.4817043635642E-08
(PID.TID 0000.0001) %MON dynstat_wvel_del2            =   5.7329617779755E-10
(PID.TID 0000.0001) %MON dynstat_theta_max            =  -1.9000000000000E+00
(PID.TID 0000.0001) %MON dynstat_theta_min            =  -1.9246102414716E+00
(PID.TID 0000.0001) %MON dynstat_theta_mean           =  -1.9004535598985E+00
(PID.TID 0000.0001) %MON dynstat_theta_sd             =   2.0586458557354E-03
(PID.TID 0000.0001) %MON dynstat_theta_del2           =   2.1260079184239E-06
(PID.TID 0000.0001) %MON dynstat_salt_max             =   3.4400000000000E+01
(PID.TID 0000.0001) %MON dynstat_salt_min             =   3.4390219890039E+01
(PID.TID 0000.0001) %MON dynstat_salt_mean            =   3.4399819755297E+01
(PID.TID 0000.0001) %MON dynstat_salt_sd              =   8.1810586306907E-04
(PID.TID 0000.0001) %MON dynstat_salt_del2            =   8.4487554678192E-07
(PID.TID 0000.0001) %MON trAdv_CFL_u_max              =   5.9599607487517E-05
(PID.TID 0000.0001) %MON trAdv_CFL_v_max              =   4.2481796764728E-05
(PID.TID 0000.0001) %MON trAdv_CFL_w_max              =   6.7273256582921E-05
(PID.TID 0000.0001) %MON advcfl_uvel_max              =   8.1606189519471E-05
(PID.TID 0000.0001) %MON advcfl_vvel_max              =   4.9796056624841E-05
(PID.TID 0000.0001) %MON advcfl_wvel_max              =   8.9412647800853E-05
(PID.TID 0000.0001) %MON advcfl_W_hf_max              =   1.1153957095152E-04
(PID.TID 0000.0001) %MON pe_b_mean                    =  -1.1292856238938E-08
(PID.TID 0000.0001) %MON ke_max                       =   6.3535391990401E-08
(PID.TID 0000.0001) %MON ke_mean                      =   3.9170899379164E-10
(PID.TID 0000.0001) %MON ke_vol                       =   2.9241705273105E+14
(PID.TID 0000.0001) %MON vort_r_min                   =  -5.2073900446473E-08
(PID.TID 0000.0001) %MON vort_r_max                   =   5.0855477622735E-08
(PID.TID 0000.0001) %MON vort_a_mean                  =  -1.4007437269770E-04
(PID.TID 0000.0001) %MON vort_a_sd                    =   1.7682757977048E-06
(PID.TID 0000.0001) %MON vort_p_mean                  =  -1.5039772186209E-04
(PID.TID 0000.0001) %MON vort_p_sd                    =   8.7078315722868E-05
(PID.TID 0000.0001) %MON surfExpan_theta_mean         =  -3.5635507144154E-12
(PID.TID 0000.0001) %MON surfExpan_salt_mean          =  -1.4161550539046E-12
(PID.TID 0000.0001) // =======================================================
(PID.TID 0000.0001) // End MONITOR dynamic field statistics
(PID.TID 0000.0001) // =======================================================
 cg2d: Sum(rhs),rhsMax =   2.48689957516035E-14  1.17743117167622E-05
(PID.TID 0000.0001)      cg2d_init_res =   1.43986482550114E+00
(PID.TID 0000.0001)      cg2d_iters(min,last) =      -1     215
(PID.TID 0000.0001)      cg2d_last_res =   7.52084044707000E-14
(PID.TID 0000.0001) // =======================================================
(PID.TID 0000.0001) // Begin MONITOR dynamic field statistics
(PID.TID 0000.0001) // =======================================================
(PID.TID 0000.0001) %MON time_tsnumber                =                     9
(PID.TID 0000.0001) %MON time_secondsf                =   1.6200000000000E+04
(PID.TID 0000.0001) %MON dynstat_eta_max              =   3.9919474379491E-05
(PID.TID 0000.0001) %MON dynstat_eta_min              =  -3.2596397715202E-05
(PID.TID 0000.0001) %MON dynstat_eta_mean             =  -3.7266016496119E-21
(PID.TID 0000.0001) %MON dynstat_eta_sd               =   1.3627175854857E-05
(PID.TID 0000.0001) %MON dynstat_eta_del2             =   8.8368581068072E-09
(PID.TID 0000.0001) %MON dynstat_uvel_max             =   5.3337193064604E-05
(PID.TID 0000.0001) %MON dynstat_uvel_min             =  -3.5703799976100E-04
(PID.TID 0000.0001) %MON dynstat_uvel_mean            =  -7.0126820416713E-09
(PID.TID 0000.0001) %MON dynstat_uvel_sd              =   2.5994079863863E-05
(PID.TID 0000.0001) %MON dynstat_uvel_del2            =   5.5661800764552E-08
(PID.TID 0000.0001) %MON dynstat_vvel_max             =   3.4672211144558E-04
(PID.TID 0000.0001) %MON dynstat_vvel_min             =  -5.1376455071091E-05
(PID.TID 0000.0001) %MON dynstat_vvel_mean            =  -3.8484952084814E-07
(PID.TID 0000.0001) %MON dynstat_vvel_sd              =   2.2533755269876E-05
(PID.TID 0000.0001) %MON dynstat_vvel_del2            =   4.4281685651366E-08
(PID.TID 0000.0001) %MON dynstat_wvel_max             =   1.8915405393074E-06
(PID.TID 0000.0001) %MON dynstat_wvel_min             =  -1.8466735034366E-06
(PID.TID 0000.0001) %MON dynstat_wvel_mean            =  -1.2421466262226E-10
(PID.TID 0000.0001) %MON dynstat_wvel_sd              =   7.7815147581317E-08
(PID.TID 0000.0001) %MON dynstat_wvel_del2            =   6.5164505171268E-10
(PID.TID 0000.0001) %MON dynstat_theta_max            =  -1.9000000000000E+00
(PID.TID 0000.0001) %MON dynstat_theta_min            =  -1.9276165533480E+00
(PID.TID 0000.0001) %MON dynstat_theta_mean           =  -1.9005089820961E+00
(PID.TID 0000.0001) %MON dynstat_theta_sd             =   2.3097383820727E-03
(PID.TID 0000.0001) %MON dynstat_theta_del2           =   2.3807173938989E-06
(PID.TID 0000.0001) %MON dynstat_salt_max             =   3.4400000000000E+01
(PID.TID 0000.0001) %MON dynstat_salt_min             =   3.4389025181700E+01
(PID.TID 0000.0001) %MON dynstat_salt_mean            =   3.4399797730516E+01
(PID.TID 0000.0001) %MON dynstat_salt_sd              =   9.1789003303550E-04
(PID.TID 0000.0001) %MON dynstat_salt_del2            =   9.4609709233566E-07
(PID.TID 0000.0001) %MON trAdv_CFL_u_max              =   8.1606199877252E-05
(PID.TID 0000.0001) %MON trAdv_CFL_v_max              =   5.0038773324856E-05
(PID.TID 0000.0001) %MON trAdv_CFL_w_max              =   8.9412647800853E-05
(PID.TID 0000.0001) %MON advcfl_uvel_max              =   1.0623453187853E-04
(PID.TID 0000.0001) %MON advcfl_vvel_max              =   5.6135454583129E-05
(PID.TID 0000.0001) %MON advcfl_wvel_max              =   1.1349243235844E-04
(PID.TID 0000.0001) %MON advcfl_W_hf_max              =   1.3883693820700E-04
(PID.TID 0000.0001) %MON pe_b_mean                    =  -1.2962330828356E-08
(PID.TID 0000.0001) %MON ke_max                       =   9.6542728030177E-08
(PID.TID 0000.0001) %MON ke_mean                      =   5.8192453504895E-10
(PID.TID 0000.0001) %MON ke_vol                       =   2.9241705273105E+14
(PID.TID 0000.0001) %MON vort_r_min                   =  -5.8703284388609E-08
(PID.TID 0000.0001) %MON vort_r_max                   =   5.7210349705772E-08
(PID.TID 0000.0001) %MON vort_a_mean                  =  -1.4007437267268E-04
(PID.TID 0000.0001) %MON vort_a_sd                    =   1.7682755111622E-06
(PID.TID 0000.0001) %MON vort_p_mean                  =  -1.5039772183523E-04
(PID.TID 0000.0001) %MON vort_p_sd                    =   8.7077427282031E-05
(PID.TID 0000.0001) %MON surfExpan_theta_mean         =  -3.2280918403901E-12
(PID.TID 0000.0001) %MON surfExpan_salt_mean          =  -1.2828436974031E-12
(PID.TID 0000.0001) // =======================================================
(PID.TID 0000.0001) // End MONITOR dynamic field statistics
(PID.TID 0000.0001) // =======================================================
 cg2d: Sum(rhs),rhsMax =   4.08562073062058E-14  1.30890395342968E-05
(PID.TID 0000.0001)      cg2d_init_res =   1.38342489902379E+00
(PID.TID 0000.0001)      cg2d_iters(min,last) =      -1     215
(PID.TID 0000.0001)      cg2d_last_res =   7.59108012140507E-14
(PID.TID 0000.0001) // =======================================================
(PID.TID 0000.0001) // Begin MONITOR dynamic field statistics
(PID.TID 0000.0001) // =======================================================
(PID.TID 0000.0001) %MON time_tsnumber                =                    10
(PID.TID 0000.0001) %MON time_secondsf                =   1.8000000000000E+04
(PID.TID 0000.0001) %MON dynstat_eta_max              =   4.4969042334414E-05
(PID.TID 0000.0001) %MON dynstat_eta_min              =  -3.7752951159641E-05
(PID.TID 0000.0001) %MON dynstat_eta_mean             =  -3.9927874817270E-21
(PID.TID 0000.0001) %MON dynstat_eta_sd               =   1.5205997954714E-05
(PID.TID 0000.0001) %MON dynstat_eta_del2             =   9.1412337189009E-09
(PID.TID 0000.0001) %MON dynstat_uvel_max             =   6.7068785125926E-05
(PID.TID 0000.0001) %MON dynstat_uvel_min             =  -4.4617089173897E-04
(PID.TID 0000.0001) %MON dynstat_uvel_mean            =  -9.9935018727385E-09
(PID.TID 0000.0001) %MON dynstat_uvel_sd              =   3.2585251684852E-05
(PID.TID 0000.0001) %MON dynstat_uvel_del2            =   6.9413063340745E-08
(PID.TID 0000.0001) %MON dynstat_vvel_max             =   3.7662690315345E-04
(PID.TID 0000.0001) %MON dynstat_vvel_min             =  -5.6612129558313E-05
(PID.TID 0000.0001) %MON dynstat_vvel_mean            =  -2.9871239555350E-07
(PID.TID 0000.0001) %MON dynstat_vvel_sd              =   2.4420482758378E-05
(PID.TID 0000.0001) %MON dynstat_vvel_del2            =   4.8128546982529E-08
(PID.TID 0000.0001) %MON dynstat_wvel_max             =   2.3129149167708E-06
(PID.TID 0000.0001) %MON dynstat_wvel_min             =  -2.2462993892339E-06
(PID.TID 0000.0001) %MON dynstat_wvel_mean            =  -8.7099152043136E-11
(PID.TID 0000.0001) %MON dynstat_wvel_sd              =   9.0803844755337E-08
(PID.TID 0000.0001) %MON dynstat_wvel_del2            =   7.1604261256267E-10
(PID.TID 0000.0001) %MON dynstat_theta_max            =  -1.9000000000000E+00
(PID.TID 0000.0001) %MON dynstat_theta_min            =  -1.9306078867238E+00
(PID.TID 0000.0001) %MON dynstat_theta_mean           =  -1.9005641310342E+00
(PID.TID 0000.0001) %MON dynstat_theta_sd             =   2.5594931157086E-03
(PID.TID 0000.0001) %MON dynstat_theta_del2           =   2.6331013857690E-06
(PID.TID 0000.0001) %MON dynstat_salt_max             =   3.4400000000000E+01
(PID.TID 0000.0001) %MON dynstat_salt_min             =   3.4387836425816E+01
(PID.TID 0000.0001) %MON dynstat_salt_mean            =   3.4399775814328E+01
(PID.TID 0000.0001) %MON dynstat_salt_sd              =   1.0171425641823E-03
(PID.TID 0000.0001) %MON dynstat_salt_del2            =   1.0463944907048E-06
(PID.TID 0000.0001) %MON trAdv_CFL_u_max              =   1.0623454536224E-04
(PID.TID 0000.0001) %MON trAdv_CFL_v_max              =   5.6409070873529E-05
(PID.TID 0000.0001) %MON trAdv_CFL_w_max              =   1.1349243235844E-04
(PID.TID 0000.0001) %MON advcfl_uvel_max              =   1.3275549340250E-04
(PID.TID 0000.0001) %MON advcfl_vvel_max              =   6.0977139094498E-05
(PID.TID 0000.0001) %MON advcfl_wvel_max              =   1.3877489500625E-04
(PID.TID 0000.0001) %MON advcfl_W_hf_max              =   1.6677295507724E-04
(PID.TID 0000.0001) %MON pe_b_mean                    =  -1.4339943414681E-08
(PID.TID 0000.0001) %MON ke_max                       =   1.3796660037246E-07
(PID.TID 0000.0001) %MON ke_mean                      =   8.1478297621458E-10
(PID.TID 0000.0001) %MON ke_vol                       =   2.9241705273105E+14
(PID.TID 0000.0001) %MON vort_r_min                   =  -6.3766444291767E-08
(PID.TID 0000.0001) %MON vort_r_max                   =   6.2003815645506E-08
(PID.TID 0000.0001) %MON vort_a_mean                  =  -1.4007437265524E-04
(PID.TID 0000.0001) %MON vort_a_sd                    =   1.7682752282506E-06
(PID.TID 0000.0001) %MON vort_p_mean                  =  -1.5039772181650E-04
(PID.TID 0000.0001) %MON vort_p_sd                    =   8.7076466661729E-05
(PID.TID 0000.0001) %MON surfExpan_theta_mean         =  -2.4936216281513E-12
(PID.TID 0000.0001) %MON surfExpan_salt_mean          =  -9.9096523500530E-13
(PID.TID 0000.0001) // =======================================================
(PID.TID 0000.0001) // End MONITOR dynamic field statistics
(PID.TID 0000.0001) // =======================================================
 cg2d: Sum(rhs),rhsMax =   4.26325641456060E-14  1.43038105786592E-05
(PID.TID 0000.0001)      cg2d_init_res =   1.35684076359194E+00
(PID.TID 0000.0001)      cg2d_iters(min,last) =      -1     214
(PID.TID 0000.0001)      cg2d_last_res =   8.63918700887334E-14
(PID.TID 0000.0001) // =======================================================
(PID.TID 0000.0001) // Begin MONITOR dynamic field statistics
(PID.TID 0000.0001) // =======================================================
(PID.TID 0000.0001) %MON time_tsnumber                =                    11
(PID.TID 0000.0001) %MON time_secondsf                =   1.9800000000000E+04
(PID.TID 0000.0001) %MON dynstat_eta_max              =   4.9220856785983E-05
(PID.TID 0000.0001) %MON dynstat_eta_min              =  -4.3431334571519E-05
(PID.TID 0000.0001) %MON dynstat_eta_mean             =   1.3309291605757E-21
(PID.TID 0000.0001) %MON dynstat_eta_sd               =   1.6522337071699E-05
(PID.TID 0000.0001) %MON dynstat_eta_del2             =   9.3872469763826E-09
(PID.TID 0000.0001) %MON dynstat_uvel_max             =   8.1434056847756E-05
(PID.TID 0000.0001) %MON dynstat_uvel_min             =  -5.3892881617988E-04
(PID.TID 0000.0001) %MON dynstat_uvel_mean            =  -8.5227924252160E-09
(PID.TID 0000.0001) %MON dynstat_uvel_sd              =   3.9467106309316E-05
(PID.TID 0000.0001) %MON dynstat_uvel_del2            =   8.3718070912619E-08
(PID.TID 0000.0001) %MON dynstat_vvel_max             =   3.9606544724215E-04
(PID.TID 0000.0001) %MON dynstat_vvel_min             =  -6.0462345775993E-05
(PID.TID 0000.0001) %MON dynstat_vvel_mean            =  -1.9574405299784E-07
(PID.TID 0000.0001) %MON dynstat_vvel_sd              =   2.5569556235301E-05
(PID.TID 0000.0001) %MON dynstat_vvel_del2            =   5.0664172808843E-08
(PID.TID 0000.0001) %MON dynstat_wvel_max             =   2.7415251254997E-06
(PID.TID 0000.0001) %MON dynstat_wvel_min             =  -2.6502207080338E-06
(PID.TID 0000.0001) %MON dynstat_wvel_mean            =  -4.6331229991751E-11
(PID.TID 0000.0001) %MON dynstat_wvel_sd              =   1.0353104886009E-07
(PID.TID 0000.0001) %MON dynstat_wvel_del2            =   7.6489699647885E-10
(PID.TID 0000.0001) %MON dynstat_theta_max            =  -1.9000000000000E+00
(PID.TID 0000.0001) %MON dynstat_theta_min            =  -1.9335843402813E+00
(PID.TID 0000.0001) %MON dynstat_theta_mean           =  -1.9006190081279E+00
(PID.TID 0000.0001) %MON dynstat_theta_sd             =   2.8079174143447E-03
(PID.TID 0000.0001) %MON dynstat_theta_del2           =   2.8831839710444E-06
(PID.TID 0000.0001) %MON dynstat_salt_max             =   3.4400000000000E+01
(PID.TID 0000.0001) %MON dynstat_salt_min             =   3.4386653583172E+01
(PID.TID 0000.0001) %MON dynstat_salt_mean            =   3.4399754006171E+01
(PID.TID 0000.0001) %MON dynstat_salt_sd              =   1.1158663804604E-03
(PID.TID 0000.0001) %MON dynstat_salt_del2            =   1.1457773100932E-06
(PID.TID 0000.0001) %MON trAdv_CFL_u_max              =   1.3275551025236E-04
(PID.TID 0000.0001) %MON trAdv_CFL_v_max              =   6.1274354797517E-05
(PID.TID 0000.0001) %MON trAdv_CFL_w_max              =   1.3877489500625E-04
(PID.TID 0000.0001) %MON advcfl_uvel_max              =   1.6035506176106E-04
(PID.TID 0000.0001) %MON advcfl_vvel_max              =   6.4124303560889E-05
(PID.TID 0000.0001) %MON advcfl_wvel_max              =   1.6449150752998E-04
(PID.TID 0000.0001) %MON advcfl_W_hf_max              =   1.9448051590478E-04
(PID.TID 0000.0001) %MON pe_b_mean                    =  -1.5377812652140E-08
(PID.TID 0000.0001) %MON ke_max                       =   1.8727087098399E-07
(PID.TID 0000.0001) %MON ke_mean                      =   1.0860084550930E-09
(PID.TID 0000.0001) %MON ke_vol                       =   2.9241705273105E+14
(PID.TID 0000.0001) %MON vort_r_min                   =  -6.7057570943546E-08
(PID.TID 0000.0001) %MON vort_r_max                   =   6.5042284785213E-08
(PID.TID 0000.0001) %MON vort_a_mean                  =  -1.4007437264891E-04
(PID.TID 0000.0001) %MON vort_a_sd                    =   1.7682749559354E-06
(PID.TID 0000.0001) %MON vort_p_mean                  =  -1.5039772180970E-04
(PID.TID 0000.0001) %MON vort_p_sd                    =   8.7075463354957E-05
(PID.TID 0000.0001) %MON surfExpan_theta_mean         =  -1.4322224238394E-12
(PID.TID 0000.0001) %MON surfExpan_salt_mean          =  -5.6916519125082E-13
(PID.TID 0000.0001) // =======================================================
(PID.TID 0000.0001) // End MONITOR dynamic field statistics
(PID.TID 0000.0001) // =======================================================
 cg2d: Sum(rhs),rhsMax =  -7.10542735760100E-14  1.54091224016041E-05
(PID.TID 0000.0001)      cg2d_init_res =   1.35119045764547E+00
(PID.TID 0000.0001)      cg2d_iters(min,last) =      -1     214
(PID.TID 0000.0001)      cg2d_last_res =   7.89225881387647E-14
(PID.TID 0000.0001) // =======================================================
(PID.TID 0000.0001) // Begin MONITOR dynamic field statistics
(PID.TID 0000.0001) // =======================================================
(PID.TID 0000.0001) %MON time_tsnumber                =                    12
(PID.TID 0000.0001) %MON time_secondsf                =   2.1600000000000E+04
(PID.TID 0000.0001) %MON dynstat_eta_max              =   5.2559756541484E-05
(PID.TID 0000.0001) %MON dynstat_eta_min              =  -4.9492851636717E-05
(PID.TID 0000.0001) %MON dynstat_eta_mean             =  -7.1870174671086E-21
(PID.TID 0000.0001) %MON dynstat_eta_sd               =   1.7573259578653E-05
(PID.TID 0000.0001) %MON dynstat_eta_del2             =   9.6154659545924E-09
(PID.TID 0000.0001) %MON dynstat_uvel_max             =   9.5985274690645E-05
(PID.TID 0000.0001) %MON dynstat_uvel_min             =  -6.3247931277615E-04
(PID.TID 0000.0001) %MON dynstat_uvel_mean            =  -2.3641101774846E-09
(PID.TID 0000.0001) %MON dynstat_uvel_sd              =   4.6425877619650E-05
(PID.TID 0000.0001) %MON dynstat_uvel_del2            =   9.8163353540385E-08
(PID.TID 0000.0001) %MON dynstat_vvel_max             =   4.0459334101408E-04
(PID.TID 0000.0001) %MON dynstat_vvel_min             =  -6.2813521439453E-05
(PID.TID 0000.0001) %MON dynstat_vvel_mean            =  -8.9214722311916E-08
(PID.TID 0000.0001) %MON dynstat_vvel_sd              =   2.5940655313040E-05
(PID.TID 0000.0001) %MON dynstat_vvel_del2            =   5.1835962012152E-08
(PID.TID 0000.0001) %MON dynstat_wvel_max             =   3.1649463333235E-06
(PID.TID 0000.0001) %MON dynstat_wvel_min             =  -3.0466800393204E-06
(PID.TID 0000.0001) %MON dynstat_wvel_mean            =  -6.3455803087861E-12
(PID.TID 0000.0001) %MON dynstat_wvel_sd              =   1.1578039673068E-07
(PID.TID 0000.0001) %MON dynstat_wvel_del2            =   7.9798477317028E-10
(PID.TID 0000.0001) %MON dynstat_theta_max            =  -1.9000000000000E+00
(PID.TID 0000.0001) %MON dynstat_theta_min            =  -1.9365460134363E+00
(PID.TID 0000.0001) %MON dynstat_theta_mean           =  -1.9006736147847E+00
(PID.TID 0000.0001) %MON dynstat_theta_sd             =   3.0550185916303E-03
(PID.TID 0000.0001) %MON dynstat_theta_del2           =   3.1309887088093E-06
(PID.TID 0000.0001) %MON dynstat_salt_max             =   3.4400000000000E+01
(PID.TID 0000.0001) %MON dynstat_salt_min             =   3.4385476614260E+01
(PID.TID 0000.0001) %MON dynstat_salt_mean            =   3.4399732305485E+01
(PID.TID 0000.0001) %MON dynstat_salt_sd              =   1.2140643883137E-03
(PID.TID 0000.0001) %MON dynstat_salt_del2            =   1.2442549128809E-06
(PID.TID 0000.0001) %MON trAdv_CFL_u_max              =   1.6035508211396E-04
(PID.TID 0000.0001) %MON trAdv_CFL_v_max              =   6.4436859221035E-05
(PID.TID 0000.0001) %MON trAdv_CFL_w_max              =   1.6449150752998E-04
(PID.TID 0000.0001) %MON advcfl_uvel_max              =   1.8819045524735E-04
(PID.TID 0000.0001) %MON advcfl_vvel_max              =   6.5504997718316E-05
(PID.TID 0000.0001) %MON advcfl_wvel_max              =   1.8989677999941E-04
(PID.TID 0000.0001) %MON advcfl_W_hf_max              =   2.2117134481145E-04
(PID.TID 0000.0001) %MON pe_b_mean                    =  -1.6068917129989E-08
(PID.TID 0000.0001) %MON ke_max                       =   2.4323144237900E-07
(PID.TID 0000.0001) %MON ke_mean                      =   1.3881945192932E-09
(PID.TID 0000.0001) %MON ke_vol                       =   2.9241705273105E+14
(PID.TID 0000.0001) %MON vort_r_min                   =  -6.8501422826088E-08
(PID.TID 0000.0001) %MON vort_r_max                   =   6.6260974200526E-08
(PID.TID 0000.0001) %MON vort_a_mean                  =  -1.4007437265483E-04
(PID.TID 0000.0001) %MON vort_a_sd                    =   1.7682747032925E-06
(PID.TID 0000.0001) %MON vort_p_mean                  =  -1.5039772181606E-04
(PID.TID 0000.0001) %MON vort_p_sd                    =   8.7074448392415E-05
(PID.TID 0000.0001) %MON surfExpan_theta_mean         =  -1.6913669519217E-13
(PID.TID 0000.0001) %MON surfExpan_salt_mean          =  -6.7214922683592E-14
(PID.TID 0000.0001) // =======================================================
(PID.TID 0000.0001) // End MONITOR dynamic field statistics
(PID.TID 0000.0001) // =======================================================
 cg2d: Sum(rhs),rhsMax =  -1.10134124042816E-13  1.72155986079980E-05
(PID.TID 0000.0001)      cg2d_init_res =   1.29688761939327E+00
(PID.TID 0000.0001)      cg2d_iters(min,last) =      -1     213
(PID.TID 0000.0001)      cg2d_last_res =   9.96877380489687E-14
(PID.TID 0000.0001) // =======================================================
(PID.TID 0000.0001) // Begin MONITOR dynamic field statistics
(PID.TID 0000.0001) // =======================================================
(PID.TID 0000.0001) %MON time_tsnumber                =                    13
(PID.TID 0000.0001) %MON time_secondsf                =   2.3400000000000E+04
(PID.TID 0000.0001) %MON dynstat_eta_max              =   5.4972430664743E-05
(PID.TID 0000.0001) %MON dynstat_eta_min              =  -5.5777092877158E-05
(PID.TID 0000.0001) %MON dynstat_eta_mean             =  -3.1942299853816E-21
(PID.TID 0000.0001) %MON dynstat_eta_sd               =   1.8394481802476E-05
(PID.TID 0000.0001) %MON dynstat_eta_del2             =   9.8735650162063E-09
(PID.TID 0000.0001) %MON dynstat_uvel_max             =   1.1028294466668E-04
(PID.TID 0000.0001) %MON dynstat_uvel_min             =  -7.2408276119101E-04
(PID.TID 0000.0001) %MON dynstat_uvel_mean            =   7.9050583765076E-09
(PID.TID 0000.0001) %MON dynstat_uvel_sd              =   5.3252017178123E-05
(PID.TID 0000.0001) %MON dynstat_uvel_del2            =   1.1235600940305E-07
(PID.TID 0000.0001) %MON dynstat_vvel_max             =   4.0253003444355E-04
(PID.TID 0000.0001) %MON dynstat_vvel_min             =  -6.3653753923623E-05
(PID.TID 0000.0001) %MON dynstat_vvel_mean            =   8.2076786797182E-09
(PID.TID 0000.0001) %MON dynstat_vvel_sd              =   2.5546845359173E-05
(PID.TID 0000.0001) %MON dynstat_vvel_del2            =   5.1684578008907E-08
(PID.TID 0000.0001) %MON dynstat_wvel_max             =   3.5719287863045E-06
(PID.TID 0000.0001) %MON dynstat_wvel_min             =  -3.4251236165903E-06
(PID.TID 0000.0001) %MON dynstat_wvel_mean            =   2.8669128944979E-11
(PID.TID 0000.0001) %MON dynstat_wvel_sd              =   1.2737221377593E-07
(PID.TID 0000.0001) %MON dynstat_wvel_del2            =   8.1637633149890E-10
(PID.TID 0000.0001) %MON dynstat_theta_max            =  -1.9000000000000E+00
(PID.TID 0000.0001) %MON dynstat_theta_min            =  -1.9394930051416E+00
(PID.TID 0000.0001) %MON dynstat_theta_mean           =  -1.9007279524043E+00
(PID.TID 0000.0001) %MON dynstat_theta_sd             =   3.3008039166583E-03
(PID.TID 0000.0001) %MON dynstat_theta_del2           =   3.3765386952704E-06
(PID.TID 0000.0001) %MON dynstat_salt_max             =   3.4400000000000E+01
(PID.TID 0000.0001) %MON dynstat_salt_min             =   3.4384305479757E+01
(PID.TID 0000.0001) %MON dynstat_salt_mean            =   3.4399710711715E+01
(PID.TID 0000.0001) %MON dynstat_salt_sd              =   1.3117394764798E-03
(PID.TID 0000.0001) %MON dynstat_salt_del2            =   1.3418364775006E-06
(PID.TID 0000.0001) %MON trAdv_CFL_u_max              =   1.8819047913323E-04
(PID.TID 0000.0001) %MON trAdv_CFL_v_max              =   6.5824283179019E-05
(PID.TID 0000.0001) %MON trAdv_CFL_w_max              =   1.8989677999941E-04
(PID.TID 0000.0001) %MON advcfl_uvel_max              =   2.1544651613535E-04
(PID.TID 0000.0001) %MON advcfl_vvel_max              =   6.5170941572320E-05
(PID.TID 0000.0001) %MON advcfl_wvel_max              =   2.1431572717827E-04
(PID.TID 0000.0001) %MON advcfl_W_hf_max              =   2.4618399725254E-04
(PID.TID 0000.0001) %MON pe_b_mean                    =  -1.6445552357236E-08
(PID.TID 0000.0001) %MON ke_max                       =   3.0403680062516E-07
(PID.TID 0000.0001) %MON ke_mean                      =   1.7114363419633E-09
(PID.TID 0000.0001) %MON ke_vol                       =   2.9241705273105E+14
(PID.TID 0000.0001) %MON vort_r_min                   =  -6.8149497555139E-08
(PID.TID 0000.0001) %MON vort_r_max                   =   6.5719310686126E-08
(PID.TID 0000.0001) %MON vort_a_mean                  =  -1.4007437267198E-04
(PID.TID 0000.0001) %MON vort_a_sd                    =   1.7682744800661E-06
(PID.TID 0000.0001) %MON vort_p_mean                  =  -1.5039772183447E-04
(PID.TID 0000.0001) %MON vort_p_sd                    =   8.7073452289650E-05
(PID.TID 0000.0001) %MON surfExpan_theta_mean         =   1.1300047704280E-12
(PID.TID 0000.0001) %MON surfExpan_salt_mean          =   4.4906389576319E-13
(PID.TID 0000.0001) // =======================================================
(PID.TID 0000.0001) // End MONITOR dynamic field statistics
(PID.TID 0000.0001) // =======================================================
 cg2d: Sum(rhs),rhsMax =   1.95399252334028E-14  1.94258557365974E-05
(PID.TID 0000.0001)      cg2d_init_res =   1.23110850992176E+00
(PID.TID 0000.0001)      cg2d_iters(min,last) =      -1     213
(PID.TID 0000.0001)      cg2d_last_res =   9.22712102358428E-14
(PID.TID 0000.0001) // =======================================================
(PID.TID 0000.0001) // Begin MONITOR dynamic field statistics
(PID.TID 0000.0001) // =======================================================
(PID.TID 0000.0001) %MON time_tsnumber                =                    14
(PID.TID 0000.0001) %MON time_secondsf                =   2.5200000000000E+04
(PID.TID 0000.0001) %MON dynstat_eta_max              =   5.6532648294203E-05
(PID.TID 0000.0001) %MON dynstat_eta_min              =  -6.2092527588484E-05
(PID.TID 0000.0001) %MON dynstat_eta_mean             =  -2.3956724890362E-21
(PID.TID 0000.0001) %MON dynstat_eta_sd               =   1.9048757682396E-05
(PID.TID 0000.0001) %MON dynstat_eta_del2             =   1.0214777815485E-08
(PID.TID 0000.0001) %MON dynstat_uvel_max             =   1.2392435843960E-04
(PID.TID 0000.0001) %MON dynstat_uvel_min             =  -8.1126803297280E-04
(PID.TID 0000.0001) %MON dynstat_uvel_mean            =   2.1235714871022E-08
(PID.TID 0000.0001) %MON dynstat_uvel_sd              =   5.9753735912021E-05
(PID.TID 0000.0001) %MON dynstat_uvel_del2            =   1.2594785731898E-07
(PID.TID 0000.0001) %MON dynstat_vvel_max             =   3.9087647164954E-04
(PID.TID 0000.0001) %MON dynstat_vvel_min             =  -6.3064533195512E-05
(PID.TID 0000.0001) %MON dynstat_vvel_mean            =   8.5891574349910E-08
(PID.TID 0000.0001) %MON dynstat_vvel_sd              =   2.4451286139713E-05
(PID.TID 0000.0001) %MON dynstat_vvel_del2            =   5.0334970947500E-08
(PID.TID 0000.0001) %MON dynstat_wvel_max             =   3.9530421562379E-06
(PID.TID 0000.0001) %MON dynstat_wvel_min             =  -3.7768000688919E-06
(PID.TID 0000.0001) %MON dynstat_wvel_mean            =   5.5171525040643E-11
(PID.TID 0000.0001) %MON dynstat_wvel_sd              =   1.3816355551064E-07
(PID.TID 0000.0001) %MON dynstat_wvel_del2            =   8.2226186310111E-10
(PID.TID 0000.0001) %MON dynstat_theta_max            =  -1.9000000000000E+00
(PID.TID 0000.0001) %MON dynstat_theta_min            =  -1.9424254126933E+00
(PID.TID 0000.0001) %MON dynstat_theta_mean           =  -1.9007820223784E+00
(PID.TID 0000.0001) %MON dynstat_theta_sd             =   3.5452806137147E-03
(PID.TID 0000.0001) %MON dynstat_theta_del2           =   3.6198566355706E-06
(PID.TID 0000.0001) %MON dynstat_salt_max             =   3.4400000000000E+01
(PID.TID 0000.0001) %MON dynstat_salt_min             =   3.4383140140996E+01
(PID.TID 0000.0001) %MON dynstat_salt_mean            =   3.4399689224308E+01
(PID.TID 0000.0001) %MON dynstat_salt_sd              =   1.4088945158900E-03
(PID.TID 0000.0001) %MON dynstat_salt_del2            =   1.4385310269759E-06
(PID.TID 0000.0001) %MON trAdv_CFL_u_max              =   2.1544654348067E-04
(PID.TID 0000.0001) %MON trAdv_CFL_v_max              =   6.5488598771453E-05
(PID.TID 0000.0001) %MON trAdv_CFL_w_max              =   2.1431572717827E-04
(PID.TID 0000.0001) %MON advcfl_uvel_max              =   2.4138797486142E-04
(PID.TID 0000.0001) %MON advcfl_vvel_max              =   6.3284191280488E-05
(PID.TID 0000.0001) %MON advcfl_wvel_max              =   2.3718252937427E-04
(PID.TID 0000.0001) %MON advcfl_W_hf_max              =   2.6901803185571E-04
(PID.TID 0000.0001) %MON pe_b_mean                    =  -1.6573199525219E-08
(PID.TID 0000.0001) %MON ke_max                       =   3.6747073102144E-07
(PID.TID 0000.0001) %MON ke_mean                      =   2.0442427964151E-09
(PID.TID 0000.0001) %MON ke_vol                       =   2.9241705273105E+14
(PID.TID 0000.0001) %MON vort_r_min                   =  -6.6168222138327E-08
(PID.TID 0000.0001) %MON vort_r_max                   =   6.3588507626465E-08
(PID.TID 0000.0001) %MON vort_a_mean                  =  -1.4007437269773E-04
(PID.TID 0000.0001) %MON vort_a_sd                    =   1.7682742949392E-06
(PID.TID 0000.0001) %MON vort_p_mean                  =  -1.5039772186212E-04
(PID.TID 0000.0001) %MON vort_p_sd                    =   8.7072503113063E-05
(PID.TID 0000.0001) %MON surfExpan_theta_mean         =   2.2793421303090E-12
(PID.TID 0000.0001) %MON surfExpan_salt_mean          =   9.0581056255272E-13
(PID.TID 0000.0001) // =======================================================
(PID.TID 0000.0001) // End MONITOR dynamic field statistics
(PID.TID 0000.0001) // =======================================================
 cg2d: Sum(rhs),rhsMax =  -1.77635683940025E-14  2.17153963839035E-05
(PID.TID 0000.0001)      cg2d_init_res =   1.17794276265524E+00
(PID.TID 0000.0001)      cg2d_iters(min,last) =      -1     213
(PID.TID 0000.0001)      cg2d_last_res =   8.32114166470521E-14
(PID.TID 0000.0001) // =======================================================
(PID.TID 0000.0001) // Begin MONITOR dynamic field statistics
(PID.TID 0000.0001) // =======================================================
(PID.TID 0000.0001) %MON time_tsnumber                =                    15
(PID.TID 0000.0001) %MON time_secondsf                =   2.7000000000000E+04
(PID.TID 0000.0001) %MON dynstat_eta_max              =   5.7701067984852E-05
(PID.TID 0000.0001) %MON dynstat_eta_min              =  -6.8223071401425E-05
(PID.TID 0000.0001) %MON dynstat_eta_mean             =   2.1294866569211E-21
(PID.TID 0000.0001) %MON dynstat_eta_sd               =   1.9610416395530E-05
(PID.TID 0000.0001) %MON dynstat_eta_del2             =   1.0693990163532E-08
(PID.TID 0000.0001) %MON dynstat_uvel_max             =   1.3656793269489E-04
(PID.TID 0000.0001) %MON dynstat_uvel_min             =  -8.9197959959870E-04
(PID.TID 0000.0001) %MON dynstat_uvel_mean            =   3.6378463296560E-08
(PID.TID 0000.0001) %MON dynstat_uvel_sd              =   6.5768720252855E-05
(PID.TID 0000.0001) %MON dynstat_uvel_del2            =   1.3865479479381E-07
(PID.TID 0000.0001) %MON dynstat_vvel_max             =   3.7110889207991E-04
(PID.TID 0000.0001) %MON dynstat_vvel_min             =  -6.1421285299693E-05
(PID.TID 0000.0001) %MON dynstat_vvel_mean            =   1.3627788685540E-07
(PID.TID 0000.0001) %MON dynstat_vvel_sd              =   2.2760867720721E-05
(PID.TID 0000.0001) %MON dynstat_vvel_del2            =   4.7982602978286E-08
(PID.TID 0000.0001) %MON dynstat_wvel_max             =   4.3011499353892E-06
(PID.TID 0000.0001) %MON dynstat_wvel_min             =  -4.0952014447266E-06
(PID.TID 0000.0001) %MON dynstat_wvel_mean            =   7.0623056937909E-11
(PID.TID 0000.0001) %MON dynstat_wvel_sd              =   1.4804808428247E-07
(PID.TID 0000.0001) %MON dynstat_wvel_del2            =   8.1868031869220E-10
(PID.TID 0000.0001) %MON dynstat_theta_max            =  -1.9000000000000E+00
(PID.TID 0000.0001) %MON dynstat_theta_min            =  -1.9453433306369E+00
(PID.TID 0000.0001) %MON dynstat_theta_mean           =  -1.9008358260909E+00
(PID.TID 0000.0001) %MON dynstat_theta_sd             =   3.7884558624270E-03
(PID.TID 0000.0001) %MON dynstat_theta_del2           =   3.8609649257780E-06
(PID.TID 0000.0001) %MON dynstat_salt_max             =   3.4400000000000E+01
(PID.TID 0000.0001) %MON dynstat_salt_min             =   3.4381980560405E+01
(PID.TID 0000.0001) %MON dynstat_salt_mean            =   3.4399667842712E+01
(PID.TID 0000.0001) %MON dynstat_salt_sd              =   1.5055323597283E-03
(PID.TID 0000.0001) %MON dynstat_salt_del2            =   1.5343474615042E-06
(PID.TID 0000.0001) %MON trAdv_CFL_u_max              =   2.4138800549934E-04
(PID.TID 0000.0001) %MON trAdv_CFL_v_max              =   6.3592652052521E-05
(PID.TID 0000.0001) %MON trAdv_CFL_w_max              =   2.3718252937427E-04
(PID.TID 0000.0001) %MON advcfl_uvel_max              =   2.6540322114732E-04
(PID.TID 0000.0001) %MON advcfl_vvel_max              =   6.0083754883388E-05
(PID.TID 0000.0001) %MON advcfl_wvel_max              =   2.5806899612335E-04
(PID.TID 0000.0001) %MON advcfl_W_hf_max              =   2.8935411975196E-04
(PID.TID 0000.0001) %MON pe_b_mean                    =  -1.6541114012541E-08
(PID.TID 0000.0001) %MON ke_max                       =   4.3114612559961E-07
(PID.TID 0000.0001) %MON ke_mean                      =   2.3746173910540E-09
(PID.TID 0000.0001) %MON ke_vol                       =   2.9241705273105E+14
(PID.TID 0000.0001) %MON vort_r_min                   =  -6.2820477706066E-08
(PID.TID 0000.0001) %MON vort_r_max                   =   6.0132694197805E-08
(PID.TID 0000.0001) %MON vort_a_mean                  =  -1.4007437272846E-04
(PID.TID 0000.0001) %MON vort_a_sd                    =   1.7682741552600E-06
(PID.TID 0000.0001) %MON vort_p_mean                  =  -1.5039772189512E-04
(PID.TID 0000.0001) %MON vort_p_sd                    =   8.7071624787212E-05
(PID.TID 0000.0001) %MON surfExpan_theta_mean         =   3.0976051589187E-12
(PID.TID 0000.0001) %MON surfExpan_salt_mean          =   1.2309882901496E-12
(PID.TID 0000.0001) // =======================================================
(PID.TID 0000.0001) // End MONITOR dynamic field statistics
(PID.TID 0000.0001) // =======================================================
 cg2d: Sum(rhs),rhsMax =  -3.55271367880050E-15  2.40615909635381E-05
(PID.TID 0000.0001)      cg2d_init_res =   1.13512510001282E+00
(PID.TID 0000.0001)      cg2d_iters(min,last) =      -1     212
(PID.TID 0000.0001)      cg2d_last_res =   8.22448707222336E-14
(PID.TID 0000.0001) // =======================================================
(PID.TID 0000.0001) // Begin MONITOR dynamic field statistics
(PID.TID 0000.0001) // =======================================================
(PID.TID 0000.0001) %MON time_tsnumber                =                    16
(PID.TID 0000.0001) %MON time_secondsf                =   2.8800000000000E+04
(PID.TID 0000.0001) %MON dynstat_eta_max              =   5.8411824577477E-05
(PID.TID 0000.0001) %MON dynstat_eta_min              =  -7.3949278001243E-05
(PID.TID 0000.0001) %MON dynstat_eta_mean             =  -4.7913449780724E-21
(PID.TID 0000.0001) %MON dynstat_eta_sd               =   2.0150144788125E-05
(PID.TID 0000.0001) %MON dynstat_eta_del2             =   1.1361799426222E-08
(PID.TID 0000.0001) %MON dynstat_uvel_max             =   1.4795212435513E-04
(PID.TID 0000.0001) %MON dynstat_uvel_min             =  -9.6469051177497E-04
(PID.TID 0000.0001) %MON dynstat_uvel_mean            =   5.2047587089933E-08
(PID.TID 0000.0001) %MON dynstat_uvel_sd              =   7.1173341017893E-05
(PID.TID 0000.0001) %MON dynstat_uvel_del2            =   1.5027045956578E-07
(PID.TID 0000.0001) %MON dynstat_vvel_max             =   3.4558705631554E-04
(PID.TID 0000.0001) %MON dynstat_vvel_min             =  -5.8892542371647E-05
(PID.TID 0000.0001) %MON dynstat_vvel_mean            =   1.5542420811075E-07
(PID.TID 0000.0001) %MON dynstat_vvel_sd              =   2.0617357053161E-05
(PID.TID 0000.0001) %MON dynstat_vvel_del2            =   4.4876040564859E-08
(PID.TID 0000.0001) %MON dynstat_wvel_max             =   4.6117012614607E-06
(PID.TID 0000.0001) %MON dynstat_wvel_min             =  -4.3763316199105E-06
(PID.TID 0000.0001) %MON dynstat_wvel_mean            =   7.3725842338414E-11
(PID.TID 0000.0001) %MON dynstat_wvel_sd              =   1.5695644545183E-07
(PID.TID 0000.0001) %MON dynstat_wvel_del2            =   8.0915870677384E-10
(PID.TID 0000.0001) %MON dynstat_theta_max            =  -1.9000000000000E+00
(PID.TID 0000.0001) %MON dynstat_theta_min            =  -1.9482468498606E+00
(PID.TID 0000.0001) %MON dynstat_theta_mean           =  -1.9008893649179E+00
(PID.TID 0000.0001) %MON dynstat_theta_sd             =   4.0303367983776E-03
(PID.TID 0000.0001) %MON dynstat_theta_del2           =   4.0998857377824E-06
(PID.TID 0000.0001) %MON dynstat_salt_max             =   3.4400000000000E+01
(PID.TID 0000.0001) %MON dynstat_salt_min             =   3.4380826701865E+01
(PID.TID 0000.0001) %MON dynstat_salt_mean            =   3.4399646566382E+01
(PID.TID 0000.0001) %MON dynstat_salt_sd              =   1.6016558436751E-03
(PID.TID 0000.0001) %MON dynstat_salt_del2            =   1.6292945921948E-06
(PID.TID 0000.0001) %MON trAdv_CFL_u_max              =   2.6540325483335E-04
(PID.TID 0000.0001) %MON trAdv_CFL_v_max              =   6.0376616039436E-05
(PID.TID 0000.0001) %MON trAdv_CFL_w_max              =   2.5806899612335E-04
(PID.TID 0000.0001) %MON advcfl_uvel_max              =   2.8703792031849E-04
(PID.TID 0000.0001) %MON advcfl_vvel_max              =   5.5951685410069E-05
(PID.TID 0000.0001) %MON advcfl_wvel_max              =   2.7670207568764E-04
(PID.TID 0000.0001) %MON advcfl_W_hf_max              =   3.0706055428165E-04
(PID.TID 0000.0001) %MON pe_b_mean                    =  -1.6451116604101E-08
(PID.TID 0000.0001) %MON ke_max                       =   4.9276615577540E-07
(PID.TID 0000.0001) %MON ke_mean                      =   2.6911843577826E-09
(PID.TID 0000.0001) %MON ke_vol                       =   2.9241705273105E+14
(PID.TID 0000.0001) %MON vort_r_min                   =  -5.8442079869504E-08
(PID.TID 0000.0001) %MON vort_r_max                   =   5.5685279025724E-08
(PID.TID 0000.0001) %MON vort_a_mean                  =  -1.4007437276020E-04
(PID.TID 0000.0001) %MON vort_a_sd                    =   1.7682740658541E-06
(PID.TID 0000.0001) %MON vort_p_mean                  =  -1.5039772192920E-04
(PID.TID 0000.0001) %MON vort_p_sd                    =   8.7070835748184E-05
(PID.TID 0000.0001) %MON surfExpan_theta_mean         =   3.4332892158708E-12
(PID.TID 0000.0001) %MON surfExpan_salt_mean          =   1.3643891343704E-12
(PID.TID 0000.0001) // =======================================================
(PID.TID 0000.0001) // End MONITOR dynamic field statistics
(PID.TID 0000.0001) // =======================================================
 cg2d: Sum(rhs),rhsMax =  -5.15143483426073E-14  2.64422385763330E-05
(PID.TID 0000.0001)      cg2d_init_res =   1.10083452784666E+00
(PID.TID 0000.0001)      cg2d_iters(min,last) =      -1     212
(PID.TID 0000.0001)      cg2d_last_res =   7.79086174238300E-14
(PID.TID 0000.0001) // =======================================================
(PID.TID 0000.0001) // Begin MONITOR dynamic field statistics
(PID.TID 0000.0001) // =======================================================
(PID.TID 0000.0001) %MON time_tsnumber                =                    17
(PID.TID 0000.0001) %MON time_secondsf                =   3.0600000000000E+04
(PID.TID 0000.0001) %MON dynstat_eta_max              =   5.8845897775050E-05
(PID.TID 0000.0001) %MON dynstat_eta_min              =  -7.9075913253723E-05
(PID.TID 0000.0001) %MON dynstat_eta_mean             =  -5.8560883065330E-21
(PID.TID 0000.0001) %MON dynstat_eta_sd               =   2.0724282812844E-05
(PID.TID 0000.0001) %MON dynstat_eta_del2             =   1.2258346490008E-08
(PID.TID 0000.0001) %MON dynstat_uvel_max             =   1.5790810997013E-04
(PID.TID 0000.0001) %MON dynstat_uvel_min             =  -1.0284733514338E-03
(PID.TID 0000.0001) %MON dynstat_uvel_mean            =   6.7016618613298E-08
(PID.TID 0000.0001) %MON dynstat_uvel_sd              =   7.5888872366036E-05
(PID.TID 0000.0001) %MON dynstat_uvel_del2            =   1.6067372217828E-07
(PID.TID 0000.0001) %MON dynstat_vvel_max             =   3.1851121761944E-04
(PID.TID 0000.0001) %MON dynstat_vvel_min             =  -5.5652448503966E-05
(PID.TID 0000.0001) %MON dynstat_vvel_mean            =   1.4304360930264E-07
(PID.TID 0000.0001) %MON dynstat_vvel_sd              =   1.8186764113961E-05
(PID.TID 0000.0001) %MON dynstat_vvel_del2            =   4.1297151909575E-08
(PID.TID 0000.0001) %MON dynstat_wvel_max             =   4.8828368102880E-06
(PID.TID 0000.0001) %MON dynstat_wvel_min             =  -4.6187980029875E-06
(PID.TID 0000.0001) %MON dynstat_wvel_mean            =   6.4503143926728E-11
(PID.TID 0000.0001) %MON dynstat_wvel_sd              =   1.6485749094957E-07
(PID.TID 0000.0001) %MON dynstat_wvel_del2            =   7.9728361894659E-10
(PID.TID 0000.0001) %MON dynstat_theta_max            =  -1.9000000000000E+00
(PID.TID 0000.0001) %MON dynstat_theta_min            =  -1.9511360569516E+00
(PID.TID 0000.0001) %MON dynstat_theta_mean           =  -1.9009426402280E+00
(PID.TID 0000.0001) %MON dynstat_theta_sd             =   4.2709305141475E-03
(PID.TID 0000.0001) %MON dynstat_theta_del2           =   4.3366410997916E-06
(PID.TID 0000.0001) %MON dynstat_salt_max             =   3.4400000000000E+01
(PID.TID 0000.0001) %MON dynstat_salt_min             =   3.4379678530967E+01
(PID.TID 0000.0001) %MON dynstat_salt_mean            =   3.4399625394774E+01
(PID.TID 0000.0001) %MON dynstat_salt_sd              =   1.6972677863221E-03
(PID.TID 0000.0001) %MON dynstat_salt_del2            =   1.7233811730572E-06
(PID.TID 0000.0001) %MON trAdv_CFL_u_max              =   2.8703795675049E-04
(PID.TID 0000.0001) %MON trAdv_CFL_v_max              =   5.6216407544355E-05
(PID.TID 0000.0001) %MON trAdv_CFL_w_max              =   2.7670207568764E-04
(PID.TID 0000.0001) %MON advcfl_uvel_max              =   3.0601612464849E-04
(PID.TID 0000.0001) %MON advcfl_vvel_max              =   5.1568017731397E-05
(PID.TID 0000.0001) %MON advcfl_wvel_max              =   2.9297020861728E-04
(PID.TID 0000.0001) %MON advcfl_W_hf_max              =   3.2218706428376E-04
(PID.TID 0000.0001) %MON pe_b_mean                    =  -1.6406091249492E-08
(PID.TID 0000.0001) %MON ke_max                       =   5.5036453848988E-07
(PID.TID 0000.0001) %MON ke_mean                      =   2.9842413508443E-09
(PID.TID 0000.0001) %MON ke_vol                       =   2.9241705273105E+14
(PID.TID 0000.0001) %MON vort_r_min                   =  -5.3415046123709E-08
(PID.TID 0000.0001) %MON vort_r_max                   =   5.0692586311346E-08
(PID.TID 0000.0001) %MON vort_a_mean                  =  -1.4007437278902E-04
(PID.TID 0000.0001) %MON vort_a_sd                    =   1.7682740295808E-06
(PID.TID 0000.0001) %MON vort_p_mean                  =  -1.5039772196014E-04
(PID.TID 0000.0001) %MON vort_p_sd                    =   8.7070148017440E-05
(PID.TID 0000.0001) %MON surfExpan_theta_mean         =   3.1858852996008E-12
(PID.TID 0000.0001) %MON surfExpan_salt_mean          =   1.2660708180911E-12
(PID.TID 0000.0001) // =======================================================
(PID.TID 0000.0001) // End MONITOR dynamic field statistics
(PID.TID 0000.0001) // =======================================================
 cg2d: Sum(rhs),rhsMax =  -8.88178419700125E-16  2.88368031450257E-05
(PID.TID 0000.0001)      cg2d_init_res =   1.07354639323978E+00
(PID.TID 0000.0001)      cg2d_iters(min,last) =      -1     212
(PID.TID 0000.0001)      cg2d_last_res =   7.04943377805670E-14
(PID.TID 0000.0001) // =======================================================
(PID.TID 0000.0001) // Begin MONITOR dynamic field statistics
(PID.TID 0000.0001) // =======================================================
(PID.TID 0000.0001) %MON time_tsnumber                =                    18
(PID.TID 0000.0001) %MON time_secondsf                =   3.2400000000000E+04
(PID.TID 0000.0001) %MON dynstat_eta_max              =   5.9330109012445E-05
(PID.TID 0000.0001) %MON dynstat_eta_min              =  -8.3457510414373E-05
(PID.TID 0000.0001) %MON dynstat_eta_mean             =  -1.0647433284605E-21
(PID.TID 0000.0001) %MON dynstat_eta_sd               =   2.1371287316160E-05
(PID.TID 0000.0001) %MON dynstat_eta_del2             =   1.3409426169990E-08
(PID.TID 0000.0001) %MON dynstat_uvel_max             =   1.6636580010519E-04
(PID.TID 0000.0001) %MON dynstat_uvel_min             =  -1.0830183545294E-03
(PID.TID 0000.0001) %MON dynstat_uvel_mean            =   8.0192508034849E-08
(PID.TID 0000.0001) %MON dynstat_uvel_sd              =   7.9884458093555E-05
(PID.TID 0000.0001) %MON dynstat_uvel_del2            =   1.6982996879061E-07
(PID.TID 0000.0001) %MON dynstat_vvel_max             =   2.8969731696813E-04
(PID.TID 0000.0001) %MON dynstat_vvel_min             =  -5.1989747642143E-05
(PID.TID 0000.0001) %MON dynstat_vvel_mean            =   1.0210963156381E-07
(PID.TID 0000.0001) %MON dynstat_vvel_sd              =   1.5647666444324E-05
(PID.TID 0000.0001) %MON dynstat_vvel_del2            =   3.7540084599957E-08
(PID.TID 0000.0001) %MON dynstat_wvel_max             =   5.1153152641184E-06
(PID.TID 0000.0001) %MON dynstat_wvel_min             =  -4.8823128664339E-06
(PID.TID 0000.0001) %MON dynstat_wvel_mean            =   4.4217744783345E-11
(PID.TID 0000.0001) %MON dynstat_wvel_sd              =   1.7176028198764E-07
(PID.TID 0000.0001) %MON dynstat_wvel_del2            =   7.8625590727297E-10
(PID.TID 0000.0001) %MON dynstat_theta_max            =  -1.9000000000000E+00
(PID.TID 0000.0001) %MON dynstat_theta_min            =  -1.9540110338669E+00
(PID.TID 0000.0001) %MON dynstat_theta_mean           =  -1.9009956533824E+00
(PID.TID 0000.0001) %MON dynstat_theta_sd             =   4.5102440606821E-03
(PID.TID 0000.0001) %MON dynstat_theta_del2           =   4.5712529656995E-06
(PID.TID 0000.0001) %MON dynstat_salt_max             =   3.4400000000000E+01
(PID.TID 0000.0001) %MON dynstat_salt_min             =   3.4378536015141E+01
(PID.TID 0000.0001) %MON dynstat_salt_mean            =   3.4399604327347E+01
(PID.TID 0000.0001) %MON dynstat_salt_sd              =   1.7923709897150E-03
(PID.TID 0000.0001) %MON dynstat_salt_del2            =   1.8166159285690E-06
(PID.TID 0000.0001) %MON trAdv_CFL_u_max              =   3.0601616348927E-04
(PID.TID 0000.0001) %MON trAdv_CFL_v_max              =   5.1811999581358E-05
(PID.TID 0000.0001) %MON trAdv_CFL_w_max              =   2.9297020861728E-04
(PID.TID 0000.0001) %MON advcfl_uvel_max              =   3.2224566568910E-04
(PID.TID 0000.0001) %MON advcfl_vvel_max              =   4.6902952083780E-05
(PID.TID 0000.0001) %MON advcfl_wvel_max              =   3.0691891584710E-04
(PID.TID 0000.0001) %MON advcfl_W_hf_max              =   3.3494731523359E-04
(PID.TID 0000.0001) %MON pe_b_mean                    =  -1.6499512131752E-08
(PID.TID 0000.0001) %MON ke_max                       =   6.0250160298444E-07
(PID.TID 0000.0001) %MON ke_mean                      =   3.2466397256695E-09
(PID.TID 0000.0001) %MON ke_vol                       =   2.9241705273105E+14
(PID.TID 0000.0001) %MON vort_r_min                   =  -4.8139575291854E-08
(PID.TID 0000.0001) %MON vort_r_max                   =   5.2690221785106E-08
(PID.TID 0000.0001) %MON vort_a_mean                  =  -1.4007437281143E-04
(PID.TID 0000.0001) %MON vort_a_sd                    =   1.7682740480070E-06
(PID.TID 0000.0001) %MON vort_p_mean                  =  -1.5039772198420E-04
(PID.TID 0000.0001) %MON vort_p_sd                    =   8.7069566735368E-05
(PID.TID 0000.0001) %MON surfExpan_theta_mean         =   2.3198372533756E-12
(PID.TID 0000.0001) %MON surfExpan_salt_mean          =   9.2190332446459E-13
(PID.TID 0000.0001) // =======================================================
(PID.TID 0000.0001) // End MONITOR dynamic field statistics
(PID.TID 0000.0001) // =======================================================
 cg2d: Sum(rhs),rhsMax =  -3.10862446895044E-14  3.12275935691220E-05
(PID.TID 0000.0001)      cg2d_init_res =   1.05195160429191E+00
(PID.TID 0000.0001)      cg2d_iters(min,last) =      -1     211
(PID.TID 0000.0001)      cg2d_last_res =   9.51090247756513E-14
(PID.TID 0000.0001) // =======================================================
(PID.TID 0000.0001) // Begin MONITOR dynamic field statistics
(PID.TID 0000.0001) // =======================================================
(PID.TID 0000.0001) %MON time_tsnumber                =                    19
(PID.TID 0000.0001) %MON time_secondsf                =   3.4200000000000E+04
(PID.TID 0000.0001) %MON dynstat_eta_max              =   5.9868210195850E-05
(PID.TID 0000.0001) %MON dynstat_eta_min              =  -8.7016360904649E-05
(PID.TID 0000.0001) %MON dynstat_eta_mean             =  -1.5971149926908E-21
(PID.TID 0000.0001) %MON dynstat_eta_sd               =   2.2114849356922E-05
(PID.TID 0000.0001) %MON dynstat_eta_del2             =   1.4826297066001E-08
(PID.TID 0000.0001) %MON dynstat_uvel_max             =   1.7335318507269E-04
(PID.TID 0000.0001) %MON dynstat_uvel_min             =  -1.1286261162834E-03
(PID.TID 0000.0001) %MON dynstat_uvel_mean            =   9.0689102724159E-08
(PID.TID 0000.0001) %MON dynstat_uvel_sd              =   8.3176788089713E-05
(PID.TID 0000.0001) %MON dynstat_uvel_del2            =   1.7778654287645E-07
(PID.TID 0000.0001) %MON dynstat_vvel_max             =   2.6138115313050E-04
(PID.TID 0000.0001) %MON dynstat_vvel_min             =  -4.8197339919917E-05
(PID.TID 0000.0001) %MON dynstat_vvel_mean            =   3.8153813153131E-08
(PID.TID 0000.0001) %MON dynstat_vvel_sd              =   1.3179089784690E-05
(PID.TID 0000.0001) %MON dynstat_vvel_del2            =   3.3890037187093E-08
(PID.TID 0000.0001) %MON dynstat_wvel_max             =   5.3189970580361E-06
(PID.TID 0000.0001) %MON dynstat_wvel_min             =  -5.1219337900441E-06
(PID.TID 0000.0001) %MON dynstat_wvel_mean            =   1.5151063733941E-11
(PID.TID 0000.0001) %MON dynstat_wvel_sd              =   1.7771639888939E-07
(PID.TID 0000.0001) %MON dynstat_wvel_del2            =   7.7851625471323E-10
(PID.TID 0000.0001) %MON dynstat_theta_max            =  -1.9000000000000E+00
(PID.TID 0000.0001) %MON dynstat_theta_min            =  -1.9568718579463E+00
(PID.TID 0000.0001) %MON dynstat_theta_mean           =  -1.9010484057350E+00
(PID.TID 0000.0001) %MON dynstat_theta_sd             =   4.7482844488126E-03
(PID.TID 0000.0001) %MON dynstat_theta_del2           =   4.8037432677200E-06
(PID.TID 0000.0001) %MON dynstat_salt_max             =   3.4400000000000E+01
(PID.TID 0000.0001) %MON dynstat_salt_min             =   3.4377399123652E+01
(PID.TID 0000.0001) %MON dynstat_salt_mean            =   3.4399583363562E+01
(PID.TID 0000.0001) %MON dynstat_salt_sd              =   1.8869682399579E-03
(PID.TID 0000.0001) %MON dynstat_salt_del2            =   1.9090075745920E-06
(PID.TID 0000.0001) %MON trAdv_CFL_u_max              =   3.2224570658980E-04
(PID.TID 0000.0001) %MON trAdv_CFL_v_max              =   4.7124862281639E-05
(PID.TID 0000.0001) %MON trAdv_CFL_w_max              =   3.0691891584710E-04
(PID.TID 0000.0001) %MON advcfl_uvel_max              =   3.3581598375946E-04
(PID.TID 0000.0001) %MON advcfl_vvel_max              =   4.2318471669628E-05
(PID.TID 0000.0001) %MON advcfl_wvel_max              =   3.1913982348217E-04
(PID.TID 0000.0001) %MON advcfl_W_hf_max              =   3.4569201182713E-04
(PID.TID 0000.0001) %MON pe_b_mean                    =  -1.6807008562441E-08
(PID.TID 0000.0001) %MON ke_max                       =   6.4839553251060E-07
(PID.TID 0000.0001) %MON ke_mean                      =   3.4744216544678E-09
(PID.TID 0000.0001) %MON ke_vol                       =   2.9241705273105E+14
(PID.TID 0000.0001) %MON vort_r_min                   =  -4.3006632805946E-08
(PID.TID 0000.0001) %MON vort_r_max                   =   5.5551589847741E-08
(PID.TID 0000.0001) %MON vort_a_mean                  =  -1.4007437282471E-04
(PID.TID 0000.0001) %MON vort_a_sd                    =   1.7682741213162E-06
(PID.TID 0000.0001) %MON vort_p_mean                  =  -1.5039772199846E-04
(PID.TID 0000.0001) %MON vort_p_sd                    =   8.7069090160113E-05
(PID.TID 0000.0001) %MON surfExpan_theta_mean         =   8.6935449912428E-13
(PID.TID 0000.0001) %MON surfExpan_salt_mean          =   3.4548147791391E-13
(PID.TID 0000.0001) // =======================================================
(PID.TID 0000.0001) // End MONITOR dynamic field statistics
(PID.TID 0000.0001) // =======================================================
 cg2d: Sum(rhs),rhsMax =  -4.26325641456060E-14  3.36007782241187E-05
(PID.TID 0000.0001)      cg2d_init_res =   1.03491896624887E+00
(PID.TID 0000.0001)      cg2d_iters(min,last) =      -1     210
(PID.TID 0000.0001)      cg2d_last_res =   9.63179684795121E-14
(PID.TID 0000.0001) // =======================================================
(PID.TID 0000.0001) // Begin MONITOR dynamic field statistics
(PID.TID 0000.0001) // =======================================================
(PID.TID 0000.0001) %MON time_tsnumber                =                    20
(PID.TID 0000.0001) %MON time_secondsf                =   3.6000000000000E+04
(PID.TID 0000.0001) %MON dynstat_eta_max              =   6.0644840384266E-05
(PID.TID 0000.0001) %MON dynstat_eta_min              =  -8.9750633446358E-05
(PID.TID 0000.0001) %MON dynstat_eta_mean             =  -1.3309291605757E-21
(PID.TID 0000.0001) %MON dynstat_eta_sd               =   2.2970220633107E-05
(PID.TID 0000.0001) %MON dynstat_eta_del2             =   1.6508548094546E-08
(PID.TID 0000.0001) %MON dynstat_uvel_max             =   1.7898906736657E-04
(PID.TID 0000.0001) %MON dynstat_uvel_min             =  -1.1661535011898E-03
(PID.TID 0000.0001) %MON dynstat_uvel_mean            =   9.7893774716463E-08
(PID.TID 0000.0001) %MON dynstat_uvel_sd              =   8.5826664681675E-05
(PID.TID 0000.0001) %MON dynstat_uvel_del2            =   1.8466307834904E-07
(PID.TID 0000.0001) %MON dynstat_vvel_max             =   2.3563231454734E-04
(PID.TID 0000.0001) %MON dynstat_vvel_min             =  -4.4554101039279E-05
(PID.TID 0000.0001) %MON dynstat_vvel_mean            =  -4.1602017992753E-08
(PID.TID 0000.0001) %MON dynstat_vvel_sd              =   1.0948090430057E-05
(PID.TID 0000.0001) %MON dynstat_vvel_del2            =   3.0602763117377E-08
(PID.TID 0000.0001) %MON dynstat_wvel_max             =   5.5106049897034E-06
(PID.TID 0000.0001) %MON dynstat_wvel_min             =  -5.3288115675386E-06
(PID.TID 0000.0001) %MON dynstat_wvel_mean            =  -1.9715222616156E-11
(PID.TID 0000.0001) %MON dynstat_wvel_sd              =   1.8282175470863E-07
(PID.TID 0000.0001) %MON dynstat_wvel_del2            =   7.7554627372401E-10
(PID.TID 0000.0001) %MON dynstat_theta_max            =  -1.8999999378019E+00
(PID.TID 0000.0001) %MON dynstat_theta_min            =  -1.9597186022582E+00
(PID.TID 0000.0001) %MON dynstat_theta_mean           =  -1.9011008986330E+00
(PID.TID 0000.0001) %MON dynstat_theta_sd             =   4.9850586507513E-03
(PID.TID 0000.0001) %MON dynstat_theta_del2           =   5.0341339481673E-06
(PID.TID 0000.0001) %MON dynstat_salt_max             =   3.4400000024718E+01
(PID.TID 0000.0001) %MON dynstat_salt_min             =   3.4376267827463E+01
(PID.TID 0000.0001) %MON dynstat_salt_mean            =   3.4399562502884E+01
(PID.TID 0000.0001) %MON dynstat_salt_sd              =   1.9810623078083E-03
(PID.TID 0000.0001) %MON dynstat_salt_del2            =   2.0005648310017E-06
(PID.TID 0000.0001) %MON trAdv_CFL_u_max              =   3.3581602638256E-04
(PID.TID 0000.0001) %MON trAdv_CFL_v_max              =   4.2518691485313E-05
(PID.TID 0000.0001) %MON trAdv_CFL_w_max              =   3.1913982348217E-04
(PID.TID 0000.0001) %MON advcfl_uvel_max              =   3.4698203379007E-04
(PID.TID 0000.0001) %MON advcfl_vvel_max              =   3.8149649690473E-05
(PID.TID 0000.0001) %MON advcfl_wvel_max              =   3.3063629938220E-04
(PID.TID 0000.0001) %MON advcfl_W_hf_max              =   3.5487499023960E-04
(PID.TID 0000.0001) %MON pe_b_mean                    =  -1.7380603383883E-08
(PID.TID 0000.0001) %MON ke_max                       =   6.8798380514701E-07
(PID.TID 0000.0001) %MON ke_mean                      =   3.6671744299175E-09
(PID.TID 0000.0001) %MON ke_vol                       =   2.9241705273105E+14
(PID.TID 0000.0001) %MON vort_r_min                   =  -3.8372884285035E-08
(PID.TID 0000.0001) %MON vort_r_max                   =   5.8066541791030E-08
(PID.TID 0000.0001) %MON vort_a_mean                  =  -1.4007437282710E-04
(PID.TID 0000.0001) %MON vort_a_sd                    =   1.7682742488731E-06
(PID.TID 0000.0001) %MON vort_p_mean                  =  -1.5039772200103E-04
(PID.TID 0000.0001) %MON vort_p_sd                    =   8.7068710107296E-05
(PID.TID 0000.0001) %MON surfExpan_theta_mean         =  -1.0661524735107E-12
(PID.TID 0000.0001) %MON surfExpan_salt_mean          =  -4.2368899297351E-13
(PID.TID 0000.0001) // =======================================================
(PID.TID 0000.0001) // End MONITOR dynamic field statistics
(PID.TID 0000.0001) // =======================================================
(PID.TID 0000.0001) %CHECKPOINT        20 ckptA
(PID.TID 0000.0001)   Seconds in section "ALL                    [THE_MODEL_MAIN]":
(PID.TID 0000.0001)           User time:   27.983923338353634
(PID.TID 0000.0001)         System time:  0.19140199385583401
(PID.TID 0000.0001)     Wall clock time:   28.655494928359985
(PID.TID 0000.0001)          No. starts:           1
(PID.TID 0000.0001)           No. stops:           1
(PID.TID 0000.0001)   Seconds in section "INITIALISE_FIXED       [THE_MODEL_MAIN]":
(PID.TID 0000.0001)           User time:  0.17631899658590555
(PID.TID 0000.0001)         System time:  0.12828399799764156
(PID.TID 0000.0001)     Wall clock time:  0.30587005615234375
(PID.TID 0000.0001)          No. starts:           1
(PID.TID 0000.0001)           No. stops:           1
(PID.TID 0000.0001)   Seconds in section "THE_MAIN_LOOP          [THE_MODEL_MAIN]":
(PID.TID 0000.0001)           User time:   27.807556703686714
(PID.TID 0000.0001)         System time:   6.3089996576309204E-002
(PID.TID 0000.0001)     Wall clock time:   28.349565029144287
(PID.TID 0000.0001)          No. starts:           1
(PID.TID 0000.0001)           No. stops:           1
(PID.TID 0000.0001)   Seconds in section "INITIALISE_VARIA    [THE_MAIN_LOOP]":
(PID.TID 0000.0001)           User time:  0.34726803004741669
(PID.TID 0000.0001)         System time:   2.7245998382568359E-002
(PID.TID 0000.0001)     Wall clock time:  0.37466001510620117
(PID.TID 0000.0001)          No. starts:           1
(PID.TID 0000.0001)           No. stops:           1
(PID.TID 0000.0001)   Seconds in section "MAIN LOOP           [THE_MAIN_LOOP]":
(PID.TID 0000.0001)           User time:   27.460264146327972
(PID.TID 0000.0001)         System time:   3.5836994647979736E-002
(PID.TID 0000.0001)     Wall clock time:   27.974878072738647
(PID.TID 0000.0001)          No. starts:           1
(PID.TID 0000.0001)           No. stops:           1
(PID.TID 0000.0001)   Seconds in section "MAIN_DO_LOOP        [THE_MAIN_LOOP]":
(PID.TID 0000.0001)           User time:   27.460088610649109
(PID.TID 0000.0001)         System time:   3.5834997892379761E-002
(PID.TID 0000.0001)     Wall clock time:   27.974706172943115
(PID.TID 0000.0001)          No. starts:          20
(PID.TID 0000.0001)           No. stops:          20
(PID.TID 0000.0001)   Seconds in section "FORWARD_STEP        [MAIN_DO_LOOP]":
(PID.TID 0000.0001)           User time:   27.459783613681793
(PID.TID 0000.0001)         System time:   3.5833999514579773E-002
(PID.TID 0000.0001)     Wall clock time:   27.974390029907227
(PID.TID 0000.0001)          No. starts:          20
(PID.TID 0000.0001)           No. stops:          20
(PID.TID 0000.0001)   Seconds in section "LOAD_FIELDS_DRIVER  [FORWARD_STEP]":
(PID.TID 0000.0001)           User time:   4.6336650848388672E-004
(PID.TID 0000.0001)         System time:   7.9870223999023438E-006
(PID.TID 0000.0001)     Wall clock time:   4.7588348388671875E-004
(PID.TID 0000.0001)          No. starts:          20
(PID.TID 0000.0001)           No. stops:          20
(PID.TID 0000.0001)   Seconds in section "EXTERNAL_FLDS_LOAD [LOAD_FLDS_DRIVER]":
(PID.TID 0000.0001)           User time:   1.7768144607543945E-004
(PID.TID 0000.0001)         System time:   3.9935111999511719E-006
(PID.TID 0000.0001)     Wall clock time:   1.8095970153808594E-004
(PID.TID 0000.0001)          No. starts:          20
(PID.TID 0000.0001)           No. stops:          20
(PID.TID 0000.0001)   Seconds in section "DO_ATMOSPHERIC_PHYS [FORWARD_STEP]":
(PID.TID 0000.0001)           User time:   1.6677379608154297E-004
(PID.TID 0000.0001)         System time:   2.9951333999633789E-006
(PID.TID 0000.0001)     Wall clock time:   1.7166137695312500E-004
(PID.TID 0000.0001)          No. starts:          20
(PID.TID 0000.0001)           No. stops:          20
(PID.TID 0000.0001)   Seconds in section "DO_OCEANIC_PHYS     [FORWARD_STEP]":
(PID.TID 0000.0001)           User time:  0.45150810480117798
(PID.TID 0000.0001)         System time:   1.9967555999755859E-006
(PID.TID 0000.0001)     Wall clock time:  0.45154142379760742
(PID.TID 0000.0001)          No. starts:          20
(PID.TID 0000.0001)           No. stops:          20
(PID.TID 0000.0001)   Seconds in section "SHELFICE_THERMODYNAMICS [DO_OCEANIC_PHYS]":
(PID.TID 0000.0001)           User time:   6.0831487178802490E-002
(PID.TID 0000.0001)         System time:   0.0000000000000000
(PID.TID 0000.0001)     Wall clock time:   6.0852766036987305E-002
(PID.TID 0000.0001)          No. starts:          20
(PID.TID 0000.0001)           No. stops:          20
(PID.TID 0000.0001)   Seconds in section "THERMODYNAMICS      [FORWARD_STEP]":
(PID.TID 0000.0001)           User time:   5.2009444236755371
(PID.TID 0000.0001)         System time:   0.0000000000000000
(PID.TID 0000.0001)     Wall clock time:   5.2014269828796387
(PID.TID 0000.0001)          No. starts:          20
(PID.TID 0000.0001)           No. stops:          20
(PID.TID 0000.0001)   Seconds in section "DYNAMICS            [FORWARD_STEP]":
(PID.TID 0000.0001)           User time:   10.017586886882782
(PID.TID 0000.0001)         System time:   0.0000000000000000
(PID.TID 0000.0001)     Wall clock time:   10.018507242202759
(PID.TID 0000.0001)          No. starts:          20
(PID.TID 0000.0001)           No. stops:          20
(PID.TID 0000.0001)   Seconds in section "UPDATE_SURF_DR      [FORWARD_STEP]":
(PID.TID 0000.0001)           User time:  0.14064419269561768
(PID.TID 0000.0001)         System time:   0.0000000000000000
(PID.TID 0000.0001)     Wall clock time:  0.14068412780761719
(PID.TID 0000.0001)          No. starts:          20
(PID.TID 0000.0001)           No. stops:          20
(PID.TID 0000.0001)   Seconds in section "SOLVE_FOR_PRESSURE  [FORWARD_STEP]":
(PID.TID 0000.0001)           User time:   5.9772402048110962
(PID.TID 0000.0001)         System time:   0.0000000000000000
(PID.TID 0000.0001)     Wall clock time:   5.9777340888977051
(PID.TID 0000.0001)          No. starts:          20
(PID.TID 0000.0001)           No. stops:          20
(PID.TID 0000.0001)   Seconds in section "MOM_CORRECTION_STEP [FORWARD_STEP]":
(PID.TID 0000.0001)           User time:  0.35239911079406738
(PID.TID 0000.0001)         System time:   0.0000000000000000
(PID.TID 0000.0001)     Wall clock time:  0.35245013236999512
(PID.TID 0000.0001)          No. starts:          20
(PID.TID 0000.0001)           No. stops:          20
(PID.TID 0000.0001)   Seconds in section "INTEGR_CONTINUITY   [FORWARD_STEP]":
(PID.TID 0000.0001)           User time:  0.59573936462402344
(PID.TID 0000.0001)         System time:   0.0000000000000000
(PID.TID 0000.0001)     Wall clock time:  0.59579324722290039
(PID.TID 0000.0001)          No. starts:          20
(PID.TID 0000.0001)           No. stops:          20
(PID.TID 0000.0001)   Seconds in section "TRC_CORRECTION_STEP [FORWARD_STEP]":
(PID.TID 0000.0001)           User time:   1.1677818298339844
(PID.TID 0000.0001)         System time:   0.0000000000000000
(PID.TID 0000.0001)     Wall clock time:   1.1679687500000000
(PID.TID 0000.0001)          No. starts:          20
(PID.TID 0000.0001)           No. stops:          20
(PID.TID 0000.0001)   Seconds in section "BLOCKING_EXCHANGES  [FORWARD_STEP]":
(PID.TID 0000.0001)           User time:  0.29091751575469971
(PID.TID 0000.0001)         System time:   0.0000000000000000
(PID.TID 0000.0001)     Wall clock time:  0.29100894927978516
(PID.TID 0000.0001)          No. starts:          20
(PID.TID 0000.0001)           No. stops:          20
(PID.TID 0000.0001)   Seconds in section "MONITOR             [FORWARD_STEP]":
(PID.TID 0000.0001)           User time:   3.1024825572967529
(PID.TID 0000.0001)         System time:   0.0000000000000000
(PID.TID 0000.0001)     Wall clock time:   3.1026768684387207
(PID.TID 0000.0001)          No. starts:          20
(PID.TID 0000.0001)           No. stops:          20
(PID.TID 0000.0001)   Seconds in section "DO_THE_MODEL_IO     [FORWARD_STEP]":
(PID.TID 0000.0001)           User time:   6.0154438018798828E-002
(PID.TID 0000.0001)         System time:   1.1824011802673340E-002
(PID.TID 0000.0001)     Wall clock time:  0.54876089096069336
(PID.TID 0000.0001)          No. starts:          20
(PID.TID 0000.0001)           No. stops:          20
(PID.TID 0000.0001)   Seconds in section "DO_WRITE_PICKUP     [FORWARD_STEP]":
(PID.TID 0000.0001)           User time:   9.8577857017517090E-002
(PID.TID 0000.0001)         System time:   2.3991987109184265E-002
(PID.TID 0000.0001)     Wall clock time:  0.12256669998168945
(PID.TID 0000.0001)          No. starts:          20
(PID.TID 0000.0001)           No. stops:          20
(PID.TID 0000.0001) // ======================================================
(PID.TID 0000.0001) // Tile <-> Tile communication statistics
(PID.TID 0000.0001) // ======================================================
(PID.TID 0000.0001) // o Tile number: 000001
(PID.TID 0000.0001) //         No. X exchanges =              0
(PID.TID 0000.0001) //            Max. X spins =              0
(PID.TID 0000.0001) //            Min. X spins =     1000000000
(PID.TID 0000.0001) //          Total. X spins =              0
(PID.TID 0000.0001) //            Avg. X spins =       0.00E+00
(PID.TID 0000.0001) //         No. Y exchanges =              0
(PID.TID 0000.0001) //            Max. Y spins =              0
(PID.TID 0000.0001) //            Min. Y spins =     1000000000
(PID.TID 0000.0001) //          Total. Y spins =              0
(PID.TID 0000.0001) //            Avg. Y spins =       0.00E+00
(PID.TID 0000.0001) // o Tile number: 000002
(PID.TID 0000.0001) //         No. X exchanges =              0
(PID.TID 0000.0001) //            Max. X spins =              0
(PID.TID 0000.0001) //            Min. X spins =     1000000000
(PID.TID 0000.0001) //          Total. X spins =              0
(PID.TID 0000.0001) //            Avg. X spins =       0.00E+00
(PID.TID 0000.0001) //         No. Y exchanges =              0
(PID.TID 0000.0001) //            Max. Y spins =              0
(PID.TID 0000.0001) //            Min. Y spins =     1000000000
(PID.TID 0000.0001) //          Total. Y spins =              0
(PID.TID 0000.0001) //            Avg. Y spins =       0.00E+00
(PID.TID 0000.0001) // o Tile number: 000003
(PID.TID 0000.0001) //         No. X exchanges =              0
(PID.TID 0000.0001) //            Max. X spins =              0
(PID.TID 0000.0001) //            Min. X spins =     1000000000
(PID.TID 0000.0001) //          Total. X spins =              0
(PID.TID 0000.0001) //            Avg. X spins =       0.00E+00
(PID.TID 0000.0001) //         No. Y exchanges =              0
(PID.TID 0000.0001) //            Max. Y spins =              0
(PID.TID 0000.0001) //            Min. Y spins =     1000000000
(PID.TID 0000.0001) //          Total. Y spins =              0
(PID.TID 0000.0001) //            Avg. Y spins =       0.00E+00
(PID.TID 0000.0001) // o Tile number: 000004
(PID.TID 0000.0001) //         No. X exchanges =              0
(PID.TID 0000.0001) //            Max. X spins =              0
(PID.TID 0000.0001) //            Min. X spins =     1000000000
(PID.TID 0000.0001) //          Total. X spins =              0
(PID.TID 0000.0001) //            Avg. X spins =       0.00E+00
(PID.TID 0000.0001) //         No. Y exchanges =              0
(PID.TID 0000.0001) //            Max. Y spins =              0
(PID.TID 0000.0001) //            Min. Y spins =     1000000000
(PID.TID 0000.0001) //          Total. Y spins =              0
(PID.TID 0000.0001) //            Avg. Y spins =       0.00E+00
(PID.TID 0000.0001) // o Tile number: 000005
(PID.TID 0000.0001) //         No. X exchanges =              0
(PID.TID 0000.0001) //            Max. X spins =              0
(PID.TID 0000.0001) //            Min. X spins =     1000000000
(PID.TID 0000.0001) //          Total. X spins =              0
(PID.TID 0000.0001) //            Avg. X spins =       0.00E+00
(PID.TID 0000.0001) //         No. Y exchanges =              0
(PID.TID 0000.0001) //            Max. Y spins =              0
(PID.TID 0000.0001) //            Min. Y spins =     1000000000
(PID.TID 0000.0001) //          Total. Y spins =              0
(PID.TID 0000.0001) //            Avg. Y spins =       0.00E+00
(PID.TID 0000.0001) // o Tile number: 000006
(PID.TID 0000.0001) //         No. X exchanges =              0
(PID.TID 0000.0001) //            Max. X spins =              0
(PID.TID 0000.0001) //            Min. X spins =     1000000000
(PID.TID 0000.0001) //          Total. X spins =              0
(PID.TID 0000.0001) //            Avg. X spins =       0.00E+00
(PID.TID 0000.0001) //         No. Y exchanges =              0
(PID.TID 0000.0001) //            Max. Y spins =              0
(PID.TID 0000.0001) //            Min. Y spins =     1000000000
(PID.TID 0000.0001) //          Total. Y spins =              0
(PID.TID 0000.0001) //            Avg. Y spins =       0.00E+00
(PID.TID 0000.0001) // o Tile number: 000007
(PID.TID 0000.0001) //         No. X exchanges =              0
(PID.TID 0000.0001) //            Max. X spins =              0
(PID.TID 0000.0001) //            Min. X spins =     1000000000
(PID.TID 0000.0001) //          Total. X spins =              0
(PID.TID 0000.0001) //            Avg. X spins =       0.00E+00
(PID.TID 0000.0001) //         No. Y exchanges =              0
(PID.TID 0000.0001) //            Max. Y spins =              0
(PID.TID 0000.0001) //            Min. Y spins =     1000000000
(PID.TID 0000.0001) //          Total. Y spins =              0
(PID.TID 0000.0001) //            Avg. Y spins =       0.00E+00
(PID.TID 0000.0001) // o Tile number: 000008
(PID.TID 0000.0001) //         No. X exchanges =              0
(PID.TID 0000.0001) //            Max. X spins =              0
(PID.TID 0000.0001) //            Min. X spins =     1000000000
(PID.TID 0000.0001) //          Total. X spins =              0
(PID.TID 0000.0001) //            Avg. X spins =       0.00E+00
(PID.TID 0000.0001) //         No. Y exchanges =              0
(PID.TID 0000.0001) //            Max. Y spins =              0
(PID.TID 0000.0001) //            Min. Y spins =     1000000000
(PID.TID 0000.0001) //          Total. Y spins =              0
(PID.TID 0000.0001) //            Avg. Y spins =       0.00E+00
(PID.TID 0000.0001) // o Thread number: 000001
(PID.TID 0000.0001) //            No. barriers =          29338
(PID.TID 0000.0001) //      Max. barrier spins =              1
(PID.TID 0000.0001) //      Min. barrier spins =              1
(PID.TID 0000.0001) //     Total barrier spins =          29338
(PID.TID 0000.0001) //      Avg. barrier spins =       1.00E+00
PROGRAM MAIN: Execution ended Normally
