(PID.TID 0000.0001) 
(PID.TID 0000.0001) // ======================================================
(PID.TID 0000.0001) //                      MITgcm UV
(PID.TID 0000.0001) //                      =========
(PID.TID 0000.0001) // ======================================================
(PID.TID 0000.0001) // execution environment starting up...
(PID.TID 0000.0001) 
(PID.TID 0000.0001) // MITgcmUV version:  checkpoint68w
(PID.TID 0000.0001) // Build user:        jm_c
(PID.TID 0000.0001) // Build host:        villon
(PID.TID 0000.0001) // Build date:        Wed Mar 27 09:51:10 EDT 2024
(PID.TID 0000.0001) 
(PID.TID 0000.0001) // =======================================================
(PID.TID 0000.0001) // Execution Environment parameter file "eedata"
(PID.TID 0000.0001) // =======================================================
(PID.TID 0000.0001) ># Example "eedata" file
(PID.TID 0000.0001) ># Lines beginning "#" are comments
(PID.TID 0000.0001) ># nTx - No. threads per process in X
(PID.TID 0000.0001) ># nTy - No. threads per process in Y
(PID.TID 0000.0001) > &EEPARMS
(PID.TID 0000.0001) > /
(PID.TID 0000.0001) ># Note: Some systems use & as the
(PID.TID 0000.0001) ># namelist terminator. Other systems
(PID.TID 0000.0001) ># use a / character (as shown here).
(PID.TID 0000.0001) 
(PID.TID 0000.0001) // =======================================================
(PID.TID 0000.0001) // Computational Grid Specification ( see files "SIZE.h" )
(PID.TID 0000.0001) //                                  ( and "eedata"       )
(PID.TID 0000.0001) // =======================================================
(PID.TID 0000.0001)      nPx =    1 ; /* No. processes in X */
(PID.TID 0000.0001)      nPy =    1 ; /* No. processes in Y */
(PID.TID 0000.0001)      nSx =    2 ; /* No. tiles in X per process */
(PID.TID 0000.0001)      nSy =    4 ; /* No. tiles in Y per process */
(PID.TID 0000.0001)      sNx =   25 ; /* Tile size in X */
(PID.TID 0000.0001)      sNy =   25 ; /* Tile size in Y */
(PID.TID 0000.0001)      OLx =    4 ; /* Tile overlap distance in X */
(PID.TID 0000.0001)      OLy =    4 ; /* Tile overlap distance in Y */
(PID.TID 0000.0001)      nTx =    1 ; /* No. threads in X per process */
(PID.TID 0000.0001)      nTy =    1 ; /* No. threads in Y per process */
(PID.TID 0000.0001)       Nr =   30 ; /* No. levels in the vertical   */
(PID.TID 0000.0001)       Nx =   50 ; /* Total domain size in X ( = nPx*nSx*sNx ) */
(PID.TID 0000.0001)       Ny =  100 ; /* Total domain size in Y ( = nPy*nSy*sNy ) */
(PID.TID 0000.0001)   nTiles =    8 ; /* Total no. tiles per process ( = nSx*nSy ) */
(PID.TID 0000.0001)   nProcs =    1 ; /* Total no. processes ( = nPx*nPy ) */
(PID.TID 0000.0001) nThreads =    1 ; /* Total no. threads per process ( = nTx*nTy ) */
(PID.TID 0000.0001) usingMPI =    F ; /* Flag used to control whether MPI is in use */
(PID.TID 0000.0001)                   /*  note: To execute a program with MPI calls */
(PID.TID 0000.0001)                   /*  it must be launched appropriately e.g     */
(PID.TID 0000.0001)                   /*  "mpirun -np 64 ......"                    */
(PID.TID 0000.0001) useCoupler=   F ; /* Flag used to control communications with   */
(PID.TID 0000.0001)                   /*  other model components, through a coupler */
(PID.TID 0000.0001) useNest2W_parent =    F ;/* Control 2-W Nesting comm */
(PID.TID 0000.0001) useNest2W_child  =    F ;/* Control 2-W Nesting comm */
(PID.TID 0000.0001) debugMode =    F ; /* print debug msg. (sequence of S/R calls)  */
(PID.TID 0000.0001) printMapIncludesZeros=    F ; /* print zeros in Std.Output maps */
(PID.TID 0000.0001) maxLengthPrt1D=   65 /* maxLength of 1D array printed to StdOut */
(PID.TID 0000.0001) 
(PID.TID 0000.0001) // ======================================================
(PID.TID 0000.0001) // Mapping of tiles to threads
(PID.TID 0000.0001) // ======================================================
(PID.TID 0000.0001) // -o- Thread   1, tiles (   1:   2,   1:   4)
(PID.TID 0000.0001) 
(PID.TID 0000.0001) // ======================================================
(PID.TID 0000.0001) // Tile <-> Tile connectvity table
(PID.TID 0000.0001) // ======================================================
(PID.TID 0000.0001) // Tile number: 000001 (process no. = 000000)
(PID.TID 0000.0001) //        WEST: Tile = 000002, Process = 000000, Comm = put
(PID.TID 0000.0001) //                bi = 000002, bj = 000001
(PID.TID 0000.0001) //        EAST: Tile = 000002, Process = 000000, Comm = put
(PID.TID 0000.0001) //                bi = 000002, bj = 000001
(PID.TID 0000.0001) //       SOUTH: Tile = 000007, Process = 000000, Comm = put
(PID.TID 0000.0001) //                bi = 000001, bj = 000004
(PID.TID 0000.0001) //       NORTH: Tile = 000003, Process = 000000, Comm = put
(PID.TID 0000.0001) //                bi = 000001, bj = 000002
(PID.TID 0000.0001) // Tile number: 000002 (process no. = 000000)
(PID.TID 0000.0001) //        WEST: Tile = 000001, Process = 000000, Comm = put
(PID.TID 0000.0001) //                bi = 000001, bj = 000001
(PID.TID 0000.0001) //        EAST: Tile = 000001, Process = 000000, Comm = put
(PID.TID 0000.0001) //                bi = 000001, bj = 000001
(PID.TID 0000.0001) //       SOUTH: Tile = 000008, Process = 000000, Comm = put
(PID.TID 0000.0001) //                bi = 000002, bj = 000004
(PID.TID 0000.0001) //       NORTH: Tile = 000004, Process = 000000, Comm = put
(PID.TID 0000.0001) //                bi = 000002, bj = 000002
(PID.TID 0000.0001) // Tile number: 000003 (process no. = 000000)
(PID.TID 0000.0001) //        WEST: Tile = 000004, Process = 000000, Comm = put
(PID.TID 0000.0001) //                bi = 000002, bj = 000002
(PID.TID 0000.0001) //        EAST: Tile = 000004, Process = 000000, Comm = put
(PID.TID 0000.0001) //                bi = 000002, bj = 000002
(PID.TID 0000.0001) //       SOUTH: Tile = 000001, Process = 000000, Comm = put
(PID.TID 0000.0001) //                bi = 000001, bj = 000001
(PID.TID 0000.0001) //       NORTH: Tile = 000005, Process = 000000, Comm = put
(PID.TID 0000.0001) //                bi = 000001, bj = 000003
(PID.TID 0000.0001) // Tile number: 000004 (process no. = 000000)
(PID.TID 0000.0001) //        WEST: Tile = 000003, Process = 000000, Comm = put
(PID.TID 0000.0001) //                bi = 000001, bj = 000002
(PID.TID 0000.0001) //        EAST: Tile = 000003, Process = 000000, Comm = put
(PID.TID 0000.0001) //                bi = 000001, bj = 000002
(PID.TID 0000.0001) //       SOUTH: Tile = 000002, Process = 000000, Comm = put
(PID.TID 0000.0001) //                bi = 000002, bj = 000001
(PID.TID 0000.0001) //       NORTH: Tile = 000006, Process = 000000, Comm = put
(PID.TID 0000.0001) //                bi = 000002, bj = 000003
(PID.TID 0000.0001) // Tile number: 000005 (process no. = 000000)
(PID.TID 0000.0001) //        WEST: Tile = 000006, Process = 000000, Comm = put
(PID.TID 0000.0001) //                bi = 000002, bj = 000003
(PID.TID 0000.0001) //        EAST: Tile = 000006, Process = 000000, Comm = put
(PID.TID 0000.0001) //                bi = 000002, bj = 000003
(PID.TID 0000.0001) //       SOUTH: Tile = 000003, Process = 000000, Comm = put
(PID.TID 0000.0001) //                bi = 000001, bj = 000002
(PID.TID 0000.0001) //       NORTH: Tile = 000007, Process = 000000, Comm = put
(PID.TID 0000.0001) //                bi = 000001, bj = 000004
(PID.TID 0000.0001) // Tile number: 000006 (process no. = 000000)
(PID.TID 0000.0001) //        WEST: Tile = 000005, Process = 000000, Comm = put
(PID.TID 0000.0001) //                bi = 000001, bj = 000003
(PID.TID 0000.0001) //        EAST: Tile = 000005, Process = 000000, Comm = put
(PID.TID 0000.0001) //                bi = 000001, bj = 000003
(PID.TID 0000.0001) //       SOUTH: Tile = 000004, Process = 000000, Comm = put
(PID.TID 0000.0001) //                bi = 000002, bj = 000002
(PID.TID 0000.0001) //       NORTH: Tile = 000008, Process = 000000, Comm = put
(PID.TID 0000.0001) //                bi = 000002, bj = 000004
(PID.TID 0000.0001) // Tile number: 000007 (process no. = 000000)
(PID.TID 0000.0001) //        WEST: Tile = 000008, Process = 000000, Comm = put
(PID.TID 0000.0001) //                bi = 000002, bj = 000004
(PID.TID 0000.0001) //        EAST: Tile = 000008, Process = 000000, Comm = put
(PID.TID 0000.0001) //                bi = 000002, bj = 000004
(PID.TID 0000.0001) //       SOUTH: Tile = 000005, Process = 000000, Comm = put
(PID.TID 0000.0001) //                bi = 000001, bj = 000003
(PID.TID 0000.0001) //       NORTH: Tile = 000001, Process = 000000, Comm = put
(PID.TID 0000.0001) //                bi = 000001, bj = 000001
(PID.TID 0000.0001) // Tile number: 000008 (process no. = 000000)
(PID.TID 0000.0001) //        WEST: Tile = 000007, Process = 000000, Comm = put
(PID.TID 0000.0001) //                bi = 000001, bj = 000004
(PID.TID 0000.0001) //        EAST: Tile = 000007, Process = 000000, Comm = put
(PID.TID 0000.0001) //                bi = 000001, bj = 000004
(PID.TID 0000.0001) //       SOUTH: Tile = 000006, Process = 000000, Comm = put
(PID.TID 0000.0001) //                bi = 000002, bj = 000003
(PID.TID 0000.0001) //       NORTH: Tile = 000002, Process = 000000, Comm = put
(PID.TID 0000.0001) //                bi = 000002, bj = 000001
(PID.TID 0000.0001) 
(PID.TID 0000.0001)  INI_PARMS: opening model parameter file "data"
(PID.TID 0000.0001)  OPEN_COPY_DATA_FILE: opening file data
(PID.TID 0000.0001) // =======================================================
(PID.TID 0000.0001) // Parameter file "data"
(PID.TID 0000.0001) // =======================================================
(PID.TID 0000.0001) ># ====================
(PID.TID 0000.0001) ># | Model parameters |
(PID.TID 0000.0001) ># ====================
(PID.TID 0000.0001) >#
(PID.TID 0000.0001) ># Continuous equation parameters
(PID.TID 0000.0001) > &PARM01
(PID.TID 0000.0001) > Tref = 30*-1.9,
(PID.TID 0000.0001) > Sref = 30*34.4,
(PID.TID 0000.0001) > viscAz=1.E-3,
(PID.TID 0000.0001) > viscAh=600.0,
(PID.TID 0000.0001) > no_slip_sides=.FALSE.,
(PID.TID 0000.0001) > no_slip_bottom=.FALSE.,
(PID.TID 0000.0001) > diffKhT= 60.0,
(PID.TID 0000.0001) > diffKhS= 60.0,
(PID.TID 0000.0001) >#- diffKzT unused when compiled with ALLOW_3D_DIFFKR
(PID.TID 0000.0001) >#diffKzT=3.E-5,
(PID.TID 0000.0001) > diffKzS=3.E-5,
(PID.TID 0000.0001) > bottomDragQuadratic=2.5E-3,
(PID.TID 0000.0001) > eosType='JMD95Z',
(PID.TID 0000.0001) > HeatCapacity_Cp = 3974.0,
(PID.TID 0000.0001) > rhoConst=1030.,
(PID.TID 0000.0001) > gravity=9.81,
(PID.TID 0000.0001) > convertFW2Salt = 33.4,
(PID.TID 0000.0001) > implicitFreeSurface=.TRUE.,
(PID.TID 0000.0001) > exactConserv=.TRUE.,
(PID.TID 0000.0001) > hFacMin=0.10,
(PID.TID 0000.0001) > nonHydrostatic=.FALSE.,
(PID.TID 0000.0001) > useCDScheme = .TRUE.,
(PID.TID 0000.0001) > tempAdvScheme = 7,
(PID.TID 0000.0001) > saltAdvScheme = 7,
(PID.TID 0000.0001) >#ph(
(PID.TID 0000.0001) > implicitDiffusion=.TRUE.,
(PID.TID 0000.0001) ># ivdc_kappa = 7200.,
(PID.TID 0000.0001) > staggerTimeStep=.TRUE.,
(PID.TID 0000.0001) > vectorInvariantMomentum=.TRUE.,
(PID.TID 0000.0001) > nonlinFreeSurf=2,
(PID.TID 0000.0001) > hFacInf=0.05,
(PID.TID 0000.0001) > hFacSup=2.0,
(PID.TID 0000.0001) >#ph)
(PID.TID 0000.0001) > readBinaryPrec=64,
(PID.TID 0000.0001) > useSingleCpuIO=.TRUE.,
(PID.TID 0000.0001) > /
(PID.TID 0000.0001) >
(PID.TID 0000.0001) ># Elliptic solver parameters
(PID.TID 0000.0001) > &PARM02
(PID.TID 0000.0001) > cg2dMaxIters=1000,
(PID.TID 0000.0001) > cg2dTargetResidual=1.E-13,
(PID.TID 0000.0001) > /
(PID.TID 0000.0001) >
(PID.TID 0000.0001) ># Time stepping parameters
(PID.TID 0000.0001) > &PARM03
(PID.TID 0000.0001) > nIter0=8640,
(PID.TID 0000.0001) > nTimeSteps=5,
(PID.TID 0000.0001) > deltaT=1800.0,
(PID.TID 0000.0001) > abEps=0.1,
(PID.TID 0000.0001) > cAdjFreq = 1.,
(PID.TID 0000.0001) > tauCD = 400000.,
(PID.TID 0000.0001) > pChkptFreq=0.0,
(PID.TID 0000.0001) > chkptFreq=0.0,
(PID.TID 0000.0001) > dumpFreq=0.0,
(PID.TID 0000.0001) > taveFreq=0.0,
(PID.TID 0000.0001) > monitorFreq=1.,
(PID.TID 0000.0001) > monitorSelect=2,
(PID.TID 0000.0001) > adjMonitorFreq=1800.,
(PID.TID 0000.0001) > /
(PID.TID 0000.0001) >
(PID.TID 0000.0001) ># Gridding parameters
(PID.TID 0000.0001) > &PARM04
(PID.TID 0000.0001) > usingSphericalPolarGrid=.TRUE.,
(PID.TID 0000.0001) > ygOrigin = -80.0,
(PID.TID 0000.0001) > delX=50*0.3,
(PID.TID 0000.0001) > delY=100*0.1,
(PID.TID 0000.0001) > delZ=30*30.0,
(PID.TID 0000.0001) > /
(PID.TID 0000.0001) >
(PID.TID 0000.0001) ># Input datasets
(PID.TID 0000.0001) > &PARM05
(PID.TID 0000.0001) > bathyFile='bathy.box',
(PID.TID 0000.0001) > /
(PID.TID 0000.0001) 
(PID.TID 0000.0001)  INI_PARMS ; starts to read PARM01
(PID.TID 0000.0001)  INI_PARMS ; read PARM01 : OK
(PID.TID 0000.0001)  INI_PARMS ; starts to read PARM02
(PID.TID 0000.0001)  INI_PARMS ; read PARM02 : OK
(PID.TID 0000.0001)  INI_PARMS ; starts to read PARM03
(PID.TID 0000.0001)  INI_PARMS ; read PARM03 : OK
(PID.TID 0000.0001)  INI_PARMS ; starts to read PARM04
(PID.TID 0000.0001)  INI_PARMS ; read PARM04 : OK
(PID.TID 0000.0001)  INI_PARMS ; starts to read PARM05
(PID.TID 0000.0001)  INI_PARMS ; read PARM05 : OK
(PID.TID 0000.0001)  INI_PARMS: finished reading file "data"
(PID.TID 0000.0001)  PACKAGES_BOOT: opening data.pkg
(PID.TID 0000.0001)  OPEN_COPY_DATA_FILE: opening file data.pkg
(PID.TID 0000.0001) // =======================================================
(PID.TID 0000.0001) // Parameter file "data.pkg"
(PID.TID 0000.0001) // =======================================================
(PID.TID 0000.0001) ># Packages
(PID.TID 0000.0001) > &PACKAGES
(PID.TID 0000.0001) >#useMNC=.TRUE.,
(PID.TID 0000.0001) > useShelfIce=.TRUE.,
(PID.TID 0000.0001) > useGrdchk=.TRUE.,
(PID.TID 0000.0001) > /
(PID.TID 0000.0001) 
(PID.TID 0000.0001)  PACKAGES_BOOT: finished reading data.pkg
(PID.TID 0000.0001)  PACKAGES_BOOT: On/Off package Summary
 --------  pkgs with a standard "usePKG" On/Off switch in "data.pkg":  --------
 pkg/ggl90                compiled but not used ( useGGL90                 = F )
 pkg/autodiff             compiled   and   used ( useAUTODIFF              = T )
 pkg/grdchk               compiled   and   used ( useGrdchk                = T )
 pkg/ctrl                 compiled   and   used ( useCTRL                  = T )
 pkg/shelfice             compiled   and   used ( useShelfIce              = T )
 pkg/diagnostics          compiled but not used ( useDiagnostics           = F )
 pkg/mnc                  compiled but not used ( useMNC                   = F )
 -------- pkgs without standard "usePKG" On/Off switch in "data.pkg":  --------
 pkg/generic_advdiff      compiled   and   used ( useGAD                   = T )
 pkg/mom_common           compiled   and   used ( momStepping              = T )
 pkg/mom_vecinv           compiled   and   used ( +vectorInvariantMomentum = T )
 pkg/mom_fluxform         compiled but not used ( & not vectorInvariantMom = F )
 pkg/cd_code              compiled   and   used ( useCDscheme              = T )
 pkg/monitor              compiled   and   used ( monitorFreq > 0.         = T )
 pkg/debug                compiled but not used ( debugMode                = F )
 pkg/rw                   compiled   and   used
 pkg/mdsio                compiled   and   used
 pkg/autodiff             compiled   and   used
 pkg/cost                 compiled   and   used
(PID.TID 0000.0001)  PACKAGES_BOOT: End of package Summary
(PID.TID 0000.0001) 
(PID.TID 0000.0001)  SHELFICE_READPARMS: opening data.shelfice
(PID.TID 0000.0001)  OPEN_COPY_DATA_FILE: opening file data.shelfice
(PID.TID 0000.0001) // =======================================================
(PID.TID 0000.0001) // Parameter file "data.shelfice"
(PID.TID 0000.0001) // =======================================================
(PID.TID 0000.0001) ># ===================================
(PID.TID 0000.0001) ># | Parameters for SHELFICE package |
(PID.TID 0000.0001) ># ===================================
(PID.TID 0000.0001) > &SHELFICE_PARM01
(PID.TID 0000.0001) > SHELFICEboundaryLayer = .TRUE.,
(PID.TID 0000.0001) > SHELFICEtopoFile='icetopo.exp1',
(PID.TID 0000.0001) > SHELFICEloadAnomalyFile = 'phi0surf.exp1.jmd95z',
(PID.TID 0000.0001) > useISOMIPTD = .FALSE.,
(PID.TID 0000.0001) > no_slip_shelfice = .false.,
(PID.TID 0000.0001) > SHELFICEwriteState = .TRUE.,
(PID.TID 0000.0001) > /
(PID.TID 0000.0001) 
(PID.TID 0000.0001)  SHELFICE_READPARMS: finished reading data.shelfice
(PID.TID 0000.0001) AUTODIFF_READPARMS: opening data.autodiff
(PID.TID 0000.0001)  OPEN_COPY_DATA_FILE: opening file data.autodiff
(PID.TID 0000.0001) // =======================================================
(PID.TID 0000.0001) // Parameter file "data.autodiff"
(PID.TID 0000.0001) // =======================================================
(PID.TID 0000.0001) ># =========================
(PID.TID 0000.0001) ># pkg AUTODIFF parameters :
(PID.TID 0000.0001) ># =========================
(PID.TID 0000.0001) >#  inAdExact :: get an exact adjoint (no approximation) (def=.True.)
(PID.TID 0000.0001) >#
(PID.TID 0000.0001) > &AUTODIFF_PARM01
(PID.TID 0000.0001) ># inAdExact = .FALSE.,
(PID.TID 0000.0001) > /
(PID.TID 0000.0001) 
(PID.TID 0000.0001) AUTODIFF_READPARMS: finished reading data.autodiff
(PID.TID 0000.0001) // ===================================
(PID.TID 0000.0001) // AUTODIFF parameters :
(PID.TID 0000.0001) // ===================================
(PID.TID 0000.0001) inAdExact = /* get an exact adjoint (no approximation) */
(PID.TID 0000.0001)                   T
(PID.TID 0000.0001)     ;
(PID.TID 0000.0001) useApproxAdvectionInAdMode = /* approximate AD-advection */
(PID.TID 0000.0001)                   F
(PID.TID 0000.0001)     ;
(PID.TID 0000.0001) cg2dFullAdjoint = /* use full hand written cg2d adjoint (no approximation) */
(PID.TID 0000.0001)                   F
(PID.TID 0000.0001)     ;
(PID.TID 0000.0001) useKPPinAdMode = /* use KPP in adjoint mode */
(PID.TID 0000.0001)                   F
(PID.TID 0000.0001)     ;
(PID.TID 0000.0001) useGMRediInAdMode = /* use GMRedi in adjoint mode */
(PID.TID 0000.0001)                   F
(PID.TID 0000.0001)     ;
(PID.TID 0000.0001) useSEAICEinAdMode = /* use SEAICE in adjoint mode */
(PID.TID 0000.0001)                   F
(PID.TID 0000.0001)     ;
(PID.TID 0000.0001) useGGL90inAdMode = /* use GGL90 in adjoint mode */
(PID.TID 0000.0001)                   F
(PID.TID 0000.0001)     ;
(PID.TID 0000.0001) useSALT_PLUMEinAdMode = /* use SALT_PLUME in adjoint mode */
(PID.TID 0000.0001)                   F
(PID.TID 0000.0001)     ;
(PID.TID 0000.0001) dumpAdVarExch = /* control adexch before dumpinp */
(PID.TID 0000.0001)                       2
(PID.TID 0000.0001)     ;
(PID.TID 0000.0001) mon_AdVarExch = /* control adexch before monitor */
(PID.TID 0000.0001)                       2
(PID.TID 0000.0001)     ;
(PID.TID 0000.0001) viscFacInFw = /* viscosity factor for forward model */
(PID.TID 0000.0001)                 1.000000000000000E+00
(PID.TID 0000.0001)     ;
(PID.TID 0000.0001) viscFacInAd = /* viscosity factor for adjoint */
(PID.TID 0000.0001)                 1.000000000000000E+00
(PID.TID 0000.0001)     ;
(PID.TID 0000.0001) SIregFacInAd = /* sea ice factor for adjoint model */
(PID.TID 0000.0001)                 1.234567000000000E+05
(PID.TID 0000.0001)     ;
(PID.TID 0000.0001) SIregFacInFw = /* sea ice factor for forward model */
(PID.TID 0000.0001)                 1.234567000000000E+05
(PID.TID 0000.0001)     ;
(PID.TID 0000.0001) 
(PID.TID 0000.0001) OPTIM_READPARMS: opening data.optim
(PID.TID 0000.0001)  OPEN_COPY_DATA_FILE: opening file data.optim
(PID.TID 0000.0001) // =======================================================
(PID.TID 0000.0001) // Parameter file "data.optim"
(PID.TID 0000.0001) // =======================================================
(PID.TID 0000.0001) > &OPTIM
(PID.TID 0000.0001) > optimcycle=0,
(PID.TID 0000.0001) > /
(PID.TID 0000.0001) 
(PID.TID 0000.0001) OPTIM_READPARMS: finished reading data.optim
(PID.TID 0000.0001) CTRL_READPARMS: opening data.ctrl
(PID.TID 0000.0001)  OPEN_COPY_DATA_FILE: opening file data.ctrl
(PID.TID 0000.0001) // =======================================================
(PID.TID 0000.0001) // Parameter file "data.ctrl"
(PID.TID 0000.0001) // =======================================================
(PID.TID 0000.0001) ># *********************
(PID.TID 0000.0001) ># ECCO controlvariables
(PID.TID 0000.0001) ># *********************
(PID.TID 0000.0001) > &CTRL_NML
(PID.TID 0000.0001) > /
(PID.TID 0000.0001) >#
(PID.TID 0000.0001) ># *********************
(PID.TID 0000.0001) ># names for ctrl_pack/unpack
(PID.TID 0000.0001) ># *********************
(PID.TID 0000.0001) > &CTRL_PACKNAMES
(PID.TID 0000.0001) > /
(PID.TID 0000.0001) >#
(PID.TID 0000.0001) ># *********************
(PID.TID 0000.0001) ># names for CTRL_GENARR, CTRL_GENTIM
(PID.TID 0000.0001) ># *********************
(PID.TID 0000.0001) > &CTRL_NML_GENARR
(PID.TID 0000.0001) > xx_genarr3d_file(1)       = 'xx_theta',
(PID.TID 0000.0001) > xx_genarr3d_weight(1)     = 'ones_64b.bin',
(PID.TID 0000.0001) > xx_genarr3d_bounds(1:5,1) = -2.,-1.9,39.,40.,5.,
(PID.TID 0000.0001) >#
(PID.TID 0000.0001) > xx_genarr3d_file(2)       = 'xx_salt',
(PID.TID 0000.0001) > xx_genarr3d_weight(2)     = 'ones_64b.bin',
(PID.TID 0000.0001) > xx_genarr3d_bounds(1:5,2) = 29.,29.5,40.5,41.,5.,
(PID.TID 0000.0001) >#
(PID.TID 0000.0001) > xx_genarr3d_file(3)       = 'xx_diffkr',
(PID.TID 0000.0001) > xx_genarr3d_weight(3)     = 'ones_64b.bin',
(PID.TID 0000.0001) > xx_genarr3d_bounds(1:5,3) = 1.E-6,2.E-6,4.E-4,5.E-4,0.,
(PID.TID 0000.0001) >#
(PID.TID 0000.0001) > xx_gentim2d_file(1)       = 'xx_shifwflx',
(PID.TID 0000.0001) > xx_gentim2d_weight(1)     = 'ones_64b.bin',
(PID.TID 0000.0001) >#
(PID.TID 0000.0001) > xx_genarr2d_file(1)       = 'xx_shicoefft',
(PID.TID 0000.0001) > xx_genarr2d_weight(1)     = 'ones_64b.bin',
(PID.TID 0000.0001) > xx_genarr2d_preproc_c(1,1)= 'log10ctrl',
(PID.TID 0000.0001) > xx_genarr2d_preproc_r(1,1)= -4.,
(PID.TID 0000.0001) >#
(PID.TID 0000.0001) > /
(PID.TID 0000.0001) 
(PID.TID 0000.0001) CTRL_READPARMS: finished reading data.ctrl
(PID.TID 0000.0001) read-write ctrl files from current run directory
(PID.TID 0000.0001) COST_READPARMS: opening data.cost
(PID.TID 0000.0001)  OPEN_COPY_DATA_FILE: opening file data.cost
(PID.TID 0000.0001) // =======================================================
(PID.TID 0000.0001) // Parameter file "data.cost"
(PID.TID 0000.0001) // =======================================================
(PID.TID 0000.0001) >#
(PID.TID 0000.0001) >#
(PID.TID 0000.0001) ># ******************
(PID.TID 0000.0001) ># cost function
(PID.TID 0000.0001) ># ******************
(PID.TID 0000.0001) > &COST_NML
(PID.TID 0000.0001) >#revert to default 1 month
(PID.TID 0000.0001) ># lastinterval=7776000.,
(PID.TID 0000.0001) > mult_test=1.,
(PID.TID 0000.0001) > /
(PID.TID 0000.0001) 
(PID.TID 0000.0001) COST_READPARMS: finished reading data.cost
(PID.TID 0000.0001) GRDCHK_READPARMS: opening data.grdchk
(PID.TID 0000.0001)  OPEN_COPY_DATA_FILE: opening file data.grdchk
(PID.TID 0000.0001) // =======================================================
(PID.TID 0000.0001) // Parameter file "data.grdchk"
(PID.TID 0000.0001) // =======================================================
(PID.TID 0000.0001) ># *******************
(PID.TID 0000.0001) ># ECCO gradient check
(PID.TID 0000.0001) ># *******************
(PID.TID 0000.0001) > &GRDCHK_NML
(PID.TID 0000.0001) > grdchk_eps       = 1.E-4,
(PID.TID 0000.0001) >  iglopos         = 20,
(PID.TID 0000.0001) >  jglopos         = 24,
(PID.TID 0000.0001) >  kglopos         = 20,
(PID.TID 0000.0001) ># nbeg             = 1,
(PID.TID 0000.0001) > nstep            = 1,
(PID.TID 0000.0001) > nend             = 4,
(PID.TID 0000.0001) > grdchkvarname    = "xx_theta",
(PID.TID 0000.0001) > /
(PID.TID 0000.0001) 
(PID.TID 0000.0001) GRDCHK_READPARMS: finished reading data.grdchk
(PID.TID 0000.0001) SET_PARMS: done
(PID.TID 0000.0001) Enter INI_VERTICAL_GRID: setInterFDr=    T ; setCenterDr=    F
(PID.TID 0000.0001) %MON XC_max                       =   1.4850000000000E+01
(PID.TID 0000.0001) %MON XC_min                       =   1.5000000000000E-01
(PID.TID 0000.0001) %MON XC_mean                      =   7.5000000000000E+00
(PID.TID 0000.0001) %MON XC_sd                        =   4.3292609068985E+00
(PID.TID 0000.0001) %MON XG_max                       =   1.4700000000000E+01
(PID.TID 0000.0001) %MON XG_min                       =   1.1102230246252E-16
(PID.TID 0000.0001) %MON XG_mean                      =   7.3500000000000E+00
(PID.TID 0000.0001) %MON XG_sd                        =   4.3292609068985E+00
(PID.TID 0000.0001) %MON DXC_max                      =   1.1380125394806E+04
(PID.TID 0000.0001) %MON DXC_min                      =   5.8203914905589E+03
(PID.TID 0000.0001) %MON DXC_mean                     =   8.6215028627207E+03
(PID.TID 0000.0001) %MON DXC_sd                       =   1.6219001271572E+03
(PID.TID 0000.0001) %MON DXF_max                      =   1.1380125394806E+04
(PID.TID 0000.0001) %MON DXF_min                      =   5.8203914905589E+03
(PID.TID 0000.0001) %MON DXF_mean                     =   8.6215028627207E+03
(PID.TID 0000.0001) %MON DXF_sd                       =   1.6219001271572E+03
(PID.TID 0000.0001) %MON DXG_max                      =   1.1352761512017E+04
(PID.TID 0000.0001) %MON DXG_min                      =   5.7917296935586E+03
(PID.TID 0000.0001) %MON DXG_mean                     =   8.5934208253080E+03
(PID.TID 0000.0001) %MON DXG_sd                       =   1.6222785520817E+03
(PID.TID 0000.0001) %MON DXV_max                      =   1.1352761512017E+04
(PID.TID 0000.0001) %MON DXV_min                      =   5.7917296935586E+03
(PID.TID 0000.0001) %MON DXV_mean                     =   8.5934208253080E+03
(PID.TID 0000.0001) %MON DXV_sd                       =   1.6222785520817E+03
(PID.TID 0000.0001) %MON YC_max                       =  -7.0050000000001E+01
(PID.TID 0000.0001) %MON YC_min                       =  -7.9950000000000E+01
(PID.TID 0000.0001) %MON YC_mean                      =  -7.5000000000000E+01
(PID.TID 0000.0001) %MON YC_sd                        =   2.8866070047720E+00
(PID.TID 0000.0001) %MON YG_max                       =  -7.0100000000001E+01
(PID.TID 0000.0001) %MON YG_min                       =  -8.0000000000000E+01
(PID.TID 0000.0001) %MON YG_mean                      =  -7.5050000000000E+01
(PID.TID 0000.0001) %MON YG_sd                        =   2.8866070047721E+00
(PID.TID 0000.0001) %MON DYC_max                      =   1.1117747335204E+04
(PID.TID 0000.0001) %MON DYC_min                      =   1.1117747335204E+04
(PID.TID 0000.0001) %MON DYC_mean                     =   1.1117747335204E+04
(PID.TID 0000.0001) %MON DYC_sd                       =   4.1836756281555E-11
(PID.TID 0000.0001) %MON DYF_max                      =   1.1117747335204E+04
(PID.TID 0000.0001) %MON DYF_min                      =   1.1117747335204E+04
(PID.TID 0000.0001) %MON DYF_mean                     =   1.1117747335204E+04
(PID.TID 0000.0001) %MON DYF_sd                       =   4.1836756281555E-11
(PID.TID 0000.0001) %MON DYG_max                      =   1.1117747335204E+04
(PID.TID 0000.0001) %MON DYG_min                      =   1.1117747335204E+04
(PID.TID 0000.0001) %MON DYG_mean                     =   1.1117747335204E+04
(PID.TID 0000.0001) %MON DYG_sd                       =   4.1836756281555E-11
(PID.TID 0000.0001) %MON DYU_max                      =   1.1117747335204E+04
(PID.TID 0000.0001) %MON DYU_min                      =   1.1117747335204E+04
(PID.TID 0000.0001) %MON DYU_mean                     =   1.1117747335204E+04
(PID.TID 0000.0001) %MON DYU_sd                       =   4.1836756281555E-11
(PID.TID 0000.0001) %MON RA_max                       =   1.2652134272379E+08
(PID.TID 0000.0001) %MON RA_min                       =   6.4709633770803E+07
(PID.TID 0000.0001) %MON RA_mean                      =   9.5851678311587E+07
(PID.TID 0000.0001) %MON RA_sd                        =   1.8031873527992E+07
(PID.TID 0000.0001) %MON RAW_max                      =   1.2652134272379E+08
(PID.TID 0000.0001) %MON RAW_min                      =   6.4709633770803E+07
(PID.TID 0000.0001) %MON RAW_mean                     =   9.5851678311587E+07
(PID.TID 0000.0001) %MON RAW_sd                       =   1.8031873527992E+07
(PID.TID 0000.0001) %MON RAS_max                      =   1.2621711802744E+08
(PID.TID 0000.0001) %MON RAS_min                      =   6.4390979194019E+07
(PID.TID 0000.0001) %MON RAS_mean                     =   9.5539469354603E+07
(PID.TID 0000.0001) %MON RAS_sd                       =   1.8036080760153E+07
(PID.TID 0000.0001) %MON RAZ_max                      =   1.2621711802744E+08
(PID.TID 0000.0001) %MON RAZ_min                      =   6.4390979194019E+07
(PID.TID 0000.0001) %MON RAZ_mean                     =   9.5539469354603E+07
(PID.TID 0000.0001) %MON RAZ_sd                       =   1.8036080760153E+07
(PID.TID 0000.0001) %MON AngleCS_max                  =   1.0000000000000E+00
(PID.TID 0000.0001) %MON AngleCS_min                  =   1.0000000000000E+00
(PID.TID 0000.0001) %MON AngleCS_mean                 =   1.0000000000000E+00
(PID.TID 0000.0001) %MON AngleCS_sd                   =   0.0000000000000E+00
(PID.TID 0000.0001) %MON AngleSN_max                  =   0.0000000000000E+00
(PID.TID 0000.0001) %MON AngleSN_min                  =   0.0000000000000E+00
(PID.TID 0000.0001) %MON AngleSN_mean                 =   0.0000000000000E+00
(PID.TID 0000.0001) %MON AngleSN_sd                   =   0.0000000000000E+00
(PID.TID 0000.0001) GAD_INIT_FIXED: GAD_OlMinSize=  4  0  1
(PID.TID 0000.0001) 
(PID.TID 0000.0001) // ===================================
(PID.TID 0000.0001) // GAD parameters :
(PID.TID 0000.0001) // ===================================
(PID.TID 0000.0001) tempAdvScheme =   /* Temp. Horiz.Advection scheme selector */
(PID.TID 0000.0001)                       7
(PID.TID 0000.0001)     ;
(PID.TID 0000.0001) tempVertAdvScheme =   /* Temp. Vert. Advection scheme selector */
(PID.TID 0000.0001)                       7
(PID.TID 0000.0001)     ;
(PID.TID 0000.0001) tempMultiDimAdvec =   /* use Muti-Dim Advec method for Temp */
(PID.TID 0000.0001)                   T
(PID.TID 0000.0001)     ;
(PID.TID 0000.0001) tempSOM_Advection = /* use 2nd Order Moment Advection for Temp */
(PID.TID 0000.0001)                   F
(PID.TID 0000.0001)     ;
(PID.TID 0000.0001) AdamsBashforthGt = /* apply Adams-Bashforth extrapolation on Gt */
(PID.TID 0000.0001)                   F
(PID.TID 0000.0001)     ;
(PID.TID 0000.0001) AdamsBashforth_T = /* apply Adams-Bashforth extrapolation on Temp */
(PID.TID 0000.0001)                   F
(PID.TID 0000.0001)     ;
(PID.TID 0000.0001) saltAdvScheme =   /* Salt. Horiz.advection scheme selector */
(PID.TID 0000.0001)                       7
(PID.TID 0000.0001)     ;
(PID.TID 0000.0001) saltVertAdvScheme =   /* Salt. Vert. Advection scheme selector */
(PID.TID 0000.0001)                       7
(PID.TID 0000.0001)     ;
(PID.TID 0000.0001) saltMultiDimAdvec =   /* use Muti-Dim Advec method for Salt */
(PID.TID 0000.0001)                   T
(PID.TID 0000.0001)     ;
(PID.TID 0000.0001) saltSOM_Advection = /* use 2nd Order Moment Advection for Salt */
(PID.TID 0000.0001)                   F
(PID.TID 0000.0001)     ;
(PID.TID 0000.0001) AdamsBashforthGs = /* apply Adams-Bashforth extrapolation on Gs */
(PID.TID 0000.0001)                   F
(PID.TID 0000.0001)     ;
(PID.TID 0000.0001) AdamsBashforth_S = /* apply Adams-Bashforth extrapolation on Salt */
(PID.TID 0000.0001)                   F
(PID.TID 0000.0001)     ;
(PID.TID 0000.0001) // ===================================
(PID.TID 0000.0001) CTRL_INIT_FIXED: ivar=   5 = number of CTRL variables defined
(PID.TID 0000.0001) 
(PID.TID 0000.0001) ctrl-wet 1:    nvarlength =       311052
(PID.TID 0000.0001) ctrl-wet 2: surface wet C =            0
(PID.TID 0000.0001) ctrl-wet 3: surface wet W =            0
(PID.TID 0000.0001) ctrl-wet 4: surface wet S =            0
(PID.TID 0000.0001) ctrl-wet 5: 3D wet points =         7200
(PID.TID 0000.0001) ctrl-wet 6: no recs for ivar =     1           1
(PID.TID 0000.0001) ctrl-wet 6: no recs for ivar =     2           1
(PID.TID 0000.0001) ctrl-wet 6: no recs for ivar =     3           1
(PID.TID 0000.0001) ctrl-wet 6: no recs for ivar =     4           1
(PID.TID 0000.0001) ctrl-wet 6: no recs for ivar =     5           1
(PID.TID 0000.0001) ctrl-wet -------------------------------------------------
(PID.TID 0000.0001) ctrl-wet 13: global nvarlength for Nr =   30      311052
(PID.TID 0000.0001) ctrl-wet -------------------------------------------------
(PID.TID 0000.0001) ctrl-wet 14: global nWet C/S/W k=    1           0           0           0
(PID.TID 0000.0001) ctrl-wet 14: global nWet C/S/W k=    2           0           0           0
(PID.TID 0000.0001) ctrl-wet 14: global nWet C/S/W k=    3           0           0           0
(PID.TID 0000.0001) ctrl-wet 14: global nWet C/S/W k=    4           0           0           0
(PID.TID 0000.0001) ctrl-wet 14: global nWet C/S/W k=    5           0           0           0
(PID.TID 0000.0001) ctrl-wet 14: global nWet C/S/W k=    6           0           0           0
(PID.TID 0000.0001) ctrl-wet 14: global nWet C/S/W k=    7        2989        2940        2928
(PID.TID 0000.0001) ctrl-wet 14: global nWet C/S/W k=    8        3087        3038        3024
(PID.TID 0000.0001) ctrl-wet 14: global nWet C/S/W k=    9        3185        3136        3120
(PID.TID 0000.0001) ctrl-wet 14: global nWet C/S/W k=   10        3332        3283        3264
(PID.TID 0000.0001) ctrl-wet 14: global nWet C/S/W k=   11        3430        3381        3360
(PID.TID 0000.0001) ctrl-wet 14: global nWet C/S/W k=   12        3577        3528        3504
(PID.TID 0000.0001) ctrl-wet 14: global nWet C/S/W k=   13        3675        3626        3600
(PID.TID 0000.0001) ctrl-wet 14: global nWet C/S/W k=   14        3773        3724        3696
(PID.TID 0000.0001) ctrl-wet 14: global nWet C/S/W k=   15        3920        3871        3840
(PID.TID 0000.0001) ctrl-wet 14: global nWet C/S/W k=   16        4018        3969        3936
(PID.TID 0000.0001) ctrl-wet 14: global nWet C/S/W k=   17        4165        4116        4080
(PID.TID 0000.0001) ctrl-wet 14: global nWet C/S/W k=   18        4263        4214        4176
(PID.TID 0000.0001) ctrl-wet 14: global nWet C/S/W k=   19        4361        4312        4272
(PID.TID 0000.0001) ctrl-wet 14: global nWet C/S/W k=   20        4508        4459        4416
(PID.TID 0000.0001) ctrl-wet 14: global nWet C/S/W k=   21        4606        4557        4512
(PID.TID 0000.0001) ctrl-wet 14: global nWet C/S/W k=   22        4753        4704        4656
(PID.TID 0000.0001) ctrl-wet 14: global nWet C/S/W k=   23        4851        4802        4752
(PID.TID 0000.0001) ctrl-wet 14: global nWet C/S/W k=   24        4851        4802        4752
(PID.TID 0000.0001) ctrl-wet 14: global nWet C/S/W k=   25        4851        4802        4752
(PID.TID 0000.0001) ctrl-wet 14: global nWet C/S/W k=   26        4851        4802        4752
(PID.TID 0000.0001) ctrl-wet 14: global nWet C/S/W k=   27        4851        4802        4752
(PID.TID 0000.0001) ctrl-wet 14: global nWet C/S/W k=   28        4851        4802        4752
(PID.TID 0000.0001) ctrl-wet 14: global nWet C/S/W k=   29        4851        4802        4752
(PID.TID 0000.0001) ctrl-wet 14: global nWet C/S/W k=   30        4851        4802        4752
(PID.TID 0000.0001) ctrl-wet -------------------------------------------------
(PID.TID 0000.0001) ctrl-wet 17a:surface wet I =          576
(PID.TID 0000.0001) ctrl-wet 17b: global nWet I k=    1        4851
(PID.TID 0000.0001) ctrl-wet 17b: global nWet I k=    2           0
(PID.TID 0000.0001) ctrl-wet 17b: global nWet I k=    3           0
(PID.TID 0000.0001) ctrl-wet 17b: global nWet I k=    4           0
(PID.TID 0000.0001) ctrl-wet 17b: global nWet I k=    5           0
(PID.TID 0000.0001) ctrl-wet 17b: global nWet I k=    6           0
(PID.TID 0000.0001) ctrl-wet 17b: global nWet I k=    7        2989
(PID.TID 0000.0001) ctrl-wet 17b: global nWet I k=    8        3087
(PID.TID 0000.0001) ctrl-wet 17b: global nWet I k=    9        3185
(PID.TID 0000.0001) ctrl-wet 17b: global nWet I k=   10        3332
(PID.TID 0000.0001) ctrl-wet 17b: global nWet I k=   11        3430
(PID.TID 0000.0001) ctrl-wet 17b: global nWet I k=   12        3577
(PID.TID 0000.0001) ctrl-wet 17b: global nWet I k=   13        3675
(PID.TID 0000.0001) ctrl-wet 17b: global nWet I k=   14        3773
(PID.TID 0000.0001) ctrl-wet 17b: global nWet I k=   15        3920
(PID.TID 0000.0001) ctrl-wet 17b: global nWet I k=   16        4018
(PID.TID 0000.0001) ctrl-wet 17b: global nWet I k=   17        4165
(PID.TID 0000.0001) ctrl-wet 17b: global nWet I k=   18        4263
(PID.TID 0000.0001) ctrl-wet 17b: global nWet I k=   19        4361
(PID.TID 0000.0001) ctrl-wet 17b: global nWet I k=   20        4508
(PID.TID 0000.0001) ctrl-wet 17b: global nWet I k=   21        4606
(PID.TID 0000.0001) ctrl-wet 17b: global nWet I k=   22        4753
(PID.TID 0000.0001) ctrl-wet 17b: global nWet I k=   23        4851
(PID.TID 0000.0001) ctrl-wet 17b: global nWet I k=   24        4851
(PID.TID 0000.0001) ctrl-wet 17b: global nWet I k=   25        4851
(PID.TID 0000.0001) ctrl-wet 17b: global nWet I k=   26        4851
(PID.TID 0000.0001) ctrl-wet 17b: global nWet I k=   27        4851
(PID.TID 0000.0001) ctrl-wet 17b: global nWet I k=   28        4851
(PID.TID 0000.0001) ctrl-wet 17b: global nWet I k=   29        4851
(PID.TID 0000.0001) ctrl-wet 17b: global nWet I k=   30        4851
(PID.TID 0000.0001) ctrl-wet 17c: global SUM(K) shelfice         4851
(PID.TID 0000.0001) ctrl-wet -------------------------------------------------
(PID.TID 0000.0001) ctrl_init_wet: no. of control variables:            5
(PID.TID 0000.0001) ctrl_init_wet: control vector length:          311052
(PID.TID 0000.0001) 
(PID.TID 0000.0001) // =======================================================
(PID.TID 0000.0001) // control vector configuration  >>> START <<<
(PID.TID 0000.0001) // =======================================================
(PID.TID 0000.0001) 
(PID.TID 0000.0001)  Total number of ocean points per tile:
(PID.TID 0000.0001)  --------------------------------------
(PID.TID 0000.0001)  sNx*sNy*Nr =    18750
(PID.TID 0000.0001) 
(PID.TID 0000.0001)  Number of ocean points per tile:
(PID.TID 0000.0001)  --------------------------------
(PID.TID 0000.0001)  bi,bj,#(c/s/w): 001 001    7200    6792    6900
(PID.TID 0000.0001)  bi,bj,#(c/s/w): 002 001    7500    7075    7500
(PID.TID 0000.0001)  bi,bj,#(c/s/w): 001 002   13200   13032   12650
(PID.TID 0000.0001)  bi,bj,#(c/s/w): 002 002   13750   13575   13750
(PID.TID 0000.0001)  bi,bj,#(c/s/w): 001 003   14400   14400   13800
(PID.TID 0000.0001)  bi,bj,#(c/s/w): 002 003   15000   15000   15000
(PID.TID 0000.0001)  bi,bj,#(c/s/w): 001 004   14400   14400   13800
(PID.TID 0000.0001)  bi,bj,#(c/s/w): 002 004   15000   15000   15000
(PID.TID 0000.0001) 
(PID.TID 0000.0001)  -> 2d control, genarr2d no.  1 is in use
(PID.TID 0000.0001)       file       = xx_shicoefft
(PID.TID 0000.0001)       ncvartype  = Arr2D
(PID.TID 0000.0001)       index      =     1  (use this for pkg/grdchk)
(PID.TID 0000.0001)       ncvarindex =     1
(PID.TID 0000.0001)       weight     = ones_64b.bin
(PID.TID 0000.0001) 
(PID.TID 0000.0001)  -> 3d control, genarr3d no.  1 is in use
(PID.TID 0000.0001)       file       = xx_theta
(PID.TID 0000.0001)       ncvartype  = Arr3D
(PID.TID 0000.0001)       index      =     2  (use this for pkg/grdchk)
(PID.TID 0000.0001)       ncvarindex =     1
(PID.TID 0000.0001)       weight     = ones_64b.bin
(PID.TID 0000.0001) 
(PID.TID 0000.0001)  -> 3d control, genarr3d no.  2 is in use
(PID.TID 0000.0001)       file       = xx_salt
(PID.TID 0000.0001)       ncvartype  = Arr3D
(PID.TID 0000.0001)       index      =     3  (use this for pkg/grdchk)
(PID.TID 0000.0001)       ncvarindex =     2
(PID.TID 0000.0001)       weight     = ones_64b.bin
(PID.TID 0000.0001) 
(PID.TID 0000.0001)  -> 3d control, genarr3d no.  3 is in use
(PID.TID 0000.0001)       file       = xx_diffkr
(PID.TID 0000.0001)       ncvartype  = Arr3D
(PID.TID 0000.0001)       index      =     4  (use this for pkg/grdchk)
(PID.TID 0000.0001)       ncvarindex =     3
(PID.TID 0000.0001)       weight     = ones_64b.bin
(PID.TID 0000.0001) 
(PID.TID 0000.0001)  -> time variable 2d control, gentim2d no.  1 is in use
(PID.TID 0000.0001)       file       = xx_shifwflx
(PID.TID 0000.0001)       ncvartype  = Tim2D
(PID.TID 0000.0001)       index      =     5  (use this for pkg/grdchk)
(PID.TID 0000.0001)       ncvarindex =     1
(PID.TID 0000.0001)       weight     = ones_64b.bin
(PID.TID 0000.0001) 
(PID.TID 0000.0001) // =======================================================
(PID.TID 0000.0001) // control vector configuration  >>> END <<<
(PID.TID 0000.0001) // =======================================================
(PID.TID 0000.0001) 
(PID.TID 0000.0001) %MON fCori_max                    =  -1.3709057042516E-04
(PID.TID 0000.0001) %MON fCori_min                    =  -1.4360464034757E-04
(PID.TID 0000.0001) %MON fCori_mean                   =  -1.4069429304698E-04
(PID.TID 0000.0001) %MON fCori_sd                     =   1.9069739624987E-06
(PID.TID 0000.0001) %MON fCoriG_max                   =  -1.3713394327439E-04
(PID.TID 0000.0001) %MON fCoriG_min                   =  -1.4362679550910E-04
(PID.TID 0000.0001) %MON fCoriG_mean                  =  -1.4072713798624E-04
(PID.TID 0000.0001) %MON fCoriG_sd                    =   1.9008093726821E-06
(PID.TID 0000.0001) %MON fCoriCos_max                 =   4.9761447480159E-05
(PID.TID 0000.0001) %MON fCoriCos_min                 =   2.5450607565678E-05
(PID.TID 0000.0001) %MON fCoriCos_mean                =   3.7698922201606E-05
(PID.TID 0000.0001) %MON fCoriCos_sd                  =   7.0920218535055E-06
(PID.TID 0000.0001) INI_CG2D: CG2D normalisation factor =  1.0404366262810520E-03
(PID.TID 0000.0001) 
(PID.TID 0000.0001) // =======================================================
(PID.TID 0000.0001) // Model configuration
(PID.TID 0000.0001) // =======================================================
(PID.TID 0000.0001) //
(PID.TID 0000.0001) // "Physical" paramters ( PARM01 in namelist )
(PID.TID 0000.0001) //
(PID.TID 0000.0001) buoyancyRelation = /* Type of relation to get Buoyancy */
(PID.TID 0000.0001)               'OCEANIC'
(PID.TID 0000.0001)     ;
(PID.TID 0000.0001) fluidIsAir   =  /* fluid major constituent is Air */
(PID.TID 0000.0001)                   F
(PID.TID 0000.0001)     ;
(PID.TID 0000.0001) fluidIsWater =  /* fluid major constituent is Water */
(PID.TID 0000.0001)                   T
(PID.TID 0000.0001)     ;
(PID.TID 0000.0001) usingPCoords =  /* use p (or p*) vertical coordinate */
(PID.TID 0000.0001)                   F
(PID.TID 0000.0001)     ;
(PID.TID 0000.0001) usingZCoords =  /* use z (or z*) vertical coordinate */
(PID.TID 0000.0001)                   T
(PID.TID 0000.0001)     ;
(PID.TID 0000.0001) tRef =   /* Reference temperature profile ( oC or K ) */
(PID.TID 0000.0001)    30 @ -1.900000000000000E+00              /* K =  1: 30 */
(PID.TID 0000.0001)     ;
(PID.TID 0000.0001) sRef =   /* Reference salinity profile ( g/kg ) */
(PID.TID 0000.0001)    30 @  3.440000000000000E+01              /* K =  1: 30 */
(PID.TID 0000.0001)     ;
(PID.TID 0000.0001) rhoRef =   /* Density vertical profile from (Ref,sRef)( kg/m^3 ) */
(PID.TID 0000.0001)                 1.027768983359415E+03,      /* K =  1 */
(PID.TID 0000.0001)                 1.027915190977028E+03,      /* K =  2 */
(PID.TID 0000.0001)                 1.028061298013372E+03,      /* K =  3 */
(PID.TID 0000.0001)                 1.028207304511914E+03,      /* K =  4 */
(PID.TID 0000.0001)                 1.028353210516147E+03,      /* K =  5 */
(PID.TID 0000.0001)                 1.028499016069585E+03,      /* K =  6 */
(PID.TID 0000.0001)                 1.028644721215765E+03,      /* K =  7 */
(PID.TID 0000.0001)                 1.028790325998246E+03,      /* K =  8 */
(PID.TID 0000.0001)                 1.028935830460613E+03,      /* K =  9 */
(PID.TID 0000.0001)                 1.029081234646470E+03,      /* K = 10 */
(PID.TID 0000.0001)                 1.029226538599445E+03,      /* K = 11 */
(PID.TID 0000.0001)                 1.029371742363190E+03,      /* K = 12 */
(PID.TID 0000.0001)                 1.029516845981377E+03,      /* K = 13 */
(PID.TID 0000.0001)                 1.029661849497701E+03,      /* K = 14 */
(PID.TID 0000.0001)                 1.029806752955880E+03,      /* K = 15 */
(PID.TID 0000.0001)                 1.029951556399652E+03,      /* K = 16 */
(PID.TID 0000.0001)                 1.030096259872781E+03,      /* K = 17 */
(PID.TID 0000.0001)                 1.030240863419048E+03,      /* K = 18 */
(PID.TID 0000.0001)                 1.030385367082259E+03,      /* K = 19 */
(PID.TID 0000.0001)                 1.030529770906240E+03,      /* K = 20 */
(PID.TID 0000.0001)                 1.030674074934840E+03,      /* K = 21 */
(PID.TID 0000.0001)                 1.030818279211929E+03,      /* K = 22 */
(PID.TID 0000.0001)                 1.030962383781397E+03,      /* K = 23 */
(PID.TID 0000.0001)                 1.031106388687158E+03,      /* K = 24 */
(PID.TID 0000.0001)                 1.031250293973144E+03,      /* K = 25 */
(PID.TID 0000.0001)                 1.031394099683310E+03,      /* K = 26 */
(PID.TID 0000.0001)                 1.031537805861633E+03,      /* K = 27 */
(PID.TID 0000.0001)                 1.031681412552109E+03,      /* K = 28 */
(PID.TID 0000.0001)                 1.031824919798755E+03,      /* K = 29 */
(PID.TID 0000.0001)                 1.031968327645610E+03       /* K = 30 */
(PID.TID 0000.0001)     ;
(PID.TID 0000.0001) dBdrRef = /* Vertical grad. of reference buoyancy [(m/s/r)^2] */
(PID.TID 0000.0001)    30 @  0.000000000000000E+00              /* K =  1: 30 */
(PID.TID 0000.0001)     ;
(PID.TID 0000.0001) useStrainTensionVisc= /* Use StrainTension Form of Viscous Operator */
(PID.TID 0000.0001)                   F
(PID.TID 0000.0001)     ;
(PID.TID 0000.0001) useVariableVisc = /* Use variable horizontal viscosity */
(PID.TID 0000.0001)                   F
(PID.TID 0000.0001)     ;
(PID.TID 0000.0001) useHarmonicVisc = /* Use harmonic horizontal viscosity */
(PID.TID 0000.0001)                   T
(PID.TID 0000.0001)     ;
(PID.TID 0000.0001) useBiharmonicVisc= /* Use biharmonic horiz.  viscosity */
(PID.TID 0000.0001)                   F
(PID.TID 0000.0001)     ;
(PID.TID 0000.0001) useSmag3D = /* Use isotropic 3-D Smagorinsky viscosity */
(PID.TID 0000.0001)                   F
(PID.TID 0000.0001)     ;
(PID.TID 0000.0001) viscAh  =   /* Lateral harmonic viscosity ( m^2/s ) */
(PID.TID 0000.0001)                 6.000000000000000E+02
(PID.TID 0000.0001)     ;
(PID.TID 0000.0001) viscA4  =   /* Lateral biharmonic viscosity ( m^4/s ) */
(PID.TID 0000.0001)                 0.000000000000000E+00
(PID.TID 0000.0001)     ;
(PID.TID 0000.0001) no_slip_sides =  /* Viscous BCs: No-slip sides */
(PID.TID 0000.0001)                   F
(PID.TID 0000.0001)     ;
(PID.TID 0000.0001) sideDragFactor = /* side-drag scaling factor (non-dim) */
(PID.TID 0000.0001)                 2.000000000000000E+00
(PID.TID 0000.0001)     ;
(PID.TID 0000.0001) viscArNr = /* vertical profile of vertical viscosity ( m^2/s )*/
(PID.TID 0000.0001)    30 @  1.000000000000000E-03              /* K =  1: 30 */
(PID.TID 0000.0001)     ;
(PID.TID 0000.0001) no_slip_bottom =  /* Viscous BCs: No-slip bottom */
(PID.TID 0000.0001)                   F
(PID.TID 0000.0001)     ;
(PID.TID 0000.0001) bottomVisc_pCell = /* Partial-cell in bottom Visc. BC */
(PID.TID 0000.0001)                   F
(PID.TID 0000.0001)     ;
(PID.TID 0000.0001) bottomDragLinear = /* linear bottom-drag coefficient ( m/s ) */
(PID.TID 0000.0001)                 0.000000000000000E+00
(PID.TID 0000.0001)     ;
(PID.TID 0000.0001) bottomDragQuadratic = /* quadratic bottom-drag coefficient (-) */
(PID.TID 0000.0001)                 2.500000000000000E-03
(PID.TID 0000.0001)     ;
(PID.TID 0000.0001) selectBotDragQuadr = /* select quadratic bottom drag options */
(PID.TID 0000.0001)                       0
(PID.TID 0000.0001)     ;
(PID.TID 0000.0001) diffKhT =   /* Laplacian diffusion of heat laterally ( m^2/s ) */
(PID.TID 0000.0001)                 6.000000000000000E+01
(PID.TID 0000.0001)     ;
(PID.TID 0000.0001) diffK4T =   /* Biharmonic diffusion of heat laterally ( m^4/s ) */
(PID.TID 0000.0001)                 0.000000000000000E+00
(PID.TID 0000.0001)     ;
(PID.TID 0000.0001) diffKhS =   /* Laplacian diffusion of salt laterally ( m^2/s ) */
(PID.TID 0000.0001)                 6.000000000000000E+01
(PID.TID 0000.0001)     ;
(PID.TID 0000.0001) diffK4S =   /* Biharmonic diffusion of salt laterally ( m^4/s ) */
(PID.TID 0000.0001)                 0.000000000000000E+00
(PID.TID 0000.0001)     ;
(PID.TID 0000.0001) diffKrNrT = /* vertical profile of vertical diffusion of Temp ( m^2/s )*/
(PID.TID 0000.0001)    30 @  0.000000000000000E+00              /* K =  1: 30 */
(PID.TID 0000.0001)     ;
(PID.TID 0000.0001) diffKrNrS = /* vertical profile of vertical diffusion of Salt ( m^2/s )*/
(PID.TID 0000.0001)    30 @  3.000000000000000E-05              /* K =  1: 30 */
(PID.TID 0000.0001)     ;
(PID.TID 0000.0001) diffKrBL79surf = /* Surface diffusion for Bryan and Lewis 79 ( m^2/s ) */
(PID.TID 0000.0001)                 0.000000000000000E+00
(PID.TID 0000.0001)     ;
(PID.TID 0000.0001) diffKrBL79deep = /* Deep diffusion for Bryan and Lewis 1979 ( m^2/s ) */
(PID.TID 0000.0001)                 0.000000000000000E+00
(PID.TID 0000.0001)     ;
(PID.TID 0000.0001) diffKrBL79scl = /* Depth scale for Bryan and Lewis 1979 ( m ) */
(PID.TID 0000.0001)                 2.000000000000000E+02
(PID.TID 0000.0001)     ;
(PID.TID 0000.0001) diffKrBL79Ho = /* Turning depth for Bryan and Lewis 1979 ( m ) */
(PID.TID 0000.0001)                -2.000000000000000E+03
(PID.TID 0000.0001)     ;
(PID.TID 0000.0001) ivdc_kappa = /* Implicit Vertical Diffusivity for Convection ( m^2/s) */
(PID.TID 0000.0001)                 0.000000000000000E+00
(PID.TID 0000.0001)     ;
(PID.TID 0000.0001) hMixCriteria=  /* Criteria for mixed-layer diagnostic */
(PID.TID 0000.0001)                -8.000000000000000E-01
(PID.TID 0000.0001)     ;
(PID.TID 0000.0001) dRhoSmall =  /* Parameter for mixed-layer diagnostic */
(PID.TID 0000.0001)                 1.000000000000000E-06
(PID.TID 0000.0001)     ;
(PID.TID 0000.0001) hMixSmooth=  /* Smoothing parameter for mixed-layer diagnostic */
(PID.TID 0000.0001)                 0.000000000000000E+00
(PID.TID 0000.0001)     ;
(PID.TID 0000.0001) eosType =  /* Type of Equation of State */
(PID.TID 0000.0001)               'JMD95Z'
(PID.TID 0000.0001)     ;
(PID.TID 0000.0001) eosRefP0 = /* Reference atmospheric pressure for EOS ( Pa ) */
(PID.TID 0000.0001)                 1.013250000000000E+05
(PID.TID 0000.0001)     ;
(PID.TID 0000.0001) selectP_inEOS_Zc = /* select pressure to use in EOS (0,1,2,3) */
(PID.TID 0000.0001)                       0
(PID.TID 0000.0001)     0= -g*rhoConst*z ; 1= pRef (from tRef,sRef); 2= Hyd P ; 3= Hyd+NH P
(PID.TID 0000.0001)     ;
(PID.TID 0000.0001) surf_pRef = /* Surface reference pressure ( Pa ) */
(PID.TID 0000.0001)                 1.013250000000000E+05
(PID.TID 0000.0001)     ;
(PID.TID 0000.0001) HeatCapacity_Cp =  /* Specific heat capacity ( J/kg/K ) */
(PID.TID 0000.0001)                 3.974000000000000E+03
(PID.TID 0000.0001)     ;
(PID.TID 0000.0001) celsius2K = /* 0 degree Celsius converted to Kelvin ( K ) */
(PID.TID 0000.0001)                 2.731500000000000E+02
(PID.TID 0000.0001)     ;
(PID.TID 0000.0001) rhoConst  = /* Reference density (Boussinesq)  ( kg/m^3 ) */
(PID.TID 0000.0001)                 1.030000000000000E+03
(PID.TID 0000.0001)     ;
(PID.TID 0000.0001) rhoFacC = /* normalized Reference density @ cell-Center (-) */
(PID.TID 0000.0001)    30 @  1.000000000000000E+00              /* K =  1: 30 */
(PID.TID 0000.0001)     ;
(PID.TID 0000.0001) rhoFacF = /* normalized Reference density @ W-Interface (-) */
(PID.TID 0000.0001)    31 @  1.000000000000000E+00              /* K =  1: 31 */
(PID.TID 0000.0001)     ;
(PID.TID 0000.0001) rhoConstFresh = /* Fresh-water reference density ( kg/m^3 ) */
(PID.TID 0000.0001)                 1.030000000000000E+03
(PID.TID 0000.0001)     ;
(PID.TID 0000.0001) gravity =   /* Gravitational acceleration ( m/s^2 ) */
(PID.TID 0000.0001)                 9.810000000000000E+00
(PID.TID 0000.0001)     ;
(PID.TID 0000.0001) gBaro =   /* Barotropic gravity ( m/s^2 ) */
(PID.TID 0000.0001)                 9.810000000000000E+00
(PID.TID 0000.0001)     ;
(PID.TID 0000.0001) gravFacC = /* gravity factor (vs surf.) @ cell-Center (-) */
(PID.TID 0000.0001)    30 @  1.000000000000000E+00              /* K =  1: 30 */
(PID.TID 0000.0001)     ;
(PID.TID 0000.0001) gravFacF = /* gravity factor (vs surf.) @ W-Interface (-) */
(PID.TID 0000.0001)    31 @  1.000000000000000E+00              /* K =  1: 31 */
(PID.TID 0000.0001)     ;
(PID.TID 0000.0001) rotationPeriod =   /* Rotation Period ( s ) */
(PID.TID 0000.0001)                 8.616400000000000E+04
(PID.TID 0000.0001)     ;
(PID.TID 0000.0001) omega =   /* Angular velocity ( rad/s ) */
(PID.TID 0000.0001)                 7.292123516990375E-05
(PID.TID 0000.0001)     ;
(PID.TID 0000.0001) f0 =   /* Reference coriolis parameter ( 1/s ) */
(PID.TID 0000.0001)                 1.000000000000000E-04
(PID.TID 0000.0001)     ;
(PID.TID 0000.0001) beta =   /* Beta ( 1/(m.s) ) */
(PID.TID 0000.0001)                 9.999999999999999E-12
(PID.TID 0000.0001)     ;
(PID.TID 0000.0001) fPrime =   /* Second coriolis parameter ( 1/s ) */
(PID.TID 0000.0001)                 0.000000000000000E+00
(PID.TID 0000.0001)     ;
(PID.TID 0000.0001) rigidLid =   /* Rigid lid on/off flag */
(PID.TID 0000.0001)                   F
(PID.TID 0000.0001)     ;
(PID.TID 0000.0001) implicitFreeSurface =   /* Implicit free surface on/off flag */
(PID.TID 0000.0001)                   T
(PID.TID 0000.0001)     ;
(PID.TID 0000.0001) freeSurfFac =   /* Implicit free surface factor */
(PID.TID 0000.0001)                 1.000000000000000E+00
(PID.TID 0000.0001)     ;
(PID.TID 0000.0001) implicSurfPress =  /* Surface Pressure implicit factor (0-1) */
(PID.TID 0000.0001)                 1.000000000000000E+00
(PID.TID 0000.0001)     ;
(PID.TID 0000.0001) implicDiv2DFlow =  /* Barot. Flow Div. implicit factor (0-1) */
(PID.TID 0000.0001)                 1.000000000000000E+00
(PID.TID 0000.0001)     ;
(PID.TID 0000.0001) uniformLin_PhiSurf = /* use uniform Bo_surf on/off flag */
(PID.TID 0000.0001)                   T
(PID.TID 0000.0001)     ;
(PID.TID 0000.0001) uniformFreeSurfLev = /* free-surface level-index is uniform */
(PID.TID 0000.0001)                   F
(PID.TID 0000.0001)     ;
(PID.TID 0000.0001) sIceLoadFac =  /* scale factor for sIceLoad (0-1) */
(PID.TID 0000.0001)                 1.000000000000000E+00
(PID.TID 0000.0001)     ;
(PID.TID 0000.0001) hFacMin =   /* minimum partial cell factor (hFac) */
(PID.TID 0000.0001)                 1.000000000000000E-01
(PID.TID 0000.0001)     ;
(PID.TID 0000.0001) hFacMinDr = /* minimum partial cell thickness ( m) */
(PID.TID 0000.0001)                 0.000000000000000E+00
(PID.TID 0000.0001)     ;
(PID.TID 0000.0001) exactConserv =  /* Exact Volume Conservation on/off flag */
(PID.TID 0000.0001)                   T
(PID.TID 0000.0001)     ;
(PID.TID 0000.0001) linFSConserveTr = /* Tracer correction for Lin Free Surface on/off flag */
(PID.TID 0000.0001)                   F
(PID.TID 0000.0001)     ;
(PID.TID 0000.0001) nonlinFreeSurf = /* Non-linear Free Surf. options (-1,0,1,2,3)*/
(PID.TID 0000.0001)                       2
(PID.TID 0000.0001)      -1,0= Off ; 1,2,3= On, 2=+rescale gU,gV, 3=+update cg2d solv.
(PID.TID 0000.0001)     ;
(PID.TID 0000.0001) hFacInf =   /* lower threshold for hFac (nonlinFreeSurf only)*/
(PID.TID 0000.0001)                 5.000000000000000E-02
(PID.TID 0000.0001)     ;
(PID.TID 0000.0001) hFacSup =   /* upper threshold for hFac (nonlinFreeSurf only)*/
(PID.TID 0000.0001)                 2.000000000000000E+00
(PID.TID 0000.0001)     ;
(PID.TID 0000.0001) select_rStar = /* r* Vertical coord. options (=0 r coord.; >0 uses r*)*/
(PID.TID 0000.0001)                       0
(PID.TID 0000.0001)     ;
(PID.TID 0000.0001) useRealFreshWaterFlux = /* Real Fresh Water Flux on/off flag*/
(PID.TID 0000.0001)                   F
(PID.TID 0000.0001)     ;
(PID.TID 0000.0001) temp_EvPrRn = /* Temp. of Evap/Prec/R (UNSET=use local T)(oC)*/
(PID.TID 0000.0001)                 1.234567000000000E+05
(PID.TID 0000.0001)     ;
(PID.TID 0000.0001) salt_EvPrRn = /* Salin. of Evap/Prec/R (UNSET=use local S)(g/kg)*/
(PID.TID 0000.0001)                 0.000000000000000E+00
(PID.TID 0000.0001)     ;
(PID.TID 0000.0001) selectAddFluid = /* option for mass source/sink of fluid (=0: off) */
(PID.TID 0000.0001)                       0
(PID.TID 0000.0001)     ;
(PID.TID 0000.0001) temp_addMass = /* Temp. of addMass array (UNSET=use local T)(oC)*/
(PID.TID 0000.0001)                 1.234567000000000E+05
(PID.TID 0000.0001)     ;
(PID.TID 0000.0001) salt_addMass = /* Salin. of addMass array (UNSET=use local S)(g/kg)*/
(PID.TID 0000.0001)                 0.000000000000000E+00
(PID.TID 0000.0001)     ;
(PID.TID 0000.0001) convertFW2Salt = /* convert F.W. Flux to Salt Flux (-1=use local S)(g/kg)*/
(PID.TID 0000.0001)                 3.340000000000000E+01
(PID.TID 0000.0001)     ;
(PID.TID 0000.0001) use3Dsolver = /* use 3-D pressure solver on/off flag */
(PID.TID 0000.0001)                   F
(PID.TID 0000.0001)     ;
(PID.TID 0000.0001) nonHydrostatic =  /* Non-Hydrostatic on/off flag */
(PID.TID 0000.0001)                   F
(PID.TID 0000.0001)     ;
(PID.TID 0000.0001) nh_Am2 = /* Non-Hydrostatic terms scaling factor */
(PID.TID 0000.0001)                 1.000000000000000E+00
(PID.TID 0000.0001)     ;
(PID.TID 0000.0001) implicitNHPress = /* Non-Hyd Pressure implicit factor (0-1)*/
(PID.TID 0000.0001)                 1.000000000000000E+00
(PID.TID 0000.0001)     ;
(PID.TID 0000.0001) selectNHfreeSurf = /* Non-Hyd (free-)Surface option */
(PID.TID 0000.0001)                       0
(PID.TID 0000.0001)     ;
(PID.TID 0000.0001) quasiHydrostatic = /* Quasi-Hydrostatic on/off flag */
(PID.TID 0000.0001)                   F
(PID.TID 0000.0001)     ;
(PID.TID 0000.0001) calc_wVelocity = /* vertical velocity calculation on/off flag */
(PID.TID 0000.0001)                   T
(PID.TID 0000.0001)     ;
(PID.TID 0000.0001) momStepping =  /* Momentum equation on/off flag */
(PID.TID 0000.0001)                   T
(PID.TID 0000.0001)     ;
(PID.TID 0000.0001) vectorInvariantMomentum= /* Vector-Invariant Momentum on/off */
(PID.TID 0000.0001)                   T
(PID.TID 0000.0001)     ;
(PID.TID 0000.0001) momAdvection =  /* Momentum advection on/off flag */
(PID.TID 0000.0001)                   T
(PID.TID 0000.0001)     ;
(PID.TID 0000.0001) momViscosity =  /* Momentum viscosity on/off flag */
(PID.TID 0000.0001)                   T
(PID.TID 0000.0001)     ;
(PID.TID 0000.0001) momImplVertAdv= /* Momentum implicit vert. advection on/off*/
(PID.TID 0000.0001)                   F
(PID.TID 0000.0001)     ;
(PID.TID 0000.0001) implicitViscosity = /* Implicit viscosity on/off flag */
(PID.TID 0000.0001)                   F
(PID.TID 0000.0001)     ;
(PID.TID 0000.0001) selectImplicitDrag= /* Implicit bot Drag options (0,1,2)*/
(PID.TID 0000.0001)                       0
(PID.TID 0000.0001)     0= Expl. ; 1= Impl. on provis. Vel ; 2= Fully Impl (with surf.P)
(PID.TID 0000.0001)     ;
(PID.TID 0000.0001) selectMetricTerms= /* Metric-Terms on/off flag (=0/1) */
(PID.TID 0000.0001)                       1
(PID.TID 0000.0001)     ;
(PID.TID 0000.0001) useNHMTerms = /* Non-Hydrostatic Metric-Terms on/off */
(PID.TID 0000.0001)                   F
(PID.TID 0000.0001)     ;
(PID.TID 0000.0001) selectCoriMap = /* Coriolis Map options (0,1,2,3)*/
(PID.TID 0000.0001)                       2
(PID.TID 0000.0001)     0= f-Plane ; 1= Beta-Plane ; 2= Spherical ; 3= read from file
(PID.TID 0000.0001)     ;
(PID.TID 0000.0001) select3dCoriScheme= /* 3-D Coriolis on/off flag (=0/1) */
(PID.TID 0000.0001)                       0
(PID.TID 0000.0001)     ;
(PID.TID 0000.0001) useCoriolis =  /* Coriolis on/off flag */
(PID.TID 0000.0001)                   T
(PID.TID 0000.0001)     ;
(PID.TID 0000.0001) useCDscheme =  /* CD scheme on/off flag */
(PID.TID 0000.0001)                   T
(PID.TID 0000.0001)     ;
(PID.TID 0000.0001) selectCoriScheme= /* Scheme selector for Coriolis-Term */
(PID.TID 0000.0001)                       0
(PID.TID 0000.0001)    = 0 : original discretization (simple averaging, no hFac)
(PID.TID 0000.0001)    = 1 : Wet-point averaging (Jamar & Ozer 1986)
(PID.TID 0000.0001)    = 2 : hFac weighted average (Angular Mom. conserving)
(PID.TID 0000.0001)    = 3 : energy conserving scheme using hFac weighted average
(PID.TID 0000.0001)     ;
(PID.TID 0000.0001) useAbsVorticity= /* V.I Works with f+zeta in Coriolis */
(PID.TID 0000.0001)                   F
(PID.TID 0000.0001)     ;
(PID.TID 0000.0001) selectVortScheme= /* V.I Scheme selector for Vorticity-Term */
(PID.TID 0000.0001)                       1
(PID.TID 0000.0001)    = 0 : enstrophy (Shallow-Water Eq.) conserving scheme by Sadourny, JAS 75
(PID.TID 0000.0001)    = 1 : same as 0 with modified hFac
(PID.TID 0000.0001)    = 2 : energy conserving scheme (used by Sadourny in JAS 75 paper)
(PID.TID 0000.0001)    = 3 : energy (general) and enstrophy (2D, nonDiv.) conserving scheme
(PID.TID 0000.0001)          from Sadourny (Burridge & Haseler, ECMWF Rep.4, 1977)
(PID.TID 0000.0001)     ;
(PID.TID 0000.0001) useJamartMomAdv= /* V.I Non-linear terms Jamart flag */
(PID.TID 0000.0001)                   F
(PID.TID 0000.0001)     ;
(PID.TID 0000.0001) upwindVorticity= /* V.I Upwind bias vorticity flag */
(PID.TID 0000.0001)                   F
(PID.TID 0000.0001)     ;
(PID.TID 0000.0001) highOrderVorticity= /* V.I High order vort. advect. flag */
(PID.TID 0000.0001)                   F
(PID.TID 0000.0001)     ;
(PID.TID 0000.0001) upwindShear= /* V.I Upwind vertical Shear advection flag */
(PID.TID 0000.0001)                   F
(PID.TID 0000.0001)     ;
(PID.TID 0000.0001) selectKEscheme= /* V.I Kinetic Energy scheme selector */
(PID.TID 0000.0001)                       0
(PID.TID 0000.0001)     ;
(PID.TID 0000.0001) momForcing =  /* Momentum forcing on/off flag */
(PID.TID 0000.0001)                   T
(PID.TID 0000.0001)     ;
(PID.TID 0000.0001) momTidalForcing = /* Momentum Tidal forcing on/off flag */
(PID.TID 0000.0001)                   T
(PID.TID 0000.0001)     ;
(PID.TID 0000.0001) momPressureForcing =  /* Momentum pressure term on/off flag */
(PID.TID 0000.0001)                   T
(PID.TID 0000.0001)     ;
(PID.TID 0000.0001) implicitIntGravWave= /* Implicit Internal Gravity Wave flag */
(PID.TID 0000.0001)                   F
(PID.TID 0000.0001)     ;
(PID.TID 0000.0001) staggerTimeStep =    /* Stagger time stepping on/off flag */
(PID.TID 0000.0001)                   T
(PID.TID 0000.0001)     ;
(PID.TID 0000.0001) doResetHFactors = /* reset thickness factors @ each time-step */
(PID.TID 0000.0001)                   T
(PID.TID 0000.0001)     ;
(PID.TID 0000.0001) multiDimAdvection =  /* enable/disable Multi-Dim Advection */
(PID.TID 0000.0001)                   T
(PID.TID 0000.0001)     ;
(PID.TID 0000.0001) useMultiDimAdvec =   /* Multi-Dim Advection is/is-not used */
(PID.TID 0000.0001)                   T
(PID.TID 0000.0001)     ;
(PID.TID 0000.0001) implicitDiffusion = /* Implicit Diffusion on/off flag */
(PID.TID 0000.0001)                   T
(PID.TID 0000.0001)     ;
(PID.TID 0000.0001) tempStepping =  /* Temperature equation on/off flag */
(PID.TID 0000.0001)                   T
(PID.TID 0000.0001)     ;
(PID.TID 0000.0001) tempAdvection = /* Temperature advection on/off flag */
(PID.TID 0000.0001)                   T
(PID.TID 0000.0001)     ;
(PID.TID 0000.0001) tempImplVertAdv = /* Temp. implicit vert. advection on/off */
(PID.TID 0000.0001)                   F
(PID.TID 0000.0001)     ;
(PID.TID 0000.0001) tempForcing  =  /* Temperature forcing on/off flag */
(PID.TID 0000.0001)                   T
(PID.TID 0000.0001)     ;
(PID.TID 0000.0001) doThetaClimRelax = /* apply SST relaxation on/off flag */
(PID.TID 0000.0001)                   F
(PID.TID 0000.0001)     ;
(PID.TID 0000.0001) tempIsActiveTr = /* Temp. is a dynamically Active Tracer */
(PID.TID 0000.0001)                   T
(PID.TID 0000.0001)     ;
(PID.TID 0000.0001) saltStepping =  /* Salinity equation on/off flag */
(PID.TID 0000.0001)                   T
(PID.TID 0000.0001)     ;
(PID.TID 0000.0001) saltAdvection = /* Salinity advection on/off flag */
(PID.TID 0000.0001)                   T
(PID.TID 0000.0001)     ;
(PID.TID 0000.0001) saltImplVertAdv = /* Sali. implicit vert. advection on/off */
(PID.TID 0000.0001)                   F
(PID.TID 0000.0001)     ;
(PID.TID 0000.0001) saltForcing  =  /* Salinity forcing on/off flag */
(PID.TID 0000.0001)                   T
(PID.TID 0000.0001)     ;
(PID.TID 0000.0001) doSaltClimRelax = /* apply SSS relaxation on/off flag */
(PID.TID 0000.0001)                   F
(PID.TID 0000.0001)     ;
(PID.TID 0000.0001) saltIsActiveTr = /* Salt  is a dynamically Active Tracer */
(PID.TID 0000.0001)                   T
(PID.TID 0000.0001)     ;
(PID.TID 0000.0001)  readBinaryPrec = /* Precision used for reading binary files */
(PID.TID 0000.0001)                      64
(PID.TID 0000.0001)     ;
(PID.TID 0000.0001) writeBinaryPrec = /* Precision used for writing binary files */
(PID.TID 0000.0001)                      32
(PID.TID 0000.0001)     ;
(PID.TID 0000.0001)  rwSuffixType =   /* select format of mds file suffix */
(PID.TID 0000.0001)                       0
(PID.TID 0000.0001)    = 0 : myIter (I10.10) ;   = 1 : 100*myTime (100th sec) ;
(PID.TID 0000.0001)    = 2 : myTime (seconds);   = 3 : myTime/360 (10th of hr);
(PID.TID 0000.0001)    = 4 : myTime/3600 (hours)
(PID.TID 0000.0001)     ;
(PID.TID 0000.0001)  globalFiles = /* write "global" (=not per tile) files */
(PID.TID 0000.0001)                   F
(PID.TID 0000.0001)     ;
(PID.TID 0000.0001)  useSingleCpuIO = /* only master MPI process does I/O */
(PID.TID 0000.0001)                   T
(PID.TID 0000.0001)     ;
(PID.TID 0000.0001)  useSingleCpuInput = /* only master process reads input */
(PID.TID 0000.0001)                   T
(PID.TID 0000.0001)     ;
(PID.TID 0000.0001) /* debLev[*]  : level of debug & auxiliary message printing */
(PID.TID 0000.0001) debLevZero =  0 ; /* level of disabled aux. msg printing */
(PID.TID 0000.0001)    debLevA =  1 ; /* level of minimum  aux. msg printing */
(PID.TID 0000.0001)    debLevB =  2 ; /* level of low aux. print (report read-file opening)*/
(PID.TID 0000.0001)    debLevC =  3 ; /* level of moderate debug prt (most pkgs debug msg) */
(PID.TID 0000.0001)    debLevD =  4 ; /* level of enhanced debug prt (add DEBUG_STATS prt) */
(PID.TID 0000.0001)    debLevE =  5 ; /* level of extensive debug printing */
(PID.TID 0000.0001) debugLevel =  /* select debug printing level */
(PID.TID 0000.0001)                       1
(PID.TID 0000.0001)     ;
(PID.TID 0000.0001)  plotLevel =  /* select PLOT_FIELD printing level */
(PID.TID 0000.0001)                       1
(PID.TID 0000.0001)     ;
(PID.TID 0000.0001) //
(PID.TID 0000.0001) // Elliptic solver(s) paramters ( PARM02 in namelist )
(PID.TID 0000.0001) //
(PID.TID 0000.0001) cg2dMaxIters =   /* Upper limit on 2d con. grad iterations  */
(PID.TID 0000.0001)                    1000
(PID.TID 0000.0001)     ;
(PID.TID 0000.0001) cg2dMinItersNSA =   /* Minimum number of iterations of 2d con. grad solver  */
(PID.TID 0000.0001)                       0
(PID.TID 0000.0001)     ;
(PID.TID 0000.0001) cg2dUseMinResSol= /* use cg2d last-iter(=0) / min-resid.(=1) solution */
(PID.TID 0000.0001)                       0
(PID.TID 0000.0001)     ;
(PID.TID 0000.0001) cg2dTargetResidual =   /* 2d con. grad target residual  */
(PID.TID 0000.0001)                 1.000000000000000E-13
(PID.TID 0000.0001)     ;
(PID.TID 0000.0001) cg2dTargetResWunit =   /* CG2d target residual [W units] */
(PID.TID 0000.0001)                -1.000000000000000E+00
(PID.TID 0000.0001)     ;
(PID.TID 0000.0001) cg2dPreCondFreq =   /* Freq. for updating cg2d preconditioner */
(PID.TID 0000.0001)                       1
(PID.TID 0000.0001)     ;
(PID.TID 0000.0001) useSRCGSolver =  /* use single reduction CG solver(s) */
(PID.TID 0000.0001)                   F
(PID.TID 0000.0001)     ;
(PID.TID 0000.0001) useNSACGSolver =  /* use not-self-adjoint CG solver */
(PID.TID 0000.0001)                   F
(PID.TID 0000.0001)     ;
(PID.TID 0000.0001) printResidualFreq = /* Freq. for printing CG residual */
(PID.TID 0000.0001)                       0
(PID.TID 0000.0001)     ;
(PID.TID 0000.0001) //
(PID.TID 0000.0001) // Time stepping paramters ( PARM03 in namelist )
(PID.TID 0000.0001) //
(PID.TID 0000.0001) deltaTMom =   /* Momentum equation timestep ( s ) */
(PID.TID 0000.0001)                 1.800000000000000E+03
(PID.TID 0000.0001)     ;
(PID.TID 0000.0001) deltaTFreeSurf = /* FreeSurface equation timestep ( s ) */
(PID.TID 0000.0001)                 1.800000000000000E+03
(PID.TID 0000.0001)     ;
(PID.TID 0000.0001) dTtracerLev =  /* Tracer equation timestep ( s ) */
(PID.TID 0000.0001)    30 @  1.800000000000000E+03              /* K =  1: 30 */
(PID.TID 0000.0001)     ;
(PID.TID 0000.0001) deltaTClock  =   /* Model clock timestep ( s ) */
(PID.TID 0000.0001)                 1.800000000000000E+03
(PID.TID 0000.0001)     ;
(PID.TID 0000.0001) cAdjFreq =   /* Convective adjustment interval ( s ) */
(PID.TID 0000.0001)                 1.000000000000000E+00
(PID.TID 0000.0001)     ;
(PID.TID 0000.0001) momForcingOutAB = /* =1: take Momentum Forcing out of Adams-Bash. stepping */
(PID.TID 0000.0001)                       0
(PID.TID 0000.0001)     ;
(PID.TID 0000.0001) tracForcingOutAB = /* =1: take T,S,pTr Forcing out of Adams-Bash. stepping */
(PID.TID 0000.0001)                       0
(PID.TID 0000.0001)     ;
(PID.TID 0000.0001) momDissip_In_AB = /* put Dissipation Tendency in Adams-Bash. stepping */
(PID.TID 0000.0001)                   T
(PID.TID 0000.0001)     ;
(PID.TID 0000.0001) doAB_onGtGs = /* apply AB on Tendencies (rather than on T,S)*/
(PID.TID 0000.0001)                   T
(PID.TID 0000.0001)     ;
(PID.TID 0000.0001) abEps =   /* Adams-Bashforth-2 stabilizing weight */
(PID.TID 0000.0001)                 1.000000000000000E-01
(PID.TID 0000.0001)     ;
(PID.TID 0000.0001) applyExchUV_early = /* Apply EXCH to U,V earlier in time-step */
(PID.TID 0000.0001)                   F
(PID.TID 0000.0001)     ;
(PID.TID 0000.0001) tauCD =   /* CD coupling time-scale ( s ) */
(PID.TID 0000.0001)                 4.000000000000000E+05
(PID.TID 0000.0001)     ;
(PID.TID 0000.0001) rCD =   /* Normalised CD coupling parameter */
(PID.TID 0000.0001)                 9.955000000000001E-01
(PID.TID 0000.0001)     ;
(PID.TID 0000.0001) epsAB_CD = /* AB-2 stabilizing weight for CD-scheme*/
(PID.TID 0000.0001)                 1.000000000000000E-01
(PID.TID 0000.0001)     ;
(PID.TID 0000.0001) pickupStrictlyMatch= /* stop if pickup do not strictly match */
(PID.TID 0000.0001)                   T
(PID.TID 0000.0001)     ;
(PID.TID 0000.0001) nIter0   =   /* Run starting timestep number */
(PID.TID 0000.0001)                    8640
(PID.TID 0000.0001)     ;
(PID.TID 0000.0001) nTimeSteps = /* Number of timesteps */
(PID.TID 0000.0001)                       5
(PID.TID 0000.0001)     ;
(PID.TID 0000.0001) nEndIter =   /* Run ending timestep number */
(PID.TID 0000.0001)                    8645
(PID.TID 0000.0001)     ;
(PID.TID 0000.0001) baseTime =   /* Model base time ( s ) */
(PID.TID 0000.0001)                 0.000000000000000E+00
(PID.TID 0000.0001)     ;
(PID.TID 0000.0001) startTime =  /* Run start time ( s ) */
(PID.TID 0000.0001)                 1.555200000000000E+07
(PID.TID 0000.0001)     ;
(PID.TID 0000.0001) endTime  =   /* Integration ending time ( s ) */
(PID.TID 0000.0001)                 1.556100000000000E+07
(PID.TID 0000.0001)     ;
(PID.TID 0000.0001) pChkPtFreq = /* Permanent restart/pickup file interval ( s ) */
(PID.TID 0000.0001)                 0.000000000000000E+00
(PID.TID 0000.0001)     ;
(PID.TID 0000.0001) chkPtFreq  = /* Rolling restart/pickup file interval ( s ) */
(PID.TID 0000.0001)                 0.000000000000000E+00
(PID.TID 0000.0001)     ;
(PID.TID 0000.0001) pickup_write_mdsio =   /* Model IO flag. */
(PID.TID 0000.0001)                   T
(PID.TID 0000.0001)     ;
(PID.TID 0000.0001) pickup_read_mdsio =   /* Model IO flag. */
(PID.TID 0000.0001)                   T
(PID.TID 0000.0001)     ;
(PID.TID 0000.0001) pickup_write_mnc =   /* Model IO flag. */
(PID.TID 0000.0001)                   F
(PID.TID 0000.0001)     ;
(PID.TID 0000.0001) pickup_read_mnc =   /* Model IO flag. */
(PID.TID 0000.0001)                   F
(PID.TID 0000.0001)     ;
(PID.TID 0000.0001) writePickupAtEnd =   /* Model IO flag. */
(PID.TID 0000.0001)                   T
(PID.TID 0000.0001)     ;
(PID.TID 0000.0001) dumpFreq =   /* Model state write out interval ( s ). */
(PID.TID 0000.0001)                 0.000000000000000E+00
(PID.TID 0000.0001)     ;
(PID.TID 0000.0001) dumpInitAndLast= /* write out Initial & Last iter. model state */
(PID.TID 0000.0001)                   T
(PID.TID 0000.0001)     ;
(PID.TID 0000.0001) snapshot_mdsio =   /* Model IO flag. */
(PID.TID 0000.0001)                   T
(PID.TID 0000.0001)     ;
(PID.TID 0000.0001) snapshot_mnc =   /* Model IO flag. */
(PID.TID 0000.0001)                   F
(PID.TID 0000.0001)     ;
(PID.TID 0000.0001) monitorFreq =   /* Monitor output interval ( s ). */
(PID.TID 0000.0001)                 1.000000000000000E+00
(PID.TID 0000.0001)     ;
(PID.TID 0000.0001) monitorSelect = /* select group of variables to monitor */
(PID.TID 0000.0001)                       2
(PID.TID 0000.0001)     ;
(PID.TID 0000.0001) monitor_stdio =   /* Model IO flag. */
(PID.TID 0000.0001)                   T
(PID.TID 0000.0001)     ;
(PID.TID 0000.0001) monitor_mnc =   /* Model IO flag. */
(PID.TID 0000.0001)                   F
(PID.TID 0000.0001)     ;
(PID.TID 0000.0001) externForcingPeriod =   /* forcing period (s) */
(PID.TID 0000.0001)                 0.000000000000000E+00
(PID.TID 0000.0001)     ;
(PID.TID 0000.0001) externForcingCycle =   /* period of the cyle (s). */
(PID.TID 0000.0001)                 0.000000000000000E+00
(PID.TID 0000.0001)     ;
(PID.TID 0000.0001) tauThetaClimRelax =   /* relaxation time scale (s) */
(PID.TID 0000.0001)                 0.000000000000000E+00
(PID.TID 0000.0001)     ;
(PID.TID 0000.0001) tauSaltClimRelax =   /* relaxation time scale (s) */
(PID.TID 0000.0001)                 0.000000000000000E+00
(PID.TID 0000.0001)     ;
(PID.TID 0000.0001) latBandClimRelax =   /* max. Lat. where relaxation */
(PID.TID 0000.0001)                 1.800000000000000E+02
(PID.TID 0000.0001)     ;
(PID.TID 0000.0001) //
(PID.TID 0000.0001) // Gridding paramters ( PARM04 in namelist )
(PID.TID 0000.0001) //
(PID.TID 0000.0001) usingCartesianGrid = /* Cartesian coordinates flag ( True/False ) */
(PID.TID 0000.0001)                   F
(PID.TID 0000.0001)     ;
(PID.TID 0000.0001) usingCylindricalGrid = /* Cylindrical coordinates flag ( True/False ) */
(PID.TID 0000.0001)                   F
(PID.TID 0000.0001)     ;
(PID.TID 0000.0001) usingSphericalPolarGrid = /* Spherical coordinates flag ( True/False ) */
(PID.TID 0000.0001)                   T
(PID.TID 0000.0001)     ;
(PID.TID 0000.0001) usingCurvilinearGrid = /* Curvilinear coordinates flag ( True/False ) */
(PID.TID 0000.0001)                   F
(PID.TID 0000.0001)     ;
(PID.TID 0000.0001) useMin4hFacEdges = /* set hFacW,S as minimum of adjacent hFacC factor */
(PID.TID 0000.0001)                   F
(PID.TID 0000.0001)     ;
(PID.TID 0000.0001) interViscAr_pCell = /* account for partial-cell in interior vert. viscosity */
(PID.TID 0000.0001)                   F
(PID.TID 0000.0001)     ;
(PID.TID 0000.0001) interDiffKr_pCell = /* account for partial-cell in interior vert. diffusion */
(PID.TID 0000.0001)                   F
(PID.TID 0000.0001)     ;
(PID.TID 0000.0001) pCellMix_select = /* option to enhance mixing near surface & bottom */
(PID.TID 0000.0001)                       0
(PID.TID 0000.0001)     ;
(PID.TID 0000.0001) selectSigmaCoord = /* Hybrid-Sigma Vert. Coordinate option */
(PID.TID 0000.0001)                       0
(PID.TID 0000.0001)     ;
(PID.TID 0000.0001) rSigmaBnd = /* r/sigma transition ( units of r ==  m ) */
(PID.TID 0000.0001)                 1.234567000000000E+05
(PID.TID 0000.0001)     ;
(PID.TID 0000.0001) rkSign =   /* index orientation relative to vertical coordinate */
(PID.TID 0000.0001)                -1.000000000000000E+00
(PID.TID 0000.0001)     ;
(PID.TID 0000.0001) gravitySign = /* gravity orientation relative to vertical coordinate */
(PID.TID 0000.0001)                -1.000000000000000E+00
(PID.TID 0000.0001)     ;
(PID.TID 0000.0001) seaLev_Z =  /* reference height of sea-level [m] */
(PID.TID 0000.0001)                 0.000000000000000E+00
(PID.TID 0000.0001)     ;
(PID.TID 0000.0001) top_Pres =  /* reference pressure at the top [Pa] */
(PID.TID 0000.0001)                 0.000000000000000E+00
(PID.TID 0000.0001)     ;
(PID.TID 0000.0001) mass2rUnit = /* convert mass per unit area [kg/m2] to r-units [m] */
(PID.TID 0000.0001)                 9.708737864077669E-04
(PID.TID 0000.0001)     ;
(PID.TID 0000.0001) rUnit2mass = /* convert r-units [m] to mass per unit area [kg/m2] */
(PID.TID 0000.0001)                 1.030000000000000E+03
(PID.TID 0000.0001)     ;
(PID.TID 0000.0001) drC =   /* C spacing ( units of r ) */
(PID.TID 0000.0001)                 1.500000000000000E+01,      /* K =  1 */
(PID.TID 0000.0001)    29 @  3.000000000000000E+01,             /* K =  2: 30 */
(PID.TID 0000.0001)                 1.500000000000000E+01       /* K = 31 */
(PID.TID 0000.0001)     ;
(PID.TID 0000.0001) drF =   /* W spacing ( units of r ) */
(PID.TID 0000.0001)    30 @  3.000000000000000E+01              /* K =  1: 30 */
(PID.TID 0000.0001)     ;
(PID.TID 0000.0001) delX = /* U spacing ( m - cartesian, degrees - spherical ) */
(PID.TID 0000.0001)    50 @  3.000000000000000E-01              /* I =  1: 50 */
(PID.TID 0000.0001)     ;
(PID.TID 0000.0001) delY = /* V spacing ( m - cartesian, degrees - spherical ) */
(PID.TID 0000.0001)   100 @  1.000000000000000E-01              /* J =  1:100 */
(PID.TID 0000.0001)     ;
(PID.TID 0000.0001) xgOrigin = /* X-axis origin of West  edge (cartesian: m, lat-lon: deg) */
(PID.TID 0000.0001)                 0.000000000000000E+00
(PID.TID 0000.0001)     ;
(PID.TID 0000.0001) ygOrigin = /* Y-axis origin of South edge (cartesian: m, lat-lon: deg) */
(PID.TID 0000.0001)                -8.000000000000000E+01
(PID.TID 0000.0001)     ;
(PID.TID 0000.0001) rSphere =  /* Radius ( ignored - cartesian, m - spherical ) */
(PID.TID 0000.0001)                 6.370000000000000E+06
(PID.TID 0000.0001)     ;
(PID.TID 0000.0001) deepAtmosphere = /* Deep/Shallow Atmosphere flag (True/False) */
(PID.TID 0000.0001)                   F
(PID.TID 0000.0001)     ;
(PID.TID 0000.0001) xC =  /* xC(:,1,:,1) : P-point X coord ( deg. or m if cartesian) */
(PID.TID 0000.0001)                 1.500000000000001E-01,      /* I =  1 */
(PID.TID 0000.0001)                 4.500000000000001E-01,      /* I =  2 */
(PID.TID 0000.0001)                 7.500000000000002E-01,      /* I =  3 */
(PID.TID 0000.0001)                 1.050000000000000E+00,      /* I =  4 */
(PID.TID 0000.0001)                 1.350000000000000E+00,      /* I =  5 */
(PID.TID 0000.0001)                 1.650000000000000E+00,      /* I =  6 */
(PID.TID 0000.0001)                 1.950000000000000E+00,      /* I =  7 */
(PID.TID 0000.0001)                 2.250000000000000E+00,      /* I =  8 */
(PID.TID 0000.0001)                 2.550000000000000E+00,      /* I =  9 */
(PID.TID 0000.0001)                 2.850000000000000E+00,      /* I = 10 */
(PID.TID 0000.0001)                 3.149999999999999E+00,      /* I = 11 */
(PID.TID 0000.0001)                 3.449999999999999E+00,      /* I = 12 */
(PID.TID 0000.0001)                 3.749999999999999E+00,      /* I = 13 */
(PID.TID 0000.0001)                 4.049999999999999E+00,      /* I = 14 */
(PID.TID 0000.0001)                 4.350000000000000E+00,      /* I = 15 */
(PID.TID 0000.0001)                 4.649999999999999E+00,      /* I = 16 */
(PID.TID 0000.0001)                 4.949999999999999E+00,      /* I = 17 */
(PID.TID 0000.0001)                 5.249999999999998E+00,      /* I = 18 */
(PID.TID 0000.0001)                 5.549999999999999E+00,      /* I = 19 */
(PID.TID 0000.0001)                 5.849999999999998E+00,      /* I = 20 */
(PID.TID 0000.0001)                 6.149999999999999E+00,      /* I = 21 */
(PID.TID 0000.0001)                 6.449999999999998E+00,      /* I = 22 */
(PID.TID 0000.0001)                 6.749999999999998E+00,      /* I = 23 */
(PID.TID 0000.0001)                 7.049999999999997E+00,      /* I = 24 */
(PID.TID 0000.0001)                 7.349999999999997E+00,      /* I = 25 */
(PID.TID 0000.0001)                 7.649999999999997E+00,      /* I = 26 */
(PID.TID 0000.0001)                 7.949999999999998E+00,      /* I = 27 */
(PID.TID 0000.0001)                 8.249999999999998E+00,      /* I = 28 */
(PID.TID 0000.0001)                 8.549999999999999E+00,      /* I = 29 */
(PID.TID 0000.0001)                 8.850000000000000E+00,      /* I = 30 */
(PID.TID 0000.0001)                 9.150000000000000E+00,      /* I = 31 */
(PID.TID 0000.0001)                 9.450000000000001E+00,      /* I = 32 */
(PID.TID 0000.0001)                 9.750000000000002E+00,      /* I = 33 */
(PID.TID 0000.0001)                 1.005000000000000E+01,      /* I = 34 */
(PID.TID 0000.0001)                 1.035000000000000E+01,      /* I = 35 */
(PID.TID 0000.0001)                 1.065000000000000E+01,      /* I = 36 */
(PID.TID 0000.0001)                 1.095000000000001E+01,      /* I = 37 */
(PID.TID 0000.0001)                 1.125000000000001E+01,      /* I = 38 */
(PID.TID 0000.0001)                 1.155000000000000E+01,      /* I = 39 */
(PID.TID 0000.0001)                 1.185000000000001E+01,      /* I = 40 */
(PID.TID 0000.0001)                 1.215000000000001E+01,      /* I = 41 */
(PID.TID 0000.0001)                 1.245000000000001E+01,      /* I = 42 */
(PID.TID 0000.0001)                 1.275000000000001E+01,      /* I = 43 */
(PID.TID 0000.0001)                 1.305000000000001E+01,      /* I = 44 */
(PID.TID 0000.0001)                 1.335000000000001E+01,      /* I = 45 */
(PID.TID 0000.0001)                 1.365000000000001E+01,      /* I = 46 */
(PID.TID 0000.0001)                 1.395000000000001E+01,      /* I = 47 */
(PID.TID 0000.0001)                 1.425000000000001E+01,      /* I = 48 */
(PID.TID 0000.0001)                 1.455000000000001E+01,      /* I = 49 */
(PID.TID 0000.0001)                 1.485000000000001E+01       /* I = 50 */
(PID.TID 0000.0001)     ;
(PID.TID 0000.0001) yC =  /* yC(1,:,1,:) : P-point Y coord ( deg. or m if cartesian) */
(PID.TID 0000.0001)                -7.995000000000000E+01,      /* J =  1 */
(PID.TID 0000.0001)                -7.985000000000001E+01,      /* J =  2 */
(PID.TID 0000.0001)                -7.975000000000001E+01,      /* J =  3 */
(PID.TID 0000.0001)      . . .
(PID.TID 0000.0001)                -7.775000000000013E+01,      /* J = 23 */
(PID.TID 0000.0001)                -7.765000000000013E+01,      /* J = 24 */
(PID.TID 0000.0001)                -7.755000000000014E+01,      /* J = 25 */
(PID.TID 0000.0001)                -7.745000000000014E+01,      /* J = 26 */
(PID.TID 0000.0001)                -7.735000000000015E+01,      /* J = 27 */
(PID.TID 0000.0001)                -7.725000000000016E+01,      /* J = 28 */
(PID.TID 0000.0001)      . . .
(PID.TID 0000.0001)                -7.525000000000027E+01,      /* J = 48 */
(PID.TID 0000.0001)                -7.515000000000028E+01,      /* J = 49 */
(PID.TID 0000.0001)                -7.505000000000028E+01,      /* J = 50 */
(PID.TID 0000.0001)                -7.495000000000029E+01,      /* J = 51 */
(PID.TID 0000.0001)                -7.485000000000029E+01,      /* J = 52 */
(PID.TID 0000.0001)                -7.475000000000030E+01,      /* J = 53 */
(PID.TID 0000.0001)      . . .
(PID.TID 0000.0001)                -7.275000000000041E+01,      /* J = 73 */
(PID.TID 0000.0001)                -7.265000000000042E+01,      /* J = 74 */
(PID.TID 0000.0001)                -7.255000000000042E+01,      /* J = 75 */
(PID.TID 0000.0001)                -7.245000000000043E+01,      /* J = 76 */
(PID.TID 0000.0001)                -7.235000000000043E+01,      /* J = 77 */
(PID.TID 0000.0001)                -7.225000000000044E+01,      /* J = 78 */
(PID.TID 0000.0001)      . . .
(PID.TID 0000.0001)                -7.025000000000055E+01,      /* J = 98 */
(PID.TID 0000.0001)                -7.015000000000056E+01,      /* J = 99 */
(PID.TID 0000.0001)                -7.005000000000057E+01       /* J =100 */
(PID.TID 0000.0001)     ;
(PID.TID 0000.0001) rcoord = /* P-point R coordinate (  units of r ) */
(PID.TID 0000.0001)                -1.500000000000000E+01,      /* K =  1 */
(PID.TID 0000.0001)                -4.500000000000000E+01,      /* K =  2 */
(PID.TID 0000.0001)                -7.500000000000000E+01,      /* K =  3 */
(PID.TID 0000.0001)                -1.050000000000000E+02,      /* K =  4 */
(PID.TID 0000.0001)                -1.350000000000000E+02,      /* K =  5 */
(PID.TID 0000.0001)                -1.650000000000000E+02,      /* K =  6 */
(PID.TID 0000.0001)                -1.950000000000000E+02,      /* K =  7 */
(PID.TID 0000.0001)                -2.250000000000000E+02,      /* K =  8 */
(PID.TID 0000.0001)                -2.550000000000000E+02,      /* K =  9 */
(PID.TID 0000.0001)                -2.850000000000000E+02,      /* K = 10 */
(PID.TID 0000.0001)                -3.150000000000000E+02,      /* K = 11 */
(PID.TID 0000.0001)                -3.450000000000000E+02,      /* K = 12 */
(PID.TID 0000.0001)                -3.750000000000000E+02,      /* K = 13 */
(PID.TID 0000.0001)                -4.050000000000000E+02,      /* K = 14 */
(PID.TID 0000.0001)                -4.350000000000000E+02,      /* K = 15 */
(PID.TID 0000.0001)                -4.650000000000000E+02,      /* K = 16 */
(PID.TID 0000.0001)                -4.950000000000000E+02,      /* K = 17 */
(PID.TID 0000.0001)                -5.250000000000000E+02,      /* K = 18 */
(PID.TID 0000.0001)                -5.550000000000000E+02,      /* K = 19 */
(PID.TID 0000.0001)                -5.850000000000000E+02,      /* K = 20 */
(PID.TID 0000.0001)                -6.150000000000000E+02,      /* K = 21 */
(PID.TID 0000.0001)                -6.450000000000000E+02,      /* K = 22 */
(PID.TID 0000.0001)                -6.750000000000000E+02,      /* K = 23 */
(PID.TID 0000.0001)                -7.050000000000000E+02,      /* K = 24 */
(PID.TID 0000.0001)                -7.350000000000000E+02,      /* K = 25 */
(PID.TID 0000.0001)                -7.650000000000000E+02,      /* K = 26 */
(PID.TID 0000.0001)                -7.950000000000000E+02,      /* K = 27 */
(PID.TID 0000.0001)                -8.250000000000000E+02,      /* K = 28 */
(PID.TID 0000.0001)                -8.550000000000000E+02,      /* K = 29 */
(PID.TID 0000.0001)                -8.850000000000000E+02       /* K = 30 */
(PID.TID 0000.0001)     ;
(PID.TID 0000.0001) rF =   /* W-Interf. R coordinate (  units of r ) */
(PID.TID 0000.0001)                 0.000000000000000E+00,      /* K =  1 */
(PID.TID 0000.0001)                -3.000000000000000E+01,      /* K =  2 */
(PID.TID 0000.0001)                -6.000000000000000E+01,      /* K =  3 */
(PID.TID 0000.0001)                -9.000000000000000E+01,      /* K =  4 */
(PID.TID 0000.0001)                -1.200000000000000E+02,      /* K =  5 */
(PID.TID 0000.0001)                -1.500000000000000E+02,      /* K =  6 */
(PID.TID 0000.0001)                -1.800000000000000E+02,      /* K =  7 */
(PID.TID 0000.0001)                -2.100000000000000E+02,      /* K =  8 */
(PID.TID 0000.0001)                -2.400000000000000E+02,      /* K =  9 */
(PID.TID 0000.0001)                -2.700000000000000E+02,      /* K = 10 */
(PID.TID 0000.0001)                -3.000000000000000E+02,      /* K = 11 */
(PID.TID 0000.0001)                -3.300000000000000E+02,      /* K = 12 */
(PID.TID 0000.0001)                -3.600000000000000E+02,      /* K = 13 */
(PID.TID 0000.0001)                -3.900000000000000E+02,      /* K = 14 */
(PID.TID 0000.0001)                -4.200000000000000E+02,      /* K = 15 */
(PID.TID 0000.0001)                -4.500000000000000E+02,      /* K = 16 */
(PID.TID 0000.0001)                -4.800000000000000E+02,      /* K = 17 */
(PID.TID 0000.0001)                -5.100000000000000E+02,      /* K = 18 */
(PID.TID 0000.0001)                -5.400000000000000E+02,      /* K = 19 */
(PID.TID 0000.0001)                -5.700000000000000E+02,      /* K = 20 */
(PID.TID 0000.0001)                -6.000000000000000E+02,      /* K = 21 */
(PID.TID 0000.0001)                -6.300000000000000E+02,      /* K = 22 */
(PID.TID 0000.0001)                -6.600000000000000E+02,      /* K = 23 */
(PID.TID 0000.0001)                -6.900000000000000E+02,      /* K = 24 */
(PID.TID 0000.0001)                -7.200000000000000E+02,      /* K = 25 */
(PID.TID 0000.0001)                -7.500000000000000E+02,      /* K = 26 */
(PID.TID 0000.0001)                -7.800000000000000E+02,      /* K = 27 */
(PID.TID 0000.0001)                -8.100000000000000E+02,      /* K = 28 */
(PID.TID 0000.0001)                -8.400000000000000E+02,      /* K = 29 */
(PID.TID 0000.0001)                -8.700000000000000E+02,      /* K = 30 */
(PID.TID 0000.0001)                -9.000000000000000E+02       /* K = 31 */
(PID.TID 0000.0001)     ;
(PID.TID 0000.0001) deepFacC = /* deep-model grid factor @ cell-Center (-) */
(PID.TID 0000.0001)    30 @  1.000000000000000E+00              /* K =  1: 30 */
(PID.TID 0000.0001)     ;
(PID.TID 0000.0001) deepFacF = /* deep-model grid factor @ W-Interface (-) */
(PID.TID 0000.0001)    31 @  1.000000000000000E+00              /* K =  1: 31 */
(PID.TID 0000.0001)     ;
(PID.TID 0000.0001) rotateGrid = /* use rotated grid ( True/False ) */
(PID.TID 0000.0001)                   F
(PID.TID 0000.0001)     ;
(PID.TID 0000.0001) phiEuler = /* Euler angle, rotation about original z-coordinate [rad] */
(PID.TID 0000.0001)                 0.000000000000000E+00
(PID.TID 0000.0001)     ;
(PID.TID 0000.0001) thetaEuler = /* Euler angle, rotation about new x-coordinate [rad] */
(PID.TID 0000.0001)                 0.000000000000000E+00
(PID.TID 0000.0001)     ;
(PID.TID 0000.0001) psiEuler = /* Euler angle, rotation about new z-coordinate [rad] */
(PID.TID 0000.0001)                 0.000000000000000E+00
(PID.TID 0000.0001)     ;
(PID.TID 0000.0001) dxF =  /* dxF(:,1,:,1) ( units: m ) */
(PID.TID 0000.0001)    50 @  5.820391490558872E+03              /* I =  1: 50 */
(PID.TID 0000.0001)     ;
(PID.TID 0000.0001) dxF =  /* dxF(1,:,1,:) ( units: m ) */
(PID.TID 0000.0001)                 5.820391490558872E+03,      /* J =  1 */
(PID.TID 0000.0001)                 5.877701765291692E+03,      /* J =  2 */
(PID.TID 0000.0001)                 5.934994135525598E+03,      /* J =  3 */
(PID.TID 0000.0001)      . . .
(PID.TID 0000.0001)                 7.076813247621209E+03,      /* J = 23 */
(PID.TID 0000.0001)                 7.133689397375063E+03,      /* J = 24 */
(PID.TID 0000.0001)                 7.190543816673855E+03,      /* J = 25 */
(PID.TID 0000.0001)                 7.247376332329164E+03,      /* J = 26 */
(PID.TID 0000.0001)                 7.304186771219292E+03,      /* J = 27 */
(PID.TID 0000.0001)                 7.360974960289787E+03,      /* J = 28 */
(PID.TID 0000.0001)      . . .
(PID.TID 0000.0001)                 8.491800393599013E+03,      /* J = 48 */
(PID.TID 0000.0001)                 8.548081485571185E+03,      /* J = 49 */
(PID.TID 0000.0001)                 8.604336538604706E+03,      /* J = 50 */
(PID.TID 0000.0001)                 8.660565381336924E+03,      /* J = 51 */
(PID.TID 0000.0001)                 8.716767842485036E+03,      /* J = 52 */
(PID.TID 0000.0001)                 8.772943750846600E+03,      /* J = 53 */
(PID.TID 0000.0001)      . . .
(PID.TID 0000.0001)                 9.890622914885218E+03,      /* J = 73 */
(PID.TID 0000.0001)                 9.946201814818334E+03,      /* J = 74 */
(PID.TID 0000.0001)                 1.000175041689580E+04,      /* J = 75 */
(PID.TID 0000.0001)                 1.005726855190695E+04,      /* J = 76 */
(PID.TID 0000.0001)                 1.011275605073392E+04,      /* J = 77 */
(PID.TID 0000.0001)                 1.016821274435215E+04,      /* J = 78 */
(PID.TID 0000.0001)      . . .
(PID.TID 0000.0001)                 1.127061807330668E+04,      /* J = 98 */
(PID.TID 0000.0001)                 1.132538898360582E+04,      /* J = 99 */
(PID.TID 0000.0001)                 1.138012539480601E+04       /* J =100 */
(PID.TID 0000.0001)     ;
(PID.TID 0000.0001) dyF =  /* dyF(:,1,:,1) ( units: m ) */
(PID.TID 0000.0001)    50 @  1.111774733520388E+04              /* I =  1: 50 */
(PID.TID 0000.0001)     ;
(PID.TID 0000.0001) dyF =  /* dyF(1,:,1,:) ( units: m ) */
(PID.TID 0000.0001)   100 @  1.111774733520388E+04              /* J =  1:100 */
(PID.TID 0000.0001)     ;
(PID.TID 0000.0001) dxG =  /* dxG(:,1,:,1) ( units: m ) */
(PID.TID 0000.0001)    50 @  5.791729693558576E+03              /* I =  1: 50 */
(PID.TID 0000.0001)     ;
(PID.TID 0000.0001) dxG =  /* dxG(1,:,1,:) ( units: m ) */
(PID.TID 0000.0001)                 5.791729693558576E+03,      /* J =  1 */
(PID.TID 0000.0001)                 5.849048855077854E+03,      /* J =  2 */
(PID.TID 0000.0001)                 5.906350199379949E+03,      /* J =  3 */
(PID.TID 0000.0001)      . . .
(PID.TID 0000.0001)                 7.048367077963129E+03,      /* J = 23 */
(PID.TID 0000.0001)                 7.105254027978149E+03,      /* J = 24 */
(PID.TID 0000.0001)                 7.162119334157175E+03,      /* J = 25 */
(PID.TID 0000.0001)                 7.218962823278620E+03,      /* J = 26 */
(PID.TID 0000.0001)                 7.275784322187360E+03,      /* J = 27 */
(PID.TID 0000.0001)                 7.332583657795253E+03,      /* J = 28 */
(PID.TID 0000.0001)      . . .
(PID.TID 0000.0001)                 8.463650136583461E+03,      /* J = 48 */
(PID.TID 0000.0001)                 8.519944183739159E+03,      /* J = 49 */
(PID.TID 0000.0001)                 8.576212277667308E+03,      /* J = 50 */
(PID.TID 0000.0001)                 8.632454246965530E+03,      /* J = 51 */
(PID.TID 0000.0001)                 8.688669920311038E+03,      /* J = 52 */
(PID.TID 0000.0001)                 8.744859126461139E+03,      /* J = 53 */
(PID.TID 0000.0001)      . . .
(PID.TID 0000.0001)                 9.862822156126382E+03,      /* J = 73 */
(PID.TID 0000.0001)                 9.918416141504455E+03,      /* J = 74 */
(PID.TID 0000.0001)                 9.973979913666863E+03,      /* J = 75 */
(PID.TID 0000.0001)                 1.002951330335672E+04,      /* J = 76 */
(PID.TID 0000.0001)                 1.008501614140969E+04,      /* J = 77 */
(PID.TID 0000.0001)                 1.014048825875450E+04,      /* J = 78 */
(PID.TID 0000.0001)      . . .
(PID.TID 0000.0001)                 1.124321973312895E+04,      /* J = 98 */
(PID.TID 0000.0001)                 1.129800783041847E+04,      /* J = 99 */
(PID.TID 0000.0001)                 1.135276151201679E+04       /* J =100 */
(PID.TID 0000.0001)     ;
(PID.TID 0000.0001) dyG =  /* dyG(:,1,:,1) ( units: m ) */
(PID.TID 0000.0001)    50 @  1.111774733520388E+04              /* I =  1: 50 */
(PID.TID 0000.0001)     ;
(PID.TID 0000.0001) dyG =  /* dyG(1,:,1,:) ( units: m ) */
(PID.TID 0000.0001)   100 @  1.111774733520388E+04              /* J =  1:100 */
(PID.TID 0000.0001)     ;
(PID.TID 0000.0001) dxC =  /* dxC(:,1,:,1) ( units: m ) */
(PID.TID 0000.0001)    50 @  5.820391490558872E+03              /* I =  1: 50 */
(PID.TID 0000.0001)     ;
(PID.TID 0000.0001) dxC =  /* dxC(1,:,1,:) ( units: m ) */
(PID.TID 0000.0001)                 5.820391490558872E+03,      /* J =  1 */
(PID.TID 0000.0001)                 5.877701765291692E+03,      /* J =  2 */
(PID.TID 0000.0001)                 5.934994135525598E+03,      /* J =  3 */
(PID.TID 0000.0001)      . . .
(PID.TID 0000.0001)                 7.076813247621209E+03,      /* J = 23 */
(PID.TID 0000.0001)                 7.133689397375063E+03,      /* J = 24 */
(PID.TID 0000.0001)                 7.190543816673855E+03,      /* J = 25 */
(PID.TID 0000.0001)                 7.247376332329164E+03,      /* J = 26 */
(PID.TID 0000.0001)                 7.304186771219292E+03,      /* J = 27 */
(PID.TID 0000.0001)                 7.360974960289787E+03,      /* J = 28 */
(PID.TID 0000.0001)      . . .
(PID.TID 0000.0001)                 8.491800393599013E+03,      /* J = 48 */
(PID.TID 0000.0001)                 8.548081485571185E+03,      /* J = 49 */
(PID.TID 0000.0001)                 8.604336538604706E+03,      /* J = 50 */
(PID.TID 0000.0001)                 8.660565381336924E+03,      /* J = 51 */
(PID.TID 0000.0001)                 8.716767842485036E+03,      /* J = 52 */
(PID.TID 0000.0001)                 8.772943750846600E+03,      /* J = 53 */
(PID.TID 0000.0001)      . . .
(PID.TID 0000.0001)                 9.890622914885218E+03,      /* J = 73 */
(PID.TID 0000.0001)                 9.946201814818334E+03,      /* J = 74 */
(PID.TID 0000.0001)                 1.000175041689580E+04,      /* J = 75 */
(PID.TID 0000.0001)                 1.005726855190695E+04,      /* J = 76 */
(PID.TID 0000.0001)                 1.011275605073392E+04,      /* J = 77 */
(PID.TID 0000.0001)                 1.016821274435215E+04,      /* J = 78 */
(PID.TID 0000.0001)      . . .
(PID.TID 0000.0001)                 1.127061807330668E+04,      /* J = 98 */
(PID.TID 0000.0001)                 1.132538898360582E+04,      /* J = 99 */
(PID.TID 0000.0001)                 1.138012539480601E+04       /* J =100 */
(PID.TID 0000.0001)     ;
(PID.TID 0000.0001) dyC =  /* dyC(:,1,:,1) ( units: m ) */
(PID.TID 0000.0001)    50 @  1.111774733520388E+04              /* I =  1: 50 */
(PID.TID 0000.0001)     ;
(PID.TID 0000.0001) dyC =  /* dyC(1,:,1,:) ( units: m ) */
(PID.TID 0000.0001)   100 @  1.111774733520388E+04              /* J =  1:100 */
(PID.TID 0000.0001)     ;
(PID.TID 0000.0001) dxV =  /* dxV(:,1,:,1) ( units: m ) */
(PID.TID 0000.0001)    50 @  5.791729693558576E+03              /* I =  1: 50 */
(PID.TID 0000.0001)     ;
(PID.TID 0000.0001) dxV =  /* dxV(1,:,1,:) ( units: m ) */
(PID.TID 0000.0001)                 5.791729693558576E+03,      /* J =  1 */
(PID.TID 0000.0001)                 5.849048855077854E+03,      /* J =  2 */
(PID.TID 0000.0001)                 5.906350199379949E+03,      /* J =  3 */
(PID.TID 0000.0001)      . . .
(PID.TID 0000.0001)                 7.048367077963129E+03,      /* J = 23 */
(PID.TID 0000.0001)                 7.105254027978149E+03,      /* J = 24 */
(PID.TID 0000.0001)                 7.162119334157175E+03,      /* J = 25 */
(PID.TID 0000.0001)                 7.218962823278620E+03,      /* J = 26 */
(PID.TID 0000.0001)                 7.275784322187360E+03,      /* J = 27 */
(PID.TID 0000.0001)                 7.332583657795253E+03,      /* J = 28 */
(PID.TID 0000.0001)      . . .
(PID.TID 0000.0001)                 8.463650136583461E+03,      /* J = 48 */
(PID.TID 0000.0001)                 8.519944183739159E+03,      /* J = 49 */
(PID.TID 0000.0001)                 8.576212277667308E+03,      /* J = 50 */
(PID.TID 0000.0001)                 8.632454246965530E+03,      /* J = 51 */
(PID.TID 0000.0001)                 8.688669920311038E+03,      /* J = 52 */
(PID.TID 0000.0001)                 8.744859126461139E+03,      /* J = 53 */
(PID.TID 0000.0001)      . . .
(PID.TID 0000.0001)                 9.862822156126382E+03,      /* J = 73 */
(PID.TID 0000.0001)                 9.918416141504455E+03,      /* J = 74 */
(PID.TID 0000.0001)                 9.973979913666863E+03,      /* J = 75 */
(PID.TID 0000.0001)                 1.002951330335672E+04,      /* J = 76 */
(PID.TID 0000.0001)                 1.008501614140969E+04,      /* J = 77 */
(PID.TID 0000.0001)                 1.014048825875450E+04,      /* J = 78 */
(PID.TID 0000.0001)      . . .
(PID.TID 0000.0001)                 1.124321973312895E+04,      /* J = 98 */
(PID.TID 0000.0001)                 1.129800783041847E+04,      /* J = 99 */
(PID.TID 0000.0001)                 1.135276151201679E+04       /* J =100 */
(PID.TID 0000.0001)     ;
(PID.TID 0000.0001) dyU =  /* dyU(:,1,:,1) ( units: m ) */
(PID.TID 0000.0001)    50 @  1.111774733520388E+04              /* I =  1: 50 */
(PID.TID 0000.0001)     ;
(PID.TID 0000.0001) dyU =  /* dyU(1,:,1,:) ( units: m ) */
(PID.TID 0000.0001)   100 @  1.111774733520388E+04              /* J =  1:100 */
(PID.TID 0000.0001)     ;
(PID.TID 0000.0001) rA  =  /* rA (:,1,:,1) ( units: m^2 ) */
(PID.TID 0000.0001)    50 @  6.470963377080289E+07              /* I =  1: 50 */
(PID.TID 0000.0001)     ;
(PID.TID 0000.0001) rA  =  /* rA (1,:,1,:) ( units: m^2 ) */
(PID.TID 0000.0001)                 6.470963377080289E+07,      /* J =  1 */
(PID.TID 0000.0001)                 6.534679484410104E+07,      /* J =  2 */
(PID.TID 0000.0001)                 6.598375685977945E+07,      /* J =  3 */
(PID.TID 0000.0001)      . . .
(PID.TID 0000.0001)                 7.867821163932665E+07,      /* J = 23 */
(PID.TID 0000.0001)                 7.931054622142966E+07,      /* J = 24 */
(PID.TID 0000.0001)                 7.994263920984067E+07,      /* J = 25 */
(PID.TID 0000.0001)                 8.057448867913349E+07,      /* J = 26 */
(PID.TID 0000.0001)                 8.120609270456599E+07,      /* J = 27 */
(PID.TID 0000.0001)                 8.183744936212724E+07,      /* J = 28 */
(PID.TID 0000.0001)      . . .
(PID.TID 0000.0001)                 9.440967921416211E+07,      /* J = 48 */
(PID.TID 0000.0001)                 9.503539809503193E+07,      /* J = 49 */
(PID.TID 0000.0001)                 9.566082748163140E+07,      /* J = 50 */
(PID.TID 0000.0001)                 9.628596546870193E+07,      /* J = 51 */
(PID.TID 0000.0001)                 9.691081015209354E+07,      /* J = 52 */
(PID.TID 0000.0001)                 9.753535962826957E+07,      /* J = 53 */
(PID.TID 0000.0001)      . . .
(PID.TID 0000.0001)                 1.099614325987181E+08,      /* J = 73 */
(PID.TID 0000.0001)                 1.105793446869293E+08,      /* J = 74 */
(PID.TID 0000.0001)                 1.111969199312560E+08,      /* J = 75 */
(PID.TID 0000.0001)                 1.118141564504991E+08,      /* J = 76 */
(PID.TID 0000.0001)                 1.124310523644033E+08,      /* J = 77 */
(PID.TID 0000.0001)                 1.130476057938687E+08,      /* J = 78 */
(PID.TID 0000.0001)      . . .
(PID.TID 0000.0001)                 1.253038681465364E+08,      /* J = 98 */
(PID.TID 0000.0001)                 1.259127972112936E+08,      /* J = 99 */
(PID.TID 0000.0001)                 1.265213427237870E+08       /* J =100 */
(PID.TID 0000.0001)     ;
(PID.TID 0000.0001) rAw =  /* rAw(:,1,:,1) ( units: m^2 ) */
(PID.TID 0000.0001)    50 @  6.470963377080289E+07              /* I =  1: 50 */
(PID.TID 0000.0001)     ;
(PID.TID 0000.0001) rAw =  /* rAw(1,:,1,:) ( units: m^2 ) */
(PID.TID 0000.0001)                 6.470963377080289E+07,      /* J =  1 */
(PID.TID 0000.0001)                 6.534679484410104E+07,      /* J =  2 */
(PID.TID 0000.0001)                 6.598375685977945E+07,      /* J =  3 */
(PID.TID 0000.0001)      . . .
(PID.TID 0000.0001)                 7.867821163932665E+07,      /* J = 23 */
(PID.TID 0000.0001)                 7.931054622142966E+07,      /* J = 24 */
(PID.TID 0000.0001)                 7.994263920984067E+07,      /* J = 25 */
(PID.TID 0000.0001)                 8.057448867913349E+07,      /* J = 26 */
(PID.TID 0000.0001)                 8.120609270456599E+07,      /* J = 27 */
(PID.TID 0000.0001)                 8.183744936212724E+07,      /* J = 28 */
(PID.TID 0000.0001)      . . .
(PID.TID 0000.0001)                 9.440967921416211E+07,      /* J = 48 */
(PID.TID 0000.0001)                 9.503539809503193E+07,      /* J = 49 */
(PID.TID 0000.0001)                 9.566082748163140E+07,      /* J = 50 */
(PID.TID 0000.0001)                 9.628596546870193E+07,      /* J = 51 */
(PID.TID 0000.0001)                 9.691081015209354E+07,      /* J = 52 */
(PID.TID 0000.0001)                 9.753535962826957E+07,      /* J = 53 */
(PID.TID 0000.0001)      . . .
(PID.TID 0000.0001)                 1.099614325987181E+08,      /* J = 73 */
(PID.TID 0000.0001)                 1.105793446869293E+08,      /* J = 74 */
(PID.TID 0000.0001)                 1.111969199312560E+08,      /* J = 75 */
(PID.TID 0000.0001)                 1.118141564504991E+08,      /* J = 76 */
(PID.TID 0000.0001)                 1.124310523644033E+08,      /* J = 77 */
(PID.TID 0000.0001)                 1.130476057938687E+08,      /* J = 78 */
(PID.TID 0000.0001)      . . .
(PID.TID 0000.0001)                 1.253038681465364E+08,      /* J = 98 */
(PID.TID 0000.0001)                 1.259127972112936E+08,      /* J = 99 */
(PID.TID 0000.0001)                 1.265213427237870E+08       /* J =100 */
(PID.TID 0000.0001)     ;
(PID.TID 0000.0001) rAs =  /* rAs(:,1,:,1) ( units: m^2 ) */
(PID.TID 0000.0001)    50 @  6.439097919401864E+07              /* I =  1: 50 */
(PID.TID 0000.0001)     ;
(PID.TID 0000.0001) rAs =  /* rAs(1,:,1,:) ( units: m^2 ) */
(PID.TID 0000.0001)                 6.439097919401864E+07,      /* J =  1 */
(PID.TID 0000.0001)                 6.502823906837179E+07,      /* J =  2 */
(PID.TID 0000.0001)                 6.566530085543716E+07,      /* J =  3 */
(PID.TID 0000.0001)      . . .
(PID.TID 0000.0001)                 7.836195435256335E+07,      /* J = 23 */
(PID.TID 0000.0001)                 7.899440900921808E+07,      /* J = 24 */
(PID.TID 0000.0001)                 7.962662303520055E+07,      /* J = 25 */
(PID.TID 0000.0001)                 8.025859450470714E+07,      /* J = 26 */
(PID.TID 0000.0001)                 8.089032149259475E+07,      /* J = 27 */
(PID.TID 0000.0001)                 8.152180207452223E+07,      /* J = 28 */
(PID.TID 0000.0001)      . . .
(PID.TID 0000.0001)                 9.409671180895932E+07,      /* J = 48 */
(PID.TID 0000.0001)                 9.472257472228888E+07,      /* J = 49 */
(PID.TID 0000.0001)                 9.534814909420149E+07,      /* J = 50 */
(PID.TID 0000.0001)                 9.597343301913190E+07,      /* J = 51 */
(PID.TID 0000.0001)                 9.659842459236403E+07,      /* J = 52 */
(PID.TID 0000.0001)                 9.722312190998378E+07,      /* J = 53 */
(PID.TID 0000.0001)      . . .
(PID.TID 0000.0001)                 1.096523508263446E+08,      /* J = 73 */
(PID.TID 0000.0001)                 1.102704306306916E+08,      /* J = 74 */
(PID.TID 0000.0001)                 1.108881745321664E+08,      /* J = 75 */
(PID.TID 0000.0001)                 1.115055806490511E+08,      /* J = 76 */
(PID.TID 0000.0001)                 1.121226471005947E+08,      /* J = 77 */
(PID.TID 0000.0001)                 1.127393720071080E+08,      /* J = 78 */
(PID.TID 0000.0001)      . . .
(PID.TID 0000.0001)                 1.249992603617116E+08,      /* J = 98 */
(PID.TID 0000.0001)                 1.256083805070198E+08,      /* J = 99 */
(PID.TID 0000.0001)                 1.262171180274426E+08       /* J =100 */
(PID.TID 0000.0001)     ;
(PID.TID 0000.0001) globalArea = /* Integrated horizontal Area (m^2) */
(PID.TID 0000.0001)                 4.665024516720074E+11
(PID.TID 0000.0001)     ;
(PID.TID 0000.0001) // =======================================================
(PID.TID 0000.0001) // End of Model config. summary
(PID.TID 0000.0001) // =======================================================
(PID.TID 0000.0001) 
(PID.TID 0000.0001) == Packages configuration : Check & print summary ==
(PID.TID 0000.0001) 
(PID.TID 0000.0001) SHELFICE_CHECK: #define ALLOW_SHELFICE
(PID.TID 0000.0001) 
(PID.TID 0000.0001) SHELFICE_CHECK: start of SHELFICE config. summary
(PID.TID 0000.0001) SHELFICEisOn = /* package is turned on */
(PID.TID 0000.0001)                   T
(PID.TID 0000.0001)     ;
(PID.TID 0000.0001) useISOMIPTD = /* use simple isomip thermodynamics */
(PID.TID 0000.0001)                   F
(PID.TID 0000.0001)     ;
(PID.TID 0000.0001) SHELFICEconserve = /* use a conservative form of boundary conditions */
(PID.TID 0000.0001)                   F
(PID.TID 0000.0001)     ;
(PID.TID 0000.0001) SHELFICEboundaryLayer = /* use simple boundary layer scheme to suppress noise */
(PID.TID 0000.0001)                   T
(PID.TID 0000.0001)     ;
(PID.TID 0000.0001) SHI_withBL_realFWflux = /* use real FW Flux in boundary layer scheme */
(PID.TID 0000.0001)                   F
(PID.TID 0000.0001)     ;
(PID.TID 0000.0001) SHELFICEadvDiffHeatFlux = /* use adv.-diff. instead of just diff. heat flux into the ice shelf */
(PID.TID 0000.0001)                   F
(PID.TID 0000.0001)     ;
(PID.TID 0000.0001) SHELFICEMassStepping = /* step forward ice shelf mass/thickness */
(PID.TID 0000.0001)                   F
(PID.TID 0000.0001)     ;
(PID.TID 0000.0001) SHI_update_kTopC = /* update "kTopC" as ice shelf expand or retreat */
(PID.TID 0000.0001)                   F
(PID.TID 0000.0001)     ;
(PID.TID 0000.0001) no_slip_shelfice = /* use no slip boundary conditions */
(PID.TID 0000.0001)                   F
(PID.TID 0000.0001)     ;
(PID.TID 0000.0001) SHELFICEdragLinear    = /* linear drag coefficient */
(PID.TID 0000.0001)                 0.000000000000000E+00
(PID.TID 0000.0001)     ;
(PID.TID 0000.0001) SHELFICEdragQuadratic = /* quadratic drag coefficient */
(PID.TID 0000.0001)                 2.500000000000000E-03
(PID.TID 0000.0001)     ;
(PID.TID 0000.0001) SHELFICEselectDragQuadr = /* select quadratic drag option */
(PID.TID 0000.0001)                       0
(PID.TID 0000.0001)     ;
(PID.TID 0000.0001) SHELFICElatentHeat      = /* latent heat of ice */
(PID.TID 0000.0001)                 3.340000000000000E+05
(PID.TID 0000.0001)     ;
(PID.TID 0000.0001) SHELFICEheatCapacity_Cp = /* heat capacity of ice shelf */
(PID.TID 0000.0001)                 2.000000000000000E+03
(PID.TID 0000.0001)     ;
(PID.TID 0000.0001) rhoShelfice   = /* density of ice shelf */
(PID.TID 0000.0001)                 9.170000000000000E+02
(PID.TID 0000.0001)     ;
(PID.TID 0000.0001) SHELFICEkappa = /* thermal conductivity of ice shelf */
(PID.TID 0000.0001)                 1.540000000000000E-06
(PID.TID 0000.0001)     ;
(PID.TID 0000.0001) SHELFICEthetaSurface = /* surface temperature above i.s. */
(PID.TID 0000.0001)                -2.000000000000000E+01
(PID.TID 0000.0001)     ;
(PID.TID 0000.0001) SHELFICEheatTransCoeff = /* heat transfer coefficient */
(PID.TID 0000.0001)                 1.000000000000000E-04
(PID.TID 0000.0001)     ;
(PID.TID 0000.0001) SHELFICEsaltTransCoeff = /* salt transfer coefficient */
(PID.TID 0000.0001)                 5.050000000000000E-07
(PID.TID 0000.0001)     ;
(PID.TID 0000.0001) SHELFICEuseGammaFrict = /* use velocity dependent exchange coefficients */
(PID.TID 0000.0001)                   F
(PID.TID 0000.0001)     ;
(PID.TID 0000.0001) SHELFICEremeshFrequency = /* Frequency (in s) of Remeshing */
(PID.TID 0000.0001)                 0.000000000000000E+00
(PID.TID 0000.0001)     ;
(PID.TID 0000.0001) SHELFICEloadAnomalyFile = /* file name of loaded loadAnomaly field */
(PID.TID 0000.0001)               'phi0surf.exp1.jmd95z'
(PID.TID 0000.0001)     ;
(PID.TID 0000.0001) SHELFICEmassFile = /* file name of loaded mass field */
(PID.TID 0000.0001)               ''
(PID.TID 0000.0001)     ;
(PID.TID 0000.0001) SHELFICEtopoFile = /* file name of loaded under-ice topography */
(PID.TID 0000.0001)               'icetopo.exp1'
(PID.TID 0000.0001)     ;
(PID.TID 0000.0001) SHELFICEMassDynTendFile = /* file name of loaded dynamic mass tendency field */
(PID.TID 0000.0001)               ''
(PID.TID 0000.0001)     ;
(PID.TID 0000.0001) SHELFICEwriteState  = /* do simple standard output */
(PID.TID 0000.0001)                   T
(PID.TID 0000.0001)     ;
(PID.TID 0000.0001) SHELFICE_dump_mdsio = /* use mdsio for snapshots */
(PID.TID 0000.0001)                   T
(PID.TID 0000.0001)     ;
(PID.TID 0000.0001) SHELFICE_tave_mdsio = /* use mdsio for time averages */
(PID.TID 0000.0001)                   T
(PID.TID 0000.0001)     ;
(PID.TID 0000.0001) SHELFICE_dump_mnc   = /* use netcdf for snapshots */
(PID.TID 0000.0001)                   F
(PID.TID 0000.0001)     ;
(PID.TID 0000.0001) SHELFICE_tave_mnc   = /* use netcdf for time averages */
(PID.TID 0000.0001)                   F
(PID.TID 0000.0001)     ;
(PID.TID 0000.0001) SHELFICE_dumpFreq = /* analoguous to dumpFreq */
(PID.TID 0000.0001)                 0.000000000000000E+00
(PID.TID 0000.0001)     ;
(PID.TID 0000.0001) SHELFICE_taveFreq = /* analoguous to taveFreq */
(PID.TID 0000.0001)                 0.000000000000000E+00
(PID.TID 0000.0001)     ;
(PID.TID 0000.0001) SHELFICE_CHECK: end of SHELFICE config. summary
(PID.TID 0000.0001) CTRL_CHECK:  --> Starts to check CTRL set-up
(PID.TID 0000.0001) CTRL_CHECK:  <-- Ends Normally
(PID.TID 0000.0001) 
(PID.TID 0000.0001) COST_CHECK: #define ALLOW_COST
(PID.TID 0000.0001) GRDCHK_CHECK: grdchk package
(PID.TID 0000.0001) 
(PID.TID 0000.0001) // =======================================================
(PID.TID 0000.0001) // Gradient check configuration  >>> START <<<
(PID.TID 0000.0001) // =======================================================
(PID.TID 0000.0001) 
(PID.TID 0000.0001)   grdchkvarindex :                      2
(PID.TID 0000.0001)   matching CTRL xx_file:       "xx_theta"
(PID.TID 0000.0001)   eps =                         1.000E-04
(PID.TID 0000.0001)   First location:                       0
(PID.TID 0000.0001)   Last location:                        4
(PID.TID 0000.0001)   Increment:                            1
(PID.TID 0000.0001)   grdchkWhichProc:                      0
(PID.TID 0000.0001)   iLocTile =      1 ,   jLocTile =      1
(PID.TID 0000.0001) 
(PID.TID 0000.0001) // =======================================================
(PID.TID 0000.0001) // Gradient check configuration  >>> END <<<
(PID.TID 0000.0001) // =======================================================
(PID.TID 0000.0001) 
(PID.TID 0000.0001) GAD_CHECK: #define ALLOW_GENERIC_ADVDIFF
(PID.TID 0000.0001) // =======================================================
(PID.TID 0000.0001) // Check Model config. (CONFIG_CHECK):
(PID.TID 0000.0001) // CONFIG_CHECK : Normal End
(PID.TID 0000.0001) // =======================================================
(PID.TID 0000.0001) 
(PID.TID 0000.0001)  nRecords = 243 ; filePrec =  64 ; fileIter =      8640
(PID.TID 0000.0001)     nDims =   2 , dims:
(PID.TID 0000.0001)    1:  50   1  50
(PID.TID 0000.0001)    2: 100   1 100
(PID.TID 0000.0001)     nFlds =  11 , nFl3D =   8 , fields:
(PID.TID 0000.0001)  >Uvel    < >Vvel    < >Theta   < >Salt    < >GuNm1   < >GvNm1   < >GtNm1   < >GsNm1   < >EtaN    < >dEtaHdt < >EtaH    <
(PID.TID 0000.0001) missingVal=  1.00000000000000E+00 ; nTimRec =   1 , timeList:
(PID.TID 0000.0001)   1.555200000000E+07
(PID.TID 0000.0001) READ_MFLDS_3D_RL: read field: "Uvel    ", #   1 in fldList, rec=   1
(PID.TID 0000.0001) READ_MFLDS_3D_RL: read field: "Vvel    ", #   2 in fldList, rec=   2
(PID.TID 0000.0001) READ_MFLDS_3D_RL: read field: "Theta   ", #   3 in fldList, rec=   3
(PID.TID 0000.0001) READ_MFLDS_3D_RL: read field: "Salt    ", #   4 in fldList, rec=   4
(PID.TID 0000.0001) READ_MFLDS_3D_RL: read field: "GuNm1   ", #   5 in fldList, rec=   5
(PID.TID 0000.0001) READ_MFLDS_3D_RL: read field: "GvNm1   ", #   6 in fldList, rec=   6
(PID.TID 0000.0001) READ_MFLDS_3D_RL: read field: "EtaN    ", #   9 in fldList, rec= 241
(PID.TID 0000.0001) READ_MFLDS_3D_RL: read field: "dEtaHdt ", #  10 in fldList, rec= 242
(PID.TID 0000.0001) READ_MFLDS_3D_RL: read field: "EtaH    ", #  11 in fldList, rec= 243
(PID.TID 0000.0001) READ_MFLDS_CHECK: - normal end ; reset MFLDS file-name: pickup.0000008640
(PID.TID 0000.0001) // =======================================================
(PID.TID 0000.0001) // Begin MONITOR dynamic field statistics
(PID.TID 0000.0001) // =======================================================
(PID.TID 0000.0001) %MON time_tsnumber                =                  8640
(PID.TID 0000.0001) %MON time_secondsf                =   1.5552000000000E+07
(PID.TID 0000.0001) %MON dynstat_eta_max              =   1.1547478263152E-02
(PID.TID 0000.0001) %MON dynstat_eta_min              =  -2.6792518859505E-03
(PID.TID 0000.0001) %MON dynstat_eta_mean             =  -2.8025747994407E-16
(PID.TID 0000.0001) %MON dynstat_eta_sd               =   1.0200397966504E-03
(PID.TID 0000.0001) %MON dynstat_eta_del2             =   2.5371559200346E-05
(PID.TID 0000.0001) %MON dynstat_uvel_max             =   7.0225293882088E-03
(PID.TID 0000.0001) %MON dynstat_uvel_min             =  -1.1431056075099E-02
(PID.TID 0000.0001) %MON dynstat_uvel_mean            =   2.8733073796793E-05
(PID.TID 0000.0001) %MON dynstat_uvel_sd              =   1.1583626065939E-03
(PID.TID 0000.0001) %MON dynstat_uvel_del2            =   1.2791047697505E-06
(PID.TID 0000.0001) %MON dynstat_vvel_max             =   3.9338955473099E-02
(PID.TID 0000.0001) %MON dynstat_vvel_min             =  -1.3256941080851E-02
(PID.TID 0000.0001) %MON dynstat_vvel_mean            =  -9.2488922405085E-08
(PID.TID 0000.0001) %MON dynstat_vvel_sd              =   2.7751519144804E-03
(PID.TID 0000.0001) %MON dynstat_vvel_del2            =   4.9212700380926E-06
(PID.TID 0000.0001) %MON dynstat_wvel_max             =   4.2878246713501E-05
(PID.TID 0000.0001) %MON dynstat_wvel_min             =  -1.2010769874736E-04
(PID.TID 0000.0001) %MON dynstat_wvel_mean            =  -2.4994065928904E-10
(PID.TID 0000.0001) %MON dynstat_wvel_sd              =   4.2032455157767E-06
(PID.TID 0000.0001) %MON dynstat_wvel_del2            =   1.8639167581262E-08
(PID.TID 0000.0001) %MON dynstat_theta_max            =  -1.8364995507330E+00
(PID.TID 0000.0001) %MON dynstat_theta_min            =  -2.0000000000000E+00
(PID.TID 0000.0001) %MON dynstat_theta_mean           =  -1.9142907392762E+00
(PID.TID 0000.0001) %MON dynstat_theta_sd             =   3.1084271484799E-02
(PID.TID 0000.0001) %MON dynstat_theta_del2           =   6.3421694822619E-06
(PID.TID 0000.0001) %MON dynstat_salt_max             =   3.4425235078521E+01
(PID.TID 0000.0001) %MON dynstat_salt_min             =   3.4119681589956E+01
(PID.TID 0000.0001) %MON dynstat_salt_mean            =   3.4391243316095E+01
(PID.TID 0000.0001) %MON dynstat_salt_sd              =   2.3889924168882E-02
(PID.TID 0000.0001) %MON dynstat_salt_del2            =   3.3297324617654E-06
(PID.TID 0000.0001) %MON trAdv_CFL_u_max              =   0.0000000000000E+00
(PID.TID 0000.0001) %MON trAdv_CFL_v_max              =   0.0000000000000E+00
(PID.TID 0000.0001) %MON trAdv_CFL_w_max              =   0.0000000000000E+00
(PID.TID 0000.0001) %MON advcfl_uvel_max              =   3.4012427019763E-03
(PID.TID 0000.0001) %MON advcfl_vvel_max              =   6.3691067728586E-03
(PID.TID 0000.0001) %MON advcfl_wvel_max              =   7.2064619248418E-03
(PID.TID 0000.0001) %MON advcfl_W_hf_max              =   7.2064619248418E-03
(PID.TID 0000.0001) %MON pe_b_mean                    =   8.1423589033282E-09
(PID.TID 0000.0001) %MON ke_max                       =   7.7392672876306E-04
(PID.TID 0000.0001) %MON ke_mean                      =   4.4630698962803E-06
(PID.TID 0000.0001) %MON ke_vol                       =   2.9239970672193E+14
(PID.TID 0000.0001) %MON vort_r_min                   =  -2.3549373278644E-06
(PID.TID 0000.0001) %MON vort_r_max                   =   4.2468259247500E-06
(PID.TID 0000.0001) %MON vort_a_mean                  =  -1.4007197040361E-04
(PID.TID 0000.0001) %MON vort_a_sd                    =   1.7881275277953E-06
(PID.TID 0000.0001) %MON vort_p_mean                  =  -1.5023213240562E-04
(PID.TID 0000.0001) %MON vort_p_sd                    =   7.5278512043545E-05
(PID.TID 0000.0001) %MON surfExpan_theta_mean         =  -7.8766161303357E-23
(PID.TID 0000.0001) %MON surfExpan_salt_mean          =  -2.1702042447947E-11
(PID.TID 0000.0001) // =======================================================
(PID.TID 0000.0001) // End MONITOR dynamic field statistics
(PID.TID 0000.0001) // =======================================================
(PID.TID 0000.0001) whio : write lev 3 rec   1
(PID.TID 0000.0001) SOLVE_FOR_PRESSURE: putPmEinXvector =    F
 cg2d: Sum(rhs),rhsMax =   7.02479741043760E-13  5.97860431289983E-02
(PID.TID 0000.0001)      cg2d_init_res =   5.92331127616905E+00
(PID.TID 0000.0001)      cg2d_iters(min,last) =      -1     208
(PID.TID 0000.0001)      cg2d_last_res =   8.67906716519740E-14
(PID.TID 0000.0001) // =======================================================
(PID.TID 0000.0001) // Begin MONITOR dynamic field statistics
(PID.TID 0000.0001) // =======================================================
(PID.TID 0000.0001) %MON time_tsnumber                =                  8641
(PID.TID 0000.0001) %MON time_secondsf                =   1.5553800000000E+07
(PID.TID 0000.0001) %MON dynstat_eta_max              =   1.1277835806491E-02
(PID.TID 0000.0001) %MON dynstat_eta_min              =  -3.3100274749337E-03
(PID.TID 0000.0001) %MON dynstat_eta_mean             =  -2.8005304922500E-16
(PID.TID 0000.0001) %MON dynstat_eta_sd               =   9.7652378576613E-04
(PID.TID 0000.0001) %MON dynstat_eta_del2             =   8.2685609362196E-06
(PID.TID 0000.0001) %MON dynstat_uvel_max             =   6.9546551411593E-03
(PID.TID 0000.0001) %MON dynstat_uvel_min             =  -1.2109505261735E-02
(PID.TID 0000.0001) %MON dynstat_uvel_mean            =   2.5153644200267E-05
(PID.TID 0000.0001) %MON dynstat_uvel_sd              =   1.1686715425638E-03
(PID.TID 0000.0001) %MON dynstat_uvel_del2            =   1.6836980058922E-06
(PID.TID 0000.0001) %MON dynstat_vvel_max             =   3.9571337511667E-02
(PID.TID 0000.0001) %MON dynstat_vvel_min             =  -1.3257547772188E-02
(PID.TID 0000.0001) %MON dynstat_vvel_mean            =   4.6557943794559E-06
(PID.TID 0000.0001) %MON dynstat_vvel_sd              =   2.7773783645128E-03
(PID.TID 0000.0001) %MON dynstat_vvel_del2            =   4.9154622171643E-06
(PID.TID 0000.0001) %MON dynstat_wvel_max             =   4.6556690295146E-05
(PID.TID 0000.0001) %MON dynstat_wvel_min             =  -1.2002081992161E-04
(PID.TID 0000.0001) %MON dynstat_wvel_mean            =   3.8663726072455E-09
(PID.TID 0000.0001) %MON dynstat_wvel_sd              =   4.1001516809161E-06
(PID.TID 0000.0001) %MON dynstat_wvel_del2            =   1.8108872745437E-08
(PID.TID 0000.0001) %MON dynstat_theta_max            =  -1.8768972555305E+00
(PID.TID 0000.0001) %MON dynstat_theta_min            =  -2.0005180214117E+00
(PID.TID 0000.0001) %MON dynstat_theta_mean           =  -1.9142962837599E+00
(PID.TID 0000.0001) %MON dynstat_theta_sd             =   3.1097705133334E-02
(PID.TID 0000.0001) %MON dynstat_theta_del2           =   6.3188372587654E-06
(PID.TID 0000.0001) %MON dynstat_salt_max             =   3.4409178660437E+01
(PID.TID 0000.0001) %MON dynstat_salt_min             =   3.4119619528545E+01
(PID.TID 0000.0001) %MON dynstat_salt_mean            =   3.4391241303291E+01
(PID.TID 0000.0001) %MON dynstat_salt_sd              =   2.3897792806791E-02
(PID.TID 0000.0001) %MON dynstat_salt_del2            =   3.3332382433413E-06
(PID.TID 0000.0001) %MON trAdv_CFL_u_max              =   3.6031116769173E-03
(PID.TID 0000.0001) %MON trAdv_CFL_v_max              =   6.4320521681269E-03
(PID.TID 0000.0001) %MON trAdv_CFL_w_max              =   7.2012491952965E-03
(PID.TID 0000.0001) %MON advcfl_uvel_max              =   3.6031112195961E-03
(PID.TID 0000.0001) %MON advcfl_vvel_max              =   6.4067301921369E-03
(PID.TID 0000.0001) %MON advcfl_wvel_max              =   7.2012491952965E-03
(PID.TID 0000.0001) %MON advcfl_W_hf_max              =   7.2012491952965E-03
(PID.TID 0000.0001) %MON pe_b_mean                    =  -3.5738018353862E-07
(PID.TID 0000.0001) %MON ke_max                       =   7.7643731152919E-04
(PID.TID 0000.0001) %MON ke_mean                      =   4.4808444981482E-06
(PID.TID 0000.0001) %MON ke_vol                       =   2.9239970672193E+14
(PID.TID 0000.0001) %MON vort_r_min                   =  -2.3577016281599E-06
(PID.TID 0000.0001) %MON vort_r_max                   =   4.2945433831566E-06
(PID.TID 0000.0001) %MON vort_a_mean                  =  -1.4007161344052E-04
(PID.TID 0000.0001) %MON vort_a_sd                    =   1.7877722076025E-06
(PID.TID 0000.0001) %MON vort_p_mean                  =  -1.5023174955087E-04
(PID.TID 0000.0001) %MON vort_p_sd                    =   7.5268862837488E-05
(PID.TID 0000.0001) %MON surfExpan_theta_mean         =   3.2681024906939E-12
(PID.TID 0000.0001) %MON surfExpan_salt_mean          =   1.5718579707981E-09
(PID.TID 0000.0001) // =======================================================
(PID.TID 0000.0001) // End MONITOR dynamic field statistics
(PID.TID 0000.0001) // =======================================================
 cg2d: Sum(rhs),rhsMax =   7.17967352237281E-13  5.85666438487724E-02
(PID.TID 0000.0001)      cg2d_init_res =   8.70949733006754E-02
(PID.TID 0000.0001)      cg2d_iters(min,last) =      -1     199
(PID.TID 0000.0001)      cg2d_last_res =   7.54426410255172E-14
(PID.TID 0000.0001) // =======================================================
(PID.TID 0000.0001) // Begin MONITOR dynamic field statistics
(PID.TID 0000.0001) // =======================================================
(PID.TID 0000.0001) %MON time_tsnumber                =                  8642
(PID.TID 0000.0001) %MON time_secondsf                =   1.5555600000000E+07
(PID.TID 0000.0001) %MON dynstat_eta_max              =   1.1445523535077E-02
(PID.TID 0000.0001) %MON dynstat_eta_min              =  -3.5233694599755E-03
(PID.TID 0000.0001) %MON dynstat_eta_mean             =  -2.8003601333175E-16
(PID.TID 0000.0001) %MON dynstat_eta_sd               =   1.0074046547615E-03
(PID.TID 0000.0001) %MON dynstat_eta_del2             =   8.2988832094652E-06
(PID.TID 0000.0001) %MON dynstat_uvel_max             =   6.9392100542087E-03
(PID.TID 0000.0001) %MON dynstat_uvel_min             =  -1.2349127918580E-02
(PID.TID 0000.0001) %MON dynstat_uvel_mean            =   2.5618507229637E-05
(PID.TID 0000.0001) %MON dynstat_uvel_sd              =   1.1757266175898E-03
(PID.TID 0000.0001) %MON dynstat_uvel_del2            =   1.8724731606801E-06
(PID.TID 0000.0001) %MON dynstat_vvel_max             =   3.9888929871416E-02
(PID.TID 0000.0001) %MON dynstat_vvel_min             =  -1.3256839013721E-02
(PID.TID 0000.0001) %MON dynstat_vvel_mean            =   8.3210723136084E-06
(PID.TID 0000.0001) %MON dynstat_vvel_sd              =   2.7836633909785E-03
(PID.TID 0000.0001) %MON dynstat_vvel_del2            =   4.9140786980362E-06
(PID.TID 0000.0001) %MON dynstat_wvel_max             =   4.6571757004390E-05
(PID.TID 0000.0001) %MON dynstat_wvel_min             =  -1.1997223853212E-04
(PID.TID 0000.0001) %MON dynstat_wvel_mean            =   7.2173958805076E-09
(PID.TID 0000.0001) %MON dynstat_wvel_sd              =   4.0285281738176E-06
(PID.TID 0000.0001) %MON dynstat_wvel_del2            =   1.7518886089129E-08
(PID.TID 0000.0001) %MON dynstat_theta_max            =  -1.8819284655376E+00
(PID.TID 0000.0001) %MON dynstat_theta_min            =  -2.0010354253112E+00
(PID.TID 0000.0001) %MON dynstat_theta_mean           =  -1.9143018225616E+00
(PID.TID 0000.0001) %MON dynstat_theta_sd             =   3.1112234967060E-02
(PID.TID 0000.0001) %MON dynstat_theta_del2           =   6.3008899882634E-06
(PID.TID 0000.0001) %MON dynstat_salt_max             =   3.4407177485932E+01
(PID.TID 0000.0001) %MON dynstat_salt_min             =   3.4119599122928E+01
(PID.TID 0000.0001) %MON dynstat_salt_mean            =   3.4391239296802E+01
(PID.TID 0000.0001) %MON dynstat_salt_sd              =   2.3905967167225E-02
(PID.TID 0000.0001) %MON dynstat_salt_del2            =   3.3358641207328E-06
(PID.TID 0000.0001) %MON trAdv_CFL_u_max              =   3.6744099813708E-03
(PID.TID 0000.0001) %MON trAdv_CFL_v_max              =   6.4836746493105E-03
(PID.TID 0000.0001) %MON trAdv_CFL_w_max              =   7.1983343119272E-03
(PID.TID 0000.0001) %MON advcfl_uvel_max              =   3.6744095150001E-03
(PID.TID 0000.0001) %MON advcfl_vvel_max              =   6.4581494437455E-03
(PID.TID 0000.0001) %MON advcfl_wvel_max              =   7.1983343119272E-03
(PID.TID 0000.0001) %MON advcfl_W_hf_max              =   7.1983343119272E-03
(PID.TID 0000.0001) %MON pe_b_mean                    =  -3.3131379571460E-07
(PID.TID 0000.0001) %MON ke_max                       =   7.8659018401726E-04
(PID.TID 0000.0001) %MON ke_mean                      =   4.5062508905545E-06
(PID.TID 0000.0001) %MON ke_vol                       =   2.9239970672193E+14
(PID.TID 0000.0001) %MON vort_r_min                   =  -2.3607124883945E-06
(PID.TID 0000.0001) %MON vort_r_max                   =   4.3417635363467E-06
(PID.TID 0000.0001) %MON vort_a_mean                  =  -1.4007161342165E-04
(PID.TID 0000.0001) %MON vort_a_sd                    =   1.7878681948668E-06
(PID.TID 0000.0001) %MON vort_p_mean                  =  -1.5023175000277E-04
(PID.TID 0000.0001) %MON vort_p_sd                    =   7.5270559843209E-05
(PID.TID 0000.0001) %MON surfExpan_theta_mean         =   9.0486527182739E-12
(PID.TID 0000.0001) %MON surfExpan_salt_mean          =   1.6181779673627E-09
(PID.TID 0000.0001) // =======================================================
(PID.TID 0000.0001) // End MONITOR dynamic field statistics
(PID.TID 0000.0001) // =======================================================
 cg2d: Sum(rhs),rhsMax =   7.15011383434216E-13  5.85084293318551E-02
(PID.TID 0000.0001)      cg2d_init_res =   4.40742565219336E-02
(PID.TID 0000.0001)      cg2d_iters(min,last) =      -1     199
(PID.TID 0000.0001)      cg2d_last_res =   8.43818655990127E-14
(PID.TID 0000.0001) // =======================================================
(PID.TID 0000.0001) // Begin MONITOR dynamic field statistics
(PID.TID 0000.0001) // =======================================================
(PID.TID 0000.0001) %MON time_tsnumber                =                  8643
(PID.TID 0000.0001) %MON time_secondsf                =   1.5557400000000E+07
(PID.TID 0000.0001) %MON dynstat_eta_max              =   1.1519687009300E-02
(PID.TID 0000.0001) %MON dynstat_eta_min              =  -3.6515120442527E-03
(PID.TID 0000.0001) %MON dynstat_eta_mean             =  -2.8007860306489E-16
(PID.TID 0000.0001) %MON dynstat_eta_sd               =   1.0182342363997E-03
(PID.TID 0000.0001) %MON dynstat_eta_del2             =   8.2877244315693E-06
(PID.TID 0000.0001) %MON dynstat_uvel_max             =   6.9300251215448E-03
(PID.TID 0000.0001) %MON dynstat_uvel_min             =  -1.2557908438567E-02
(PID.TID 0000.0001) %MON dynstat_uvel_mean            =   2.7277565892932E-05
(PID.TID 0000.0001) %MON dynstat_uvel_sd              =   1.1847952189516E-03
(PID.TID 0000.0001) %MON dynstat_uvel_del2            =   2.0063451104816E-06
(PID.TID 0000.0001) %MON dynstat_vvel_max             =   4.0228314765189E-02
(PID.TID 0000.0001) %MON dynstat_vvel_min             =  -1.3254667809897E-02
(PID.TID 0000.0001) %MON dynstat_vvel_mean            =   1.1331329964026E-05
(PID.TID 0000.0001) %MON dynstat_vvel_sd              =   2.7898881316547E-03
(PID.TID 0000.0001) %MON dynstat_vvel_del2            =   4.9132654063568E-06
(PID.TID 0000.0001) %MON dynstat_wvel_max             =   4.6946515153223E-05
(PID.TID 0000.0001) %MON dynstat_wvel_min             =  -1.1995697751994E-04
(PID.TID 0000.0001) %MON dynstat_wvel_mean            =   8.0313198894290E-09
(PID.TID 0000.0001) %MON dynstat_wvel_sd              =   3.9937039463392E-06
(PID.TID 0000.0001) %MON dynstat_wvel_del2            =   1.7233394170973E-08
(PID.TID 0000.0001) %MON dynstat_theta_max            =  -1.8848963173442E+00
(PID.TID 0000.0001) %MON dynstat_theta_min            =  -2.0015523045223E+00
(PID.TID 0000.0001) %MON dynstat_theta_mean           =  -1.9143073557150E+00
(PID.TID 0000.0001) %MON dynstat_theta_sd             =   3.1126801683644E-02
(PID.TID 0000.0001) %MON dynstat_theta_del2           =   6.2837213095495E-06
(PID.TID 0000.0001) %MON dynstat_salt_max             =   3.4405996590661E+01
(PID.TID 0000.0001) %MON dynstat_salt_min             =   3.4119593699350E+01
(PID.TID 0000.0001) %MON dynstat_salt_mean            =   3.4391237292205E+01
(PID.TID 0000.0001) %MON dynstat_salt_sd              =   2.3914149266492E-02
(PID.TID 0000.0001) %MON dynstat_salt_del2            =   3.3381114493995E-06
(PID.TID 0000.0001) %MON trAdv_CFL_u_max              =   3.7365313903977E-03
(PID.TID 0000.0001) %MON trAdv_CFL_v_max              =   6.5388393588979E-03
(PID.TID 0000.0001) %MON trAdv_CFL_w_max              =   7.1974186511966E-03
(PID.TID 0000.0001) %MON advcfl_uvel_max              =   3.7365309161423E-03
(PID.TID 0000.0001) %MON advcfl_vvel_max              =   6.5130969785627E-03
(PID.TID 0000.0001) %MON advcfl_wvel_max              =   7.1974186511966E-03
(PID.TID 0000.0001) %MON advcfl_W_hf_max              =   7.1974186511966E-03
(PID.TID 0000.0001) %MON pe_b_mean                    =  -2.8586986819206E-07
(PID.TID 0000.0001) %MON ke_max                       =   7.9870228582674E-04
(PID.TID 0000.0001) %MON ke_mean                      =   4.5339509659903E-06
(PID.TID 0000.0001) %MON ke_vol                       =   2.9239970672193E+14
(PID.TID 0000.0001) %MON vort_r_min                   =  -2.3687617737978E-06
(PID.TID 0000.0001) %MON vort_r_max                   =   4.3806186659737E-06
(PID.TID 0000.0001) %MON vort_a_mean                  =  -1.4007161343362E-04
(PID.TID 0000.0001) %MON vort_a_sd                    =   1.7879360125740E-06
(PID.TID 0000.0001) %MON vort_p_mean                  =  -1.5023175015920E-04
(PID.TID 0000.0001) %MON vort_p_sd                    =   7.5270183341544E-05
(PID.TID 0000.0001) %MON surfExpan_theta_mean         =   1.4626451304485E-11
(PID.TID 0000.0001) %MON surfExpan_salt_mean          =   1.6705953509498E-09
(PID.TID 0000.0001) // =======================================================
(PID.TID 0000.0001) // End MONITOR dynamic field statistics
(PID.TID 0000.0001) // =======================================================
 cg2d: Sum(rhs),rhsMax =   7.19577175622987E-13  5.85096181793486E-02
(PID.TID 0000.0001)      cg2d_init_res =   4.16127878557402E-02
(PID.TID 0000.0001)      cg2d_iters(min,last) =      -1     198
(PID.TID 0000.0001)      cg2d_last_res =   8.59733259811559E-14
(PID.TID 0000.0001) // =======================================================
(PID.TID 0000.0001) // Begin MONITOR dynamic field statistics
(PID.TID 0000.0001) // =======================================================
(PID.TID 0000.0001) %MON time_tsnumber                =                  8644
(PID.TID 0000.0001) %MON time_secondsf                =   1.5559200000000E+07
(PID.TID 0000.0001) %MON dynstat_eta_max              =   1.1490505401654E-02
(PID.TID 0000.0001) %MON dynstat_eta_min              =  -3.6734534058435E-03
(PID.TID 0000.0001) %MON dynstat_eta_mean             =  -2.8010415690477E-16
(PID.TID 0000.0001) %MON dynstat_eta_sd               =   1.0150971371193E-03
(PID.TID 0000.0001) %MON dynstat_eta_del2             =   8.2897276235667E-06
(PID.TID 0000.0001) %MON dynstat_uvel_max             =   6.9284459562107E-03
(PID.TID 0000.0001) %MON dynstat_uvel_min             =  -1.2734752756677E-02
(PID.TID 0000.0001) %MON dynstat_uvel_mean            =   2.8788987449206E-05
(PID.TID 0000.0001) %MON dynstat_uvel_sd              =   1.1959004868357E-03
(PID.TID 0000.0001) %MON dynstat_uvel_del2            =   2.0683209182298E-06
(PID.TID 0000.0001) %MON dynstat_vvel_max             =   4.0562054062229E-02
(PID.TID 0000.0001) %MON dynstat_vvel_min             =  -1.3263433130664E-02
(PID.TID 0000.0001) %MON dynstat_vvel_mean            =   1.3414437246822E-05
(PID.TID 0000.0001) %MON dynstat_vvel_sd              =   2.7955452000696E-03
(PID.TID 0000.0001) %MON dynstat_vvel_del2            =   4.9132382279657E-06
(PID.TID 0000.0001) %MON dynstat_wvel_max             =   4.7345601575662E-05
(PID.TID 0000.0001) %MON dynstat_wvel_min             =  -1.1997844470735E-04
(PID.TID 0000.0001) %MON dynstat_wvel_mean            =   7.6166933974313E-09
(PID.TID 0000.0001) %MON dynstat_wvel_sd              =   3.9863353813027E-06
(PID.TID 0000.0001) %MON dynstat_wvel_del2            =   1.7124525628248E-08
(PID.TID 0000.0001) %MON dynstat_theta_max            =  -1.8867792570406E+00
(PID.TID 0000.0001) %MON dynstat_theta_min            =  -2.0020686762085E+00
(PID.TID 0000.0001) %MON dynstat_theta_mean           =  -1.9143128832272E+00
(PID.TID 0000.0001) %MON dynstat_theta_sd             =   3.1141391314760E-02
(PID.TID 0000.0001) %MON dynstat_theta_del2           =   6.2670503862652E-06
(PID.TID 0000.0001) %MON dynstat_salt_max             =   3.4405247028358E+01
(PID.TID 0000.0001) %MON dynstat_salt_min             =   3.4119595961285E+01
(PID.TID 0000.0001) %MON dynstat_salt_mean            =   3.4391235290080E+01
(PID.TID 0000.0001) %MON dynstat_salt_sd              =   2.3922319789658E-02
(PID.TID 0000.0001) %MON dynstat_salt_del2            =   3.3403220032588E-06
(PID.TID 0000.0001) %MON trAdv_CFL_u_max              =   3.7891503714219E-03
(PID.TID 0000.0001) %MON trAdv_CFL_v_max              =   6.5935351341308E-03
(PID.TID 0000.0001) %MON trAdv_CFL_w_max              =   7.1987066824407E-03
(PID.TID 0000.0001) %MON advcfl_uvel_max              =   3.7891498904879E-03
(PID.TID 0000.0001) %MON advcfl_vvel_max              =   6.5671304726295E-03
(PID.TID 0000.0001) %MON advcfl_wvel_max              =   7.1987066824407E-03
(PID.TID 0000.0001) %MON advcfl_W_hf_max              =   7.1987066824407E-03
(PID.TID 0000.0001) %MON pe_b_mean                    =  -2.3196398848676E-07
(PID.TID 0000.0001) %MON ke_max                       =   8.1163713738037E-04
(PID.TID 0000.0001) %MON ke_mean                      =   4.5625801151807E-06
(PID.TID 0000.0001) %MON ke_vol                       =   2.9239970672193E+14
(PID.TID 0000.0001) %MON vort_r_min                   =  -2.3723082530103E-06
(PID.TID 0000.0001) %MON vort_r_max                   =   4.4118879786186E-06
(PID.TID 0000.0001) %MON vort_a_mean                  =  -1.4007161358929E-04
(PID.TID 0000.0001) %MON vort_a_sd                    =   1.7879687075756E-06
(PID.TID 0000.0001) %MON vort_p_mean                  =  -1.5023175041423E-04
(PID.TID 0000.0001) %MON vort_p_sd                    =   7.5269997695503E-05
(PID.TID 0000.0001) %MON surfExpan_theta_mean         =   1.8104887079410E-11
(PID.TID 0000.0001) %MON surfExpan_salt_mean          =   1.5248353096815E-09
(PID.TID 0000.0001) // =======================================================
(PID.TID 0000.0001) // End MONITOR dynamic field statistics
(PID.TID 0000.0001) // =======================================================
 cg2d: Sum(rhs),rhsMax =   7.15524861583106E-13  5.84749577718414E-02
(PID.TID 0000.0001)      cg2d_init_res =   4.11585314657978E-02
(PID.TID 0000.0001)      cg2d_iters(min,last) =      -1     196
(PID.TID 0000.0001)      cg2d_last_res =   8.73002405920674E-14
(PID.TID 0000.0001) // =======================================================
(PID.TID 0000.0001) // Begin MONITOR dynamic field statistics
(PID.TID 0000.0001) // =======================================================
(PID.TID 0000.0001) %MON time_tsnumber                =                  8645
(PID.TID 0000.0001) %MON time_secondsf                =   1.5561000000000E+07
(PID.TID 0000.0001) %MON dynstat_eta_max              =   1.1391248149317E-02
(PID.TID 0000.0001) %MON dynstat_eta_min              =  -3.6356529226339E-03
(PID.TID 0000.0001) %MON dynstat_eta_mean             =  -2.8015526458454E-16
(PID.TID 0000.0001) %MON dynstat_eta_sd               =   1.0050428752256E-03
(PID.TID 0000.0001) %MON dynstat_eta_del2             =   8.2928490283105E-06
(PID.TID 0000.0001) %MON dynstat_uvel_max             =   6.9342393258379E-03
(PID.TID 0000.0001) %MON dynstat_uvel_min             =  -1.2877741701814E-02
(PID.TID 0000.0001) %MON dynstat_uvel_mean            =   2.9621687735617E-05
(PID.TID 0000.0001) %MON dynstat_uvel_sd              =   1.2081994322156E-03
(PID.TID 0000.0001) %MON dynstat_uvel_del2            =   2.0577527795997E-06
(PID.TID 0000.0001) %MON dynstat_vvel_max             =   4.0888824724270E-02
(PID.TID 0000.0001) %MON dynstat_vvel_min             =  -1.3278492144058E-02
(PID.TID 0000.0001) %MON dynstat_vvel_mean            =   1.4127280901565E-05
(PID.TID 0000.0001) %MON dynstat_vvel_sd              =   2.8004432658842E-03
(PID.TID 0000.0001) %MON dynstat_vvel_del2            =   4.9140696233266E-06
(PID.TID 0000.0001) %MON dynstat_wvel_max             =   4.7777238583419E-05
(PID.TID 0000.0001) %MON dynstat_wvel_min             =  -1.2003033690430E-04
(PID.TID 0000.0001) %MON dynstat_wvel_mean            =   6.4152812559094E-09
(PID.TID 0000.0001) %MON dynstat_wvel_sd              =   4.0019812021708E-06
(PID.TID 0000.0001) %MON dynstat_wvel_del2            =   1.7172526385556E-08
(PID.TID 0000.0001) %MON dynstat_theta_max            =  -1.8881073000357E+00
(PID.TID 0000.0001) %MON dynstat_theta_min            =  -2.0025845488688E+00
(PID.TID 0000.0001) %MON dynstat_theta_mean           =  -1.9143184051005E+00
(PID.TID 0000.0001) %MON dynstat_theta_sd             =   3.1155998514001E-02
(PID.TID 0000.0001) %MON dynstat_theta_del2           =   6.2507769786328E-06
(PID.TID 0000.0001) %MON dynstat_salt_max             =   3.4404718114931E+01
(PID.TID 0000.0001) %MON dynstat_salt_min             =   3.4119602686300E+01
(PID.TID 0000.0001) %MON dynstat_salt_mean            =   3.4391233290232E+01
(PID.TID 0000.0001) %MON dynstat_salt_sd              =   2.3930478773620E-02
(PID.TID 0000.0001) %MON dynstat_salt_del2            =   3.3426307426716E-06
(PID.TID 0000.0001) %MON trAdv_CFL_u_max              =   3.8316464883997E-03
(PID.TID 0000.0001) %MON trAdv_CFL_v_max              =   6.6473301306836E-03
(PID.TID 0000.0001) %MON trAdv_CFL_w_max              =   7.2018202142578E-03
(PID.TID 0000.0001) %MON advcfl_uvel_max              =   3.8316954000990E-03
(PID.TID 0000.0001) %MON advcfl_vvel_max              =   6.6200357216821E-03
(PID.TID 0000.0001) %MON advcfl_wvel_max              =   7.2018202142578E-03
(PID.TID 0000.0001) %MON advcfl_W_hf_max              =   7.2018202142578E-03
(PID.TID 0000.0001) %MON pe_b_mean                    =  -1.7986901386234E-07
(PID.TID 0000.0001) %MON ke_max                       =   8.2476587833732E-04
(PID.TID 0000.0001) %MON ke_mean                      =   4.5906394829967E-06
(PID.TID 0000.0001) %MON ke_vol                       =   2.9239970672193E+14
(PID.TID 0000.0001) %MON vort_r_min                   =  -2.3701199009329E-06
(PID.TID 0000.0001) %MON vort_r_max                   =   4.4351298488562E-06
(PID.TID 0000.0001) %MON vort_a_mean                  =  -1.4007161401688E-04
(PID.TID 0000.0001) %MON vort_a_sd                    =   1.7879684957859E-06
(PID.TID 0000.0001) %MON vort_p_mean                  =  -1.5023175093762E-04
(PID.TID 0000.0001) %MON vort_p_sd                    =   7.5269999928212E-05
(PID.TID 0000.0001) %MON surfExpan_theta_mean         =   1.8748925139223E-11
(PID.TID 0000.0001) %MON surfExpan_salt_mean          =   1.2485772712538E-09
(PID.TID 0000.0001) // =======================================================
(PID.TID 0000.0001) // End MONITOR dynamic field statistics
(PID.TID 0000.0001) // =======================================================
(PID.TID 0000.0001) %CHECKPOINT      8645 ckptA
 --> objf_shelfice(bi,bj) =  0.000000000000000D+00
 --> objf_shelfice(bi,bj) =  0.000000000000000D+00
 --> objf_shelfice(bi,bj) =  0.000000000000000D+00
 --> objf_shelfice(bi,bj) =  0.000000000000000D+00
 --> objf_shelfice(bi,bj) =  0.000000000000000D+00
 --> objf_shelfice(bi,bj) =  0.000000000000000D+00
 --> objf_shelfice(bi,bj) =  0.000000000000000D+00
 --> objf_shelfice(bi,bj) =  0.000000000000000D+00
(PID.TID 0000.0001)   early fc =  0.000000000000000D+00
 --> objf_test(bi,bj)        =  0.272283496070294D+05
 --> objf_test(bi,bj)        =  0.280618920223570D+05
 --> objf_test(bi,bj)        =  0.489322779985937D+05
 --> objf_test(bi,bj)        =  0.505632654154048D+05
 --> objf_test(bi,bj)        =  0.526333206297462D+05
 --> objf_test(bi,bj)        =  0.548246742961150D+05
 --> objf_test(bi,bj)        =  0.526314482602623D+05
 --> objf_test(bi,bj)        =  0.548244254436930D+05
(PID.TID 0000.0001)   local fc =  0.369699653673201D+06
(PID.TID 0000.0001)  global fc =  0.369699653673201D+06
(PID.TID 0000.0001) whio : write lev 2 rec   1
(PID.TID 0000.0001) SOLVE_FOR_PRESSURE: putPmEinXvector =    F
 cg2d: Sum(rhs),rhsMax =   7.02479741043760E-13  5.97860431289983E-02
 cg2d: Sum(rhs),rhsMax =   7.17967352237281E-13  5.85666438487724E-02
(PID.TID 0000.0001) whio : write lev 2 rec   2
 cg2d: Sum(rhs),rhsMax =   7.15011383434216E-13  5.85084293318551E-02
 cg2d: Sum(rhs),rhsMax =   7.19577175622987E-13  5.85096181793486E-02
(PID.TID 0000.0001) whio : write lev 2 rec   3
 cg2d: Sum(rhs),rhsMax =   7.15524861583106E-13  5.84749577718414E-02
(PID.TID 0000.0001) Did not write pickup because writePickupAtEnd = FALSE
 cg2d: Sum(rhs),rhsMax =   7.15524861583106E-13  5.84749577718414E-02
(PID.TID 0000.0001) Did not write pickup because writePickupAtEnd = FALSE
(PID.TID 0000.0001) Did not write pickup because writePickupAtEnd = FALSE
(PID.TID 0000.0001) // =======================================================
(PID.TID 0000.0001) // Begin AD_MONITOR dynamic field statistics
(PID.TID 0000.0001) // =======================================================
(PID.TID 0000.0001) %MON ad_time_tsnumber             =                  8645
(PID.TID 0000.0001) %MON ad_time_secondsf             =   1.5561000000000E+07
(PID.TID 0000.0001) %MON ad_dynstat_adeta_max         =   0.0000000000000E+00
(PID.TID 0000.0001) %MON ad_dynstat_adeta_min         =   0.0000000000000E+00
(PID.TID 0000.0001) %MON ad_dynstat_adeta_mean        =   0.0000000000000E+00
(PID.TID 0000.0001) %MON ad_dynstat_adeta_sd          =   0.0000000000000E+00
(PID.TID 0000.0001) %MON ad_dynstat_adeta_del2        =   0.0000000000000E+00
(PID.TID 0000.0001) %MON ad_dynstat_aduvel_max        =   0.0000000000000E+00
(PID.TID 0000.0001) %MON ad_dynstat_aduvel_min        =   0.0000000000000E+00
(PID.TID 0000.0001) %MON ad_dynstat_aduvel_mean       =   0.0000000000000E+00
(PID.TID 0000.0001) %MON ad_dynstat_aduvel_sd         =   0.0000000000000E+00
(PID.TID 0000.0001) %MON ad_dynstat_aduvel_del2       =   0.0000000000000E+00
(PID.TID 0000.0001) %MON ad_dynstat_advvel_max        =   0.0000000000000E+00
(PID.TID 0000.0001) %MON ad_dynstat_advvel_min        =   0.0000000000000E+00
(PID.TID 0000.0001) %MON ad_dynstat_advvel_mean       =   0.0000000000000E+00
(PID.TID 0000.0001) %MON ad_dynstat_advvel_sd         =   0.0000000000000E+00
(PID.TID 0000.0001) %MON ad_dynstat_advvel_del2       =   0.0000000000000E+00
(PID.TID 0000.0001) %MON ad_dynstat_adwvel_max        =   0.0000000000000E+00
(PID.TID 0000.0001) %MON ad_dynstat_adwvel_min        =   0.0000000000000E+00
(PID.TID 0000.0001) %MON ad_dynstat_adwvel_mean       =   0.0000000000000E+00
(PID.TID 0000.0001) %MON ad_dynstat_adwvel_sd         =   0.0000000000000E+00
(PID.TID 0000.0001) %MON ad_dynstat_adwvel_del2       =   0.0000000000000E+00
(PID.TID 0000.0001) %MON ad_dynstat_adtheta_max       =  -3.7762146000714E+00
(PID.TID 0000.0001) %MON ad_dynstat_adtheta_min       =  -4.0051690977376E+00
(PID.TID 0000.0001) %MON ad_dynstat_adtheta_mean      =  -3.8286368102010E+00
(PID.TID 0000.0001) %MON ad_dynstat_adtheta_sd        =   6.2311997028002E-02
(PID.TID 0000.0001) %MON ad_dynstat_adtheta_del2      =   3.9054913441845E-03
(PID.TID 0000.0001) %MON ad_dynstat_adsalt_max        =   0.0000000000000E+00
(PID.TID 0000.0001) %MON ad_dynstat_adsalt_min        =   0.0000000000000E+00
(PID.TID 0000.0001) %MON ad_dynstat_adsalt_mean       =   0.0000000000000E+00
(PID.TID 0000.0001) %MON ad_dynstat_adsalt_sd         =   0.0000000000000E+00
(PID.TID 0000.0001) %MON ad_dynstat_adsalt_del2       =   0.0000000000000E+00
(PID.TID 0000.0001) // =======================================================
(PID.TID 0000.0001) // End AD_MONITOR dynamic field statistics
(PID.TID 0000.0001) // =======================================================
 Calling cg2d from S/R CG2D_MAD
 cg2d: Sum(rhs),rhsMax =  -1.05693231944315E-13  1.24419866096809E-05
 cg2d: Sum(rhs),rhsMax =   7.15011383434216E-13  5.85084293318551E-02
 cg2d: Sum(rhs),rhsMax =   7.19577175622987E-13  5.85096181793486E-02
(PID.TID 0000.0001) // =======================================================
(PID.TID 0000.0001) // Begin AD_MONITOR dynamic field statistics
(PID.TID 0000.0001) // =======================================================
(PID.TID 0000.0001) %MON ad_time_tsnumber             =                  8644
(PID.TID 0000.0001) %MON ad_time_secondsf             =   1.5559200000000E+07
(PID.TID 0000.0001) %MON ad_dynstat_adeta_max         =   5.9605194161807E-03
(PID.TID 0000.0001) %MON ad_dynstat_adeta_min         =  -7.5638615361035E-03
(PID.TID 0000.0001) %MON ad_dynstat_adeta_mean        =  -7.3923490515042E-08
(PID.TID 0000.0001) %MON ad_dynstat_adeta_sd          =   9.6813584304589E-04
(PID.TID 0000.0001) %MON ad_dynstat_adeta_del2        =   1.4596422946290E-05
(PID.TID 0000.0001) %MON ad_dynstat_aduvel_max        =   1.5921956607575E-03
(PID.TID 0000.0001) %MON ad_dynstat_aduvel_min        =  -7.5856836455048E-04
(PID.TID 0000.0001) %MON ad_dynstat_aduvel_mean       =  -5.8024588306943E-07
(PID.TID 0000.0001) %MON ad_dynstat_aduvel_sd         =   1.8311047382275E-05
(PID.TID 0000.0001) %MON ad_dynstat_aduvel_del2       =   1.9060124305662E-07
(PID.TID 0000.0001) %MON ad_dynstat_advvel_max        =   7.0692762565421E-04
(PID.TID 0000.0001) %MON ad_dynstat_advvel_min        =  -1.6598377737672E-03
(PID.TID 0000.0001) %MON ad_dynstat_advvel_mean       =   2.4609646781014E-04
(PID.TID 0000.0001) %MON ad_dynstat_advvel_sd         =   1.3738258341402E-04
(PID.TID 0000.0001) %MON ad_dynstat_advvel_del2       =   3.5163678723400E-07
(PID.TID 0000.0001) %MON ad_dynstat_adwvel_max        =   7.6587063450163E-04
(PID.TID 0000.0001) %MON ad_dynstat_adwvel_min        =  -1.7929145108557E-04
(PID.TID 0000.0001) %MON ad_dynstat_adwvel_mean       =  -1.9881209692807E-07
(PID.TID 0000.0001) %MON ad_dynstat_adwvel_sd         =   5.8571483919584E-06
(PID.TID 0000.0001) %MON ad_dynstat_adwvel_del2       =   4.7767878531558E-08
(PID.TID 0000.0001) %MON ad_dynstat_adtheta_max       =  -8.8702946809364E-01
(PID.TID 0000.0001) %MON ad_dynstat_adtheta_min       =  -7.9853981462898E+00
(PID.TID 0000.0001) %MON ad_dynstat_adtheta_mean      =  -3.8288620689334E+00
(PID.TID 0000.0001) %MON ad_dynstat_adtheta_sd        =   7.7725559427583E-02
(PID.TID 0000.0001) %MON ad_dynstat_adtheta_del2      =   3.9248547383534E-03
(PID.TID 0000.0001) %MON ad_dynstat_adsalt_max        =   5.2594225359105E-04
(PID.TID 0000.0001) %MON ad_dynstat_adsalt_min        =  -4.0881382082765E-04
(PID.TID 0000.0001) %MON ad_dynstat_adsalt_mean       =   1.3283865924111E-05
(PID.TID 0000.0001) %MON ad_dynstat_adsalt_sd         =   6.2789948743523E-05
(PID.TID 0000.0001) %MON ad_dynstat_adsalt_del2       =   1.6185848354494E-07
(PID.TID 0000.0001) // =======================================================
(PID.TID 0000.0001) // End AD_MONITOR dynamic field statistics
(PID.TID 0000.0001) // =======================================================
 Calling cg2d from S/R CG2D_MAD
 cg2d: Sum(rhs),rhsMax =  -6.10622663543836E-16  2.73377509798590E-04
(PID.TID 0000.0001) // =======================================================
(PID.TID 0000.0001) // Begin AD_MONITOR dynamic field statistics
(PID.TID 0000.0001) // =======================================================
(PID.TID 0000.0001) %MON ad_time_tsnumber             =                  8643
(PID.TID 0000.0001) %MON ad_time_secondsf             =   1.5557400000000E+07
(PID.TID 0000.0001) %MON ad_dynstat_adeta_max         =   1.3451903181973E-02
(PID.TID 0000.0001) %MON ad_dynstat_adeta_min         =  -1.7296452825778E-02
(PID.TID 0000.0001) %MON ad_dynstat_adeta_mean        =  -5.6348771119301E-06
(PID.TID 0000.0001) %MON ad_dynstat_adeta_sd          =   2.1708551765780E-03
(PID.TID 0000.0001) %MON ad_dynstat_adeta_del2        =   3.2713737457534E-05
(PID.TID 0000.0001) %MON ad_dynstat_aduvel_max        =   2.7009664342015E-03
(PID.TID 0000.0001) %MON ad_dynstat_aduvel_min        =  -1.3596552725322E-03
(PID.TID 0000.0001) %MON ad_dynstat_aduvel_mean       =  -5.8237832755557E-05
(PID.TID 0000.0001) %MON ad_dynstat_aduvel_sd         =   4.1977764867737E-05
(PID.TID 0000.0001) %MON ad_dynstat_aduvel_del2       =   3.3034666070466E-07
(PID.TID 0000.0001) %MON ad_dynstat_advvel_max        =   1.1191304589793E-03
(PID.TID 0000.0001) %MON ad_dynstat_advvel_min        =  -3.1106307692517E-03
(PID.TID 0000.0001) %MON ad_dynstat_advvel_mean       =   3.7533849472407E-04
(PID.TID 0000.0001) %MON ad_dynstat_advvel_sd         =   2.4624345767449E-04
(PID.TID 0000.0001) %MON ad_dynstat_advvel_del2       =   5.7508052372327E-07
(PID.TID 0000.0001) %MON ad_dynstat_adwvel_max        =   9.5801094471974E-04
(PID.TID 0000.0001) %MON ad_dynstat_adwvel_min        =  -2.9090548740107E-04
(PID.TID 0000.0001) %MON ad_dynstat_adwvel_mean       =  -7.0263863122861E-07
(PID.TID 0000.0001) %MON ad_dynstat_adwvel_sd         =   8.0389388079121E-06
(PID.TID 0000.0001) %MON ad_dynstat_adwvel_del2       =   6.3142187404262E-08
(PID.TID 0000.0001) %MON ad_dynstat_adtheta_max       =  -7.1507869929719E-01
(PID.TID 0000.0001) %MON ad_dynstat_adtheta_min       =  -7.0912526462988E+00
(PID.TID 0000.0001) %MON ad_dynstat_adtheta_mean      =  -3.8286665624360E+00
(PID.TID 0000.0001) %MON ad_dynstat_adtheta_sd        =   7.7190366835156E-02
(PID.TID 0000.0001) %MON ad_dynstat_adtheta_del2      =   3.9234048196163E-03
(PID.TID 0000.0001) %MON ad_dynstat_adsalt_max        =   1.1519938700505E-03
(PID.TID 0000.0001) %MON ad_dynstat_adsalt_min        =  -1.1333947435202E-03
(PID.TID 0000.0001) %MON ad_dynstat_adsalt_mean       =   2.5224947972817E-05
(PID.TID 0000.0001) %MON ad_dynstat_adsalt_sd         =   1.2710423319501E-04
(PID.TID 0000.0001) %MON ad_dynstat_adsalt_del2       =   3.6870646749885E-07
(PID.TID 0000.0001) // =======================================================
(PID.TID 0000.0001) // End AD_MONITOR dynamic field statistics
(PID.TID 0000.0001) // =======================================================
 Calling cg2d from S/R CG2D_MAD
 cg2d: Sum(rhs),rhsMax =  -2.49800180540660E-16  6.31341552646055E-04
(PID.TID 0000.0001) SOLVE_FOR_PRESSURE: putPmEinXvector =    F
 cg2d: Sum(rhs),rhsMax =   7.02479741043760E-13  5.97860431289983E-02
 cg2d: Sum(rhs),rhsMax =   7.17967352237281E-13  5.85666438487724E-02
(PID.TID 0000.0001) // =======================================================
(PID.TID 0000.0001) // Begin AD_MONITOR dynamic field statistics
(PID.TID 0000.0001) // =======================================================
(PID.TID 0000.0001) %MON ad_time_tsnumber             =                  8642
(PID.TID 0000.0001) %MON ad_time_secondsf             =   1.5555600000000E+07
(PID.TID 0000.0001) %MON ad_dynstat_adeta_max         =   2.0388823447474E-02
(PID.TID 0000.0001) %MON ad_dynstat_adeta_min         =  -2.7025835818585E-02
(PID.TID 0000.0001) %MON ad_dynstat_adeta_mean        =  -1.9567956602781E-05
(PID.TID 0000.0001) %MON ad_dynstat_adeta_sd          =   3.3186779516747E-03
(PID.TID 0000.0001) %MON ad_dynstat_adeta_del2        =   4.9964752761079E-05
(PID.TID 0000.0001) %MON ad_dynstat_aduvel_max        =   3.3083848468732E-03
(PID.TID 0000.0001) %MON ad_dynstat_aduvel_min        =  -1.7142375193363E-03
(PID.TID 0000.0001) %MON ad_dynstat_aduvel_mean       =  -1.6434551032012E-04
(PID.TID 0000.0001) %MON ad_dynstat_aduvel_sd         =   7.3553998271914E-05
(PID.TID 0000.0001) %MON ad_dynstat_aduvel_del2       =   4.4469456545851E-07
(PID.TID 0000.0001) %MON ad_dynstat_advvel_max        =   1.3788274027791E-03
(PID.TID 0000.0001) %MON ad_dynstat_advvel_min        =  -4.1331442195675E-03
(PID.TID 0000.0001) %MON ad_dynstat_advvel_mean       =   3.8727317167976E-04
(PID.TID 0000.0001) %MON ad_dynstat_advvel_sd         =   3.1090409034433E-04
(PID.TID 0000.0001) %MON ad_dynstat_advvel_del2       =   6.6214241528744E-07
(PID.TID 0000.0001) %MON ad_dynstat_adwvel_max        =   9.6984940390473E-04
(PID.TID 0000.0001) %MON ad_dynstat_adwvel_min        =  -4.0788804577812E-04
(PID.TID 0000.0001) %MON ad_dynstat_adwvel_mean       =  -1.7111400293380E-06
(PID.TID 0000.0001) %MON ad_dynstat_adwvel_sd         =   1.2139157307369E-05
(PID.TID 0000.0001) %MON ad_dynstat_adwvel_del2       =   8.0990977688953E-08
(PID.TID 0000.0001) %MON ad_dynstat_adtheta_max       =  -6.6174473181805E-01
(PID.TID 0000.0001) %MON ad_dynstat_adtheta_min       =  -7.0806918459102E+00
(PID.TID 0000.0001) %MON ad_dynstat_adtheta_mean      =  -3.8285003187976E+00
(PID.TID 0000.0001) %MON ad_dynstat_adtheta_sd        =   7.8144323813252E-02
(PID.TID 0000.0001) %MON ad_dynstat_adtheta_del2      =   3.9242254559776E-03
(PID.TID 0000.0001) %MON ad_dynstat_adsalt_max        =   1.8632944584679E-03
(PID.TID 0000.0001) %MON ad_dynstat_adsalt_min        =  -2.0863101952468E-03
(PID.TID 0000.0001) %MON ad_dynstat_adsalt_mean       =   3.6474445337255E-05
(PID.TID 0000.0001) %MON ad_dynstat_adsalt_sd         =   1.9276765697630E-04
(PID.TID 0000.0001) %MON ad_dynstat_adsalt_del2       =   6.1511444028810E-07
(PID.TID 0000.0001) // =======================================================
(PID.TID 0000.0001) // End AD_MONITOR dynamic field statistics
(PID.TID 0000.0001) // =======================================================
 Calling cg2d from S/R CG2D_MAD
 cg2d: Sum(rhs),rhsMax =  -1.69309011255336E-15  9.95061768282539E-04
(PID.TID 0000.0001) // =======================================================
(PID.TID 0000.0001) // Begin AD_MONITOR dynamic field statistics
(PID.TID 0000.0001) // =======================================================
(PID.TID 0000.0001) %MON ad_time_tsnumber             =                  8641
(PID.TID 0000.0001) %MON ad_time_secondsf             =   1.5553800000000E+07
(PID.TID 0000.0001) %MON ad_dynstat_adeta_max         =   2.4881575969859E-02
(PID.TID 0000.0001) %MON ad_dynstat_adeta_min         =  -3.4558285443288E-02
(PID.TID 0000.0001) %MON ad_dynstat_adeta_mean        =  -4.1785200355577E-05
(PID.TID 0000.0001) %MON ad_dynstat_adeta_sd          =   4.1686018485914E-03
(PID.TID 0000.0001) %MON ad_dynstat_adeta_del2        =   6.2713667821133E-05
(PID.TID 0000.0001) %MON ad_dynstat_aduvel_max        =   2.5193931275024E-03
(PID.TID 0000.0001) %MON ad_dynstat_aduvel_min        =  -1.8362095814425E-03
(PID.TID 0000.0001) %MON ad_dynstat_aduvel_mean       =  -2.8268050739221E-04
(PID.TID 0000.0001) %MON ad_dynstat_aduvel_sd         =   1.0458632068145E-04
(PID.TID 0000.0001) %MON ad_dynstat_aduvel_del2       =   5.1739765310716E-07
(PID.TID 0000.0001) %MON ad_dynstat_advvel_max        =   1.4940763025695E-03
(PID.TID 0000.0001) %MON ad_dynstat_advvel_min        =  -4.6818785162817E-03
(PID.TID 0000.0001) %MON ad_dynstat_advvel_mean       =   2.9399050680762E-04
(PID.TID 0000.0001) %MON ad_dynstat_advvel_sd         =   3.3303304564307E-04
(PID.TID 0000.0001) %MON ad_dynstat_advvel_del2       =   6.2985694660699E-07
(PID.TID 0000.0001) %MON ad_dynstat_adwvel_max        =   7.0832636286786E-04
(PID.TID 0000.0001) %MON ad_dynstat_adwvel_min        =  -5.6790235847030E-04
(PID.TID 0000.0001) %MON ad_dynstat_adwvel_mean       =  -3.0075577178305E-06
(PID.TID 0000.0001) %MON ad_dynstat_adwvel_sd         =   1.8919590123329E-05
(PID.TID 0000.0001) %MON ad_dynstat_adwvel_del2       =   1.0253547561821E-07
(PID.TID 0000.0001) %MON ad_dynstat_adtheta_max       =  -6.4491508646333E-01
(PID.TID 0000.0001) %MON ad_dynstat_adtheta_min       =  -7.0674673159470E+00
(PID.TID 0000.0001) %MON ad_dynstat_adtheta_mean      =  -3.8282668456223E+00
(PID.TID 0000.0001) %MON ad_dynstat_adtheta_sd        =   7.9793821518350E-02
(PID.TID 0000.0001) %MON ad_dynstat_adtheta_del2      =   3.9318638776367E-03
(PID.TID 0000.0001) %MON ad_dynstat_adsalt_max        =   2.5045594951091E-03
(PID.TID 0000.0001) %MON ad_dynstat_adsalt_min        =  -3.1780664827363E-03
(PID.TID 0000.0001) %MON ad_dynstat_adsalt_mean       =   4.7599358759166E-05
(PID.TID 0000.0001) %MON ad_dynstat_adsalt_sd         =   2.5915612858892E-04
(PID.TID 0000.0001) %MON ad_dynstat_adsalt_del2       =   8.7353229099473E-07
(PID.TID 0000.0001) // =======================================================
(PID.TID 0000.0001) // End AD_MONITOR dynamic field statistics
(PID.TID 0000.0001) // =======================================================
 Calling cg2d from S/R CG2D_MAD
 cg2d: Sum(rhs),rhsMax =  -1.08246744900953E-15  1.28473792744445E-03
(PID.TID 0000.0001)  nRecords = 243 ; filePrec =  64 ; fileIter =      8640
(PID.TID 0000.0001)     nDims =   2 , dims:
(PID.TID 0000.0001)    1:  50   1  50
(PID.TID 0000.0001)    2: 100   1 100
(PID.TID 0000.0001)     nFlds =  11 , nFl3D =   8 , fields:
(PID.TID 0000.0001)  >Uvel    < >Vvel    < >Theta   < >Salt    < >GuNm1   < >GvNm1   < >GtNm1   < >GsNm1   < >EtaN    < >dEtaHdt < >EtaH    <
(PID.TID 0000.0001) missingVal=  1.00000000000000E+00 ; nTimRec =   1 , timeList:
(PID.TID 0000.0001)   1.555200000000E+07
(PID.TID 0000.0001) READ_MFLDS_3D_RL: read field: "Uvel    ", #   1 in fldList, rec=   1
(PID.TID 0000.0001) READ_MFLDS_3D_RL: read field: "Vvel    ", #   2 in fldList, rec=   2
(PID.TID 0000.0001) READ_MFLDS_3D_RL: read field: "Theta   ", #   3 in fldList, rec=   3
(PID.TID 0000.0001) READ_MFLDS_3D_RL: read field: "Salt    ", #   4 in fldList, rec=   4
(PID.TID 0000.0001) READ_MFLDS_3D_RL: read field: "GuNm1   ", #   5 in fldList, rec=   5
(PID.TID 0000.0001) READ_MFLDS_3D_RL: read field: "GvNm1   ", #   6 in fldList, rec=   6
(PID.TID 0000.0001) READ_MFLDS_3D_RL: read field: "EtaN    ", #   9 in fldList, rec= 241
(PID.TID 0000.0001) READ_MFLDS_3D_RL: read field: "dEtaHdt ", #  10 in fldList, rec= 242
(PID.TID 0000.0001) READ_MFLDS_3D_RL: read field: "EtaH    ", #  11 in fldList, rec= 243
(PID.TID 0000.0001) READ_MFLDS_CHECK: - normal end ; reset MFLDS file-name: pickup.0000008640
(PID.TID 0000.0001) // =======================================================
(PID.TID 0000.0001) // Begin AD_MONITOR dynamic field statistics
(PID.TID 0000.0001) // =======================================================
(PID.TID 0000.0001) %MON ad_time_tsnumber             =                  8640
(PID.TID 0000.0001) %MON ad_time_secondsf             =   1.5552000000000E+07
(PID.TID 0000.0001) %MON ad_dynstat_adeta_max         =   2.5754806101738E-02
(PID.TID 0000.0001) %MON ad_dynstat_adeta_min         =  -3.8315813093399E-02
(PID.TID 0000.0001) %MON ad_dynstat_adeta_mean        =  -6.9652082709589E-05
(PID.TID 0000.0001) %MON ad_dynstat_adeta_sd          =   4.5737864266708E-03
(PID.TID 0000.0001) %MON ad_dynstat_adeta_del2        =   6.8827601792976E-05
(PID.TID 0000.0001) %MON ad_dynstat_aduvel_max        =   2.8271221106063E-03
(PID.TID 0000.0001) %MON ad_dynstat_aduvel_min        =  -2.6974007754609E-03
(PID.TID 0000.0001) %MON ad_dynstat_aduvel_mean       =  -3.7302338249102E-04
(PID.TID 0000.0001) %MON ad_dynstat_aduvel_sd         =   1.2832336021312E-04
(PID.TID 0000.0001) %MON ad_dynstat_aduvel_del2       =   6.1323392089149E-07
(PID.TID 0000.0001) %MON ad_dynstat_advvel_max        =   1.5422349715263E-03
(PID.TID 0000.0001) %MON ad_dynstat_advvel_min        =  -5.0822669916240E-03
(PID.TID 0000.0001) %MON ad_dynstat_advvel_mean       =   1.1986150339413E-04
(PID.TID 0000.0001) %MON ad_dynstat_advvel_sd         =   3.2492526573934E-04
(PID.TID 0000.0001) %MON ad_dynstat_advvel_del2       =   5.7816445362494E-07
(PID.TID 0000.0001) %MON ad_dynstat_adwvel_max        =   6.7116284277867E-04
(PID.TID 0000.0001) %MON ad_dynstat_adwvel_min        =  -5.9876882046749E-04
(PID.TID 0000.0001) %MON ad_dynstat_adwvel_mean       =  -4.2818111468196E-06
(PID.TID 0000.0001) %MON ad_dynstat_adwvel_sd         =   2.7996145915684E-05
(PID.TID 0000.0001) %MON ad_dynstat_adwvel_del2       =   1.4498439184240E-07
(PID.TID 0000.0001) %MON ad_dynstat_adtheta_max       =  -6.3940434809295E-01
(PID.TID 0000.0001) %MON ad_dynstat_adtheta_min       =  -7.0650961623677E+00
(PID.TID 0000.0001) %MON ad_dynstat_adtheta_mean      =  -3.8283278408539E+00
(PID.TID 0000.0001) %MON ad_dynstat_adtheta_sd        =   8.6942444198607E-02
(PID.TID 0000.0001) %MON ad_dynstat_adtheta_del2      =   3.9360851751286E-03
(PID.TID 0000.0001) %MON ad_dynstat_adsalt_max        =   3.0965224803479E-03
(PID.TID 0000.0001) %MON ad_dynstat_adsalt_min        =  -4.2534751057322E-03
(PID.TID 0000.0001) %MON ad_dynstat_adsalt_mean       =   5.9093567521032E-05
(PID.TID 0000.0001) %MON ad_dynstat_adsalt_sd         =   3.2552323185646E-04
(PID.TID 0000.0001) %MON ad_dynstat_adsalt_del2       =   1.1098117392321E-06
(PID.TID 0000.0001) // =======================================================
(PID.TID 0000.0001) // End AD_MONITOR dynamic field statistics
(PID.TID 0000.0001) // =======================================================
(PID.TID 0000.0001)  nRecords = 243 ; filePrec =  64 ; fileIter =      8640
(PID.TID 0000.0001)     nDims =   2 , dims:
(PID.TID 0000.0001)    1:  50   1  50
(PID.TID 0000.0001)    2: 100   1 100
(PID.TID 0000.0001)     nFlds =  11 , nFl3D =   8 , fields:
(PID.TID 0000.0001)  >Uvel    < >Vvel    < >Theta   < >Salt    < >GuNm1   < >GvNm1   < >GtNm1   < >GsNm1   < >EtaN    < >dEtaHdt < >EtaH    <
(PID.TID 0000.0001) missingVal=  1.00000000000000E+00 ; nTimRec =   1 , timeList:
(PID.TID 0000.0001)   1.555200000000E+07
(PID.TID 0000.0001) READ_MFLDS_3D_RL: read field: "Uvel    ", #   1 in fldList, rec=   1
(PID.TID 0000.0001) READ_MFLDS_3D_RL: read field: "Vvel    ", #   2 in fldList, rec=   2
(PID.TID 0000.0001) READ_MFLDS_3D_RL: read field: "Theta   ", #   3 in fldList, rec=   3
(PID.TID 0000.0001) READ_MFLDS_3D_RL: read field: "Salt    ", #   4 in fldList, rec=   4
(PID.TID 0000.0001) READ_MFLDS_3D_RL: read field: "GuNm1   ", #   5 in fldList, rec=   5
(PID.TID 0000.0001) READ_MFLDS_3D_RL: read field: "GvNm1   ", #   6 in fldList, rec=   6
(PID.TID 0000.0001) READ_MFLDS_3D_RL: read field: "EtaN    ", #   9 in fldList, rec= 241
(PID.TID 0000.0001) READ_MFLDS_3D_RL: read field: "dEtaHdt ", #  10 in fldList, rec= 242
(PID.TID 0000.0001) READ_MFLDS_3D_RL: read field: "EtaH    ", #  11 in fldList, rec= 243
(PID.TID 0000.0001) READ_MFLDS_CHECK: - normal end ; reset MFLDS file-name: pickup.0000008640
(PID.TID 0000.0001) // =======================================================
(PID.TID 0000.0001) // Gradient-check starts (grdchk_main)
(PID.TID 0000.0001) // =======================================================
(PID.TID 0000.0001) grdchk reference fc: fcref       =  3.69699653673201E+05
grad-res -------------------------------
 grad-res  proc    #    i    j    k   bi   bj iobc       fc ref            fc + eps           fc - eps
 grad-res  proc    #    i    j    k   bi   bj iobc      adj grad            fd grad          1 - fd/adj
 grad-res exact position met: 
 grad-res     0 1579   20   24   20    1    1
(PID.TID 0000.0001) ====== Starts gradient-check number   1 (=ichknum) =======
 ph-test icomp, ncvarcomp, ichknum         1579      100450           1
 ph-grd _loc: bi, bj, icomptest, ichknum            1           1           0           1
 ph-grd _loc: bi, bj, icomptest, ichknum            1           1           0           1
 ph-grd _loc: bi, bj, icomptest, ichknum            1           1           0           1
 ph-grd _loc: bi, bj, icomptest, ichknum            1           1           0           1
 ph-grd _loc: bi, bj, icomptest, ichknum            1           1           0           1
 ph-grd _loc: bi, bj, icomptest, ichknum            1           1           0           1
 ph-grd _loc: bi, bj, icomptest, ichknum            1           1           0           1
 ph-grd _loc: bi, bj, icomptest, ichknum            1           1           0           1
 ph-grd _loc: bi, bj, icomptest, ichknum            1           1           0           1
 ph-grd _loc: bi, bj, icomptest, ichknum            1           1           0           1
 ph-grd _loc: bi, bj, icomptest, ichknum            1           1           0           1
 ph-grd _loc: bi, bj, icomptest, ichknum            1           1           0           1
 ph-grd _loc: bi, bj, icomptest, ichknum            1           1           0           1
 ph-grd _loc: bi, bj, icomptest, ichknum            1           1           0           1
 ph-grd _loc: bi, bj, icomptest, ichknum            1           1          48           1
 ph-grd _loc: bi, bj, icomptest, ichknum            1           1         168           1
 ph-grd _loc: bi, bj, icomptest, ichknum            1           1         336           1
 ph-grd _loc: bi, bj, icomptest, ichknum            1           1         576           1
 ph-grd _loc: bi, bj, icomptest, ichknum            1           1         864           1
 ph-grd _loc: bi, bj, icomptest, ichknum            1           1        1200           1
 ph-grd -->hit<--           20          24          20           1
(PID.TID 0000.0001) grdchk pos: i,j,k=   20   24   20 ; bi,bj=   1   1 ; iobc=  1 ; rec=   1
(PID.TID 0000.0001)  nRecords = 243 ; filePrec =  64 ; fileIter =      8640
(PID.TID 0000.0001)     nDims =   2 , dims:
(PID.TID 0000.0001)    1:  50   1  50
(PID.TID 0000.0001)    2: 100   1 100
(PID.TID 0000.0001)     nFlds =  11 , nFl3D =   8 , fields:
(PID.TID 0000.0001)  >Uvel    < >Vvel    < >Theta   < >Salt    < >GuNm1   < >GvNm1   < >GtNm1   < >GsNm1   < >EtaN    < >dEtaHdt < >EtaH    <
(PID.TID 0000.0001) missingVal=  1.00000000000000E+00 ; nTimRec =   1 , timeList:
(PID.TID 0000.0001)   1.555200000000E+07
(PID.TID 0000.0001) READ_MFLDS_3D_RL: read field: "Uvel    ", #   1 in fldList, rec=   1
(PID.TID 0000.0001) READ_MFLDS_3D_RL: read field: "Vvel    ", #   2 in fldList, rec=   2
(PID.TID 0000.0001) READ_MFLDS_3D_RL: read field: "Theta   ", #   3 in fldList, rec=   3
(PID.TID 0000.0001) READ_MFLDS_3D_RL: read field: "Salt    ", #   4 in fldList, rec=   4
(PID.TID 0000.0001) READ_MFLDS_3D_RL: read field: "GuNm1   ", #   5 in fldList, rec=   5
(PID.TID 0000.0001) READ_MFLDS_3D_RL: read field: "GvNm1   ", #   6 in fldList, rec=   6
(PID.TID 0000.0001) READ_MFLDS_3D_RL: read field: "EtaN    ", #   9 in fldList, rec= 241
(PID.TID 0000.0001) READ_MFLDS_3D_RL: read field: "dEtaHdt ", #  10 in fldList, rec= 242
(PID.TID 0000.0001) READ_MFLDS_3D_RL: read field: "EtaH    ", #  11 in fldList, rec= 243
(PID.TID 0000.0001) READ_MFLDS_CHECK: - normal end ; reset MFLDS file-name: pickup.0000008640
(PID.TID 0000.0001) // =======================================================
(PID.TID 0000.0001) // Model current state
(PID.TID 0000.0001) // =======================================================
(PID.TID 0000.0001) 
(PID.TID 0000.0001) SOLVE_FOR_PRESSURE: putPmEinXvector =    F
 cg2d: Sum(rhs),rhsMax =   7.02590763346223E-13  5.97860431289983E-02
 cg2d: Sum(rhs),rhsMax =   7.18536341537401E-13  5.85666438428109E-02
 cg2d: Sum(rhs),rhsMax =   7.16468551154037E-13  5.85084293282602E-02
 cg2d: Sum(rhs),rhsMax =   7.17648163117701E-13  5.85096181810937E-02
 cg2d: Sum(rhs),rhsMax =   7.17231829483467E-13  5.84749577759113E-02
(PID.TID 0000.0001) Did not write pickup because writePickupAtEnd = FALSE
 --> objf_shelfice(bi,bj) =  0.000000000000000D+00
 --> objf_shelfice(bi,bj) =  0.000000000000000D+00
 --> objf_shelfice(bi,bj) =  0.000000000000000D+00
 --> objf_shelfice(bi,bj) =  0.000000000000000D+00
 --> objf_shelfice(bi,bj) =  0.000000000000000D+00
 --> objf_shelfice(bi,bj) =  0.000000000000000D+00
 --> objf_shelfice(bi,bj) =  0.000000000000000D+00
 --> objf_shelfice(bi,bj) =  0.000000000000000D+00
(PID.TID 0000.0001)   early fc =  0.000000000000000D+00
 --> objf_test(bi,bj)        =  0.272283492244195D+05
 --> objf_test(bi,bj)        =  0.280618920223571D+05
 --> objf_test(bi,bj)        =  0.489322779985937D+05
 --> objf_test(bi,bj)        =  0.505632654154048D+05
 --> objf_test(bi,bj)        =  0.526333206297462D+05
 --> objf_test(bi,bj)        =  0.548246742961150D+05
 --> objf_test(bi,bj)        =  0.526314482602624D+05
 --> objf_test(bi,bj)        =  0.548244254436930D+05
(PID.TID 0000.0001)   local fc =  0.369699653290592D+06
(PID.TID 0000.0001)  global fc =  0.369699653290592D+06
(PID.TID 0000.0001) grdchk perturb(+)fc: fcpertplus  =  3.69699653290592E+05
(PID.TID 0000.0001)  nRecords = 243 ; filePrec =  64 ; fileIter =      8640
(PID.TID 0000.0001)     nDims =   2 , dims:
(PID.TID 0000.0001)    1:  50   1  50
(PID.TID 0000.0001)    2: 100   1 100
(PID.TID 0000.0001)     nFlds =  11 , nFl3D =   8 , fields:
(PID.TID 0000.0001)  >Uvel    < >Vvel    < >Theta   < >Salt    < >GuNm1   < >GvNm1   < >GtNm1   < >GsNm1   < >EtaN    < >dEtaHdt < >EtaH    <
(PID.TID 0000.0001) missingVal=  1.00000000000000E+00 ; nTimRec =   1 , timeList:
(PID.TID 0000.0001)   1.555200000000E+07
(PID.TID 0000.0001) READ_MFLDS_3D_RL: read field: "Uvel    ", #   1 in fldList, rec=   1
(PID.TID 0000.0001) READ_MFLDS_3D_RL: read field: "Vvel    ", #   2 in fldList, rec=   2
(PID.TID 0000.0001) READ_MFLDS_3D_RL: read field: "Theta   ", #   3 in fldList, rec=   3
(PID.TID 0000.0001) READ_MFLDS_3D_RL: read field: "Salt    ", #   4 in fldList, rec=   4
(PID.TID 0000.0001) READ_MFLDS_3D_RL: read field: "GuNm1   ", #   5 in fldList, rec=   5
(PID.TID 0000.0001) READ_MFLDS_3D_RL: read field: "GvNm1   ", #   6 in fldList, rec=   6
(PID.TID 0000.0001) READ_MFLDS_3D_RL: read field: "EtaN    ", #   9 in fldList, rec= 241
(PID.TID 0000.0001) READ_MFLDS_3D_RL: read field: "dEtaHdt ", #  10 in fldList, rec= 242
(PID.TID 0000.0001) READ_MFLDS_3D_RL: read field: "EtaH    ", #  11 in fldList, rec= 243
(PID.TID 0000.0001) READ_MFLDS_CHECK: - normal end ; reset MFLDS file-name: pickup.0000008640
(PID.TID 0000.0001) // =======================================================
(PID.TID 0000.0001) // Model current state
(PID.TID 0000.0001) // =======================================================
(PID.TID 0000.0001) 
(PID.TID 0000.0001) SOLVE_FOR_PRESSURE: putPmEinXvector =    F
 cg2d: Sum(rhs),rhsMax =   7.02479741043760E-13  5.97860431289983E-02
 cg2d: Sum(rhs),rhsMax =   7.17981230025089E-13  5.85666438547836E-02
 cg2d: Sum(rhs),rhsMax =   7.18078374539743E-13  5.85084293354893E-02
 cg2d: Sum(rhs),rhsMax =   7.18258785781245E-13  5.85096181776509E-02
 cg2d: Sum(rhs),rhsMax =   7.14497905285327E-13  5.84749577677134E-02
(PID.TID 0000.0001) Did not write pickup because writePickupAtEnd = FALSE
 --> objf_shelfice(bi,bj) =  0.000000000000000D+00
 --> objf_shelfice(bi,bj) =  0.000000000000000D+00
 --> objf_shelfice(bi,bj) =  0.000000000000000D+00
 --> objf_shelfice(bi,bj) =  0.000000000000000D+00
 --> objf_shelfice(bi,bj) =  0.000000000000000D+00
 --> objf_shelfice(bi,bj) =  0.000000000000000D+00
 --> objf_shelfice(bi,bj) =  0.000000000000000D+00
 --> objf_shelfice(bi,bj) =  0.000000000000000D+00
(PID.TID 0000.0001)   early fc =  0.000000000000000D+00
 --> objf_test(bi,bj)        =  0.272283499896579D+05
 --> objf_test(bi,bj)        =  0.280618920223569D+05
 --> objf_test(bi,bj)        =  0.489322779985936D+05
 --> objf_test(bi,bj)        =  0.505632654154048D+05
 --> objf_test(bi,bj)        =  0.526333206297462D+05
 --> objf_test(bi,bj)        =  0.548246742961150D+05
 --> objf_test(bi,bj)        =  0.526314482602623D+05
 --> objf_test(bi,bj)        =  0.548244254436929D+05
(PID.TID 0000.0001)   local fc =  0.369699654055830D+06
(PID.TID 0000.0001)  global fc =  0.369699654055830D+06
(PID.TID 0000.0001) grdchk perturb(-)fc: fcpertminus =  3.69699654055830E+05
grad-res -------------------------------
 grad-res     0    1   20   24   20    1    1    1   3.69699653673E+05  3.69699653291E+05  3.69699654056E+05
 grad-res     0    1    1 1579    0    1    1    1  -3.82618723168E+00 -3.82618833100E+00 -2.87316430869E-07
(PID.TID 0000.0001)  ADM  ref_cost_function      =  3.69699653673201E+05
(PID.TID 0000.0001)  ADM  adjoint_gradient       = -3.82618723167777E+00
(PID.TID 0000.0001)  ADM  finite-diff_grad       = -3.82618833100423E+00
(PID.TID 0000.0001) ====== End of gradient-check number   1 (ierr=  0) =======
(PID.TID 0000.0001) ====== Starts gradient-check number   2 (=ichknum) =======
 ph-test icomp, ncvarcomp, ichknum         1580      100450           2
 ph-grd _loc: bi, bj, icomptest, ichknum            1           1        1579           2
 ph-grd -->hit<--           21          24          20           1
(PID.TID 0000.0001) grdchk pos: i,j,k=   21   24   20 ; bi,bj=   1   1 ; iobc=  1 ; rec=   1
(PID.TID 0000.0001)  nRecords = 243 ; filePrec =  64 ; fileIter =      8640
(PID.TID 0000.0001)     nDims =   2 , dims:
(PID.TID 0000.0001)    1:  50   1  50
(PID.TID 0000.0001)    2: 100   1 100
(PID.TID 0000.0001)     nFlds =  11 , nFl3D =   8 , fields:
(PID.TID 0000.0001)  >Uvel    < >Vvel    < >Theta   < >Salt    < >GuNm1   < >GvNm1   < >GtNm1   < >GsNm1   < >EtaN    < >dEtaHdt < >EtaH    <
(PID.TID 0000.0001) missingVal=  1.00000000000000E+00 ; nTimRec =   1 , timeList:
(PID.TID 0000.0001)   1.555200000000E+07
(PID.TID 0000.0001) READ_MFLDS_3D_RL: read field: "Uvel    ", #   1 in fldList, rec=   1
(PID.TID 0000.0001) READ_MFLDS_3D_RL: read field: "Vvel    ", #   2 in fldList, rec=   2
(PID.TID 0000.0001) READ_MFLDS_3D_RL: read field: "Theta   ", #   3 in fldList, rec=   3
(PID.TID 0000.0001) READ_MFLDS_3D_RL: read field: "Salt    ", #   4 in fldList, rec=   4
(PID.TID 0000.0001) READ_MFLDS_3D_RL: read field: "GuNm1   ", #   5 in fldList, rec=   5
(PID.TID 0000.0001) READ_MFLDS_3D_RL: read field: "GvNm1   ", #   6 in fldList, rec=   6
(PID.TID 0000.0001) READ_MFLDS_3D_RL: read field: "EtaN    ", #   9 in fldList, rec= 241
(PID.TID 0000.0001) READ_MFLDS_3D_RL: read field: "dEtaHdt ", #  10 in fldList, rec= 242
(PID.TID 0000.0001) READ_MFLDS_3D_RL: read field: "EtaH    ", #  11 in fldList, rec= 243
(PID.TID 0000.0001) READ_MFLDS_CHECK: - normal end ; reset MFLDS file-name: pickup.0000008640
(PID.TID 0000.0001) // =======================================================
(PID.TID 0000.0001) // Model current state
(PID.TID 0000.0001) // =======================================================
(PID.TID 0000.0001) 
(PID.TID 0000.0001) SOLVE_FOR_PRESSURE: putPmEinXvector =    F
 cg2d: Sum(rhs),rhsMax =   7.02590763346223E-13  5.97860431289983E-02
 cg2d: Sum(rhs),rhsMax =   7.18591852688633E-13  5.85666438431513E-02
 cg2d: Sum(rhs),rhsMax =   7.15635883885568E-13  5.85084293280015E-02
 cg2d: Sum(rhs),rhsMax =   7.13235026594816E-13  5.85096181803248E-02
 cg2d: Sum(rhs),rhsMax =   7.12985226414276E-13  5.84749577749610E-02
(PID.TID 0000.0001) Did not write pickup because writePickupAtEnd = FALSE
 --> objf_shelfice(bi,bj) =  0.000000000000000D+00
 --> objf_shelfice(bi,bj) =  0.000000000000000D+00
 --> objf_shelfice(bi,bj) =  0.000000000000000D+00
 --> objf_shelfice(bi,bj) =  0.000000000000000D+00
 --> objf_shelfice(bi,bj) =  0.000000000000000D+00
 --> objf_shelfice(bi,bj) =  0.000000000000000D+00
 --> objf_shelfice(bi,bj) =  0.000000000000000D+00
 --> objf_shelfice(bi,bj) =  0.000000000000000D+00
(PID.TID 0000.0001)   early fc =  0.000000000000000D+00
 --> objf_test(bi,bj)        =  0.272283492244733D+05
 --> objf_test(bi,bj)        =  0.280618920223570D+05
 --> objf_test(bi,bj)        =  0.489322779985938D+05
 --> objf_test(bi,bj)        =  0.505632654154049D+05
 --> objf_test(bi,bj)        =  0.526333206297462D+05
 --> objf_test(bi,bj)        =  0.548246742961150D+05
 --> objf_test(bi,bj)        =  0.526314482602624D+05
 --> objf_test(bi,bj)        =  0.548244254436930D+05
(PID.TID 0000.0001)   local fc =  0.369699653290646D+06
(PID.TID 0000.0001)  global fc =  0.369699653290646D+06
(PID.TID 0000.0001) grdchk perturb(+)fc: fcpertplus  =  3.69699653290646E+05
(PID.TID 0000.0001)  nRecords = 243 ; filePrec =  64 ; fileIter =      8640
(PID.TID 0000.0001)     nDims =   2 , dims:
(PID.TID 0000.0001)    1:  50   1  50
(PID.TID 0000.0001)    2: 100   1 100
(PID.TID 0000.0001)     nFlds =  11 , nFl3D =   8 , fields:
(PID.TID 0000.0001)  >Uvel    < >Vvel    < >Theta   < >Salt    < >GuNm1   < >GvNm1   < >GtNm1   < >GsNm1   < >EtaN    < >dEtaHdt < >EtaH    <
(PID.TID 0000.0001) missingVal=  1.00000000000000E+00 ; nTimRec =   1 , timeList:
(PID.TID 0000.0001)   1.555200000000E+07
(PID.TID 0000.0001) READ_MFLDS_3D_RL: read field: "Uvel    ", #   1 in fldList, rec=   1
(PID.TID 0000.0001) READ_MFLDS_3D_RL: read field: "Vvel    ", #   2 in fldList, rec=   2
(PID.TID 0000.0001) READ_MFLDS_3D_RL: read field: "Theta   ", #   3 in fldList, rec=   3
(PID.TID 0000.0001) READ_MFLDS_3D_RL: read field: "Salt    ", #   4 in fldList, rec=   4
(PID.TID 0000.0001) READ_MFLDS_3D_RL: read field: "GuNm1   ", #   5 in fldList, rec=   5
(PID.TID 0000.0001) READ_MFLDS_3D_RL: read field: "GvNm1   ", #   6 in fldList, rec=   6
(PID.TID 0000.0001) READ_MFLDS_3D_RL: read field: "EtaN    ", #   9 in fldList, rec= 241
(PID.TID 0000.0001) READ_MFLDS_3D_RL: read field: "dEtaHdt ", #  10 in fldList, rec= 242
(PID.TID 0000.0001) READ_MFLDS_3D_RL: read field: "EtaH    ", #  11 in fldList, rec= 243
(PID.TID 0000.0001) READ_MFLDS_CHECK: - normal end ; reset MFLDS file-name: pickup.0000008640
(PID.TID 0000.0001) // =======================================================
(PID.TID 0000.0001) // Model current state
(PID.TID 0000.0001) // =======================================================
(PID.TID 0000.0001) 
(PID.TID 0000.0001) SOLVE_FOR_PRESSURE: putPmEinXvector =    F
 cg2d: Sum(rhs),rhsMax =   7.02646274497454E-13  5.97860431289983E-02
 cg2d: Sum(rhs),rhsMax =   7.13276659958240E-13  5.85666438544347E-02
 cg2d: Sum(rhs),rhsMax =   7.17259585059082E-13  5.85084293356958E-02
 cg2d: Sum(rhs),rhsMax =   7.20520865193919E-13  5.85096181783839E-02
 cg2d: Sum(rhs),rhsMax =   7.17231829483467E-13  5.84749577686914E-02
(PID.TID 0000.0001) Did not write pickup because writePickupAtEnd = FALSE
 --> objf_shelfice(bi,bj) =  0.000000000000000D+00
 --> objf_shelfice(bi,bj) =  0.000000000000000D+00
 --> objf_shelfice(bi,bj) =  0.000000000000000D+00
 --> objf_shelfice(bi,bj) =  0.000000000000000D+00
 --> objf_shelfice(bi,bj) =  0.000000000000000D+00
 --> objf_shelfice(bi,bj) =  0.000000000000000D+00
 --> objf_shelfice(bi,bj) =  0.000000000000000D+00
 --> objf_shelfice(bi,bj) =  0.000000000000000D+00
(PID.TID 0000.0001)   early fc =  0.000000000000000D+00
 --> objf_test(bi,bj)        =  0.272283499896043D+05
 --> objf_test(bi,bj)        =  0.280618920223569D+05
 --> objf_test(bi,bj)        =  0.489322779985936D+05
 --> objf_test(bi,bj)        =  0.505632654154048D+05
 --> objf_test(bi,bj)        =  0.526333206297462D+05
 --> objf_test(bi,bj)        =  0.548246742961150D+05
 --> objf_test(bi,bj)        =  0.526314482602623D+05
 --> objf_test(bi,bj)        =  0.548244254436929D+05
(PID.TID 0000.0001)   local fc =  0.369699654055776D+06
(PID.TID 0000.0001)  global fc =  0.369699654055776D+06
(PID.TID 0000.0001) grdchk perturb(-)fc: fcpertminus =  3.69699654055776E+05
grad-res -------------------------------
 grad-res     0    2   21   24   20    1    1    1   3.69699653673E+05  3.69699653291E+05  3.69699654056E+05
 grad-res     0    2    2 1580    0    1    1    1  -3.82565153032E+00 -3.82565136533E+00  4.31275596346E-08
(PID.TID 0000.0001)  ADM  ref_cost_function      =  3.69699653673201E+05
(PID.TID 0000.0001)  ADM  adjoint_gradient       = -3.82565153032332E+00
(PID.TID 0000.0001)  ADM  finite-diff_grad       = -3.82565136533231E+00
(PID.TID 0000.0001) ====== End of gradient-check number   2 (ierr=  0) =======
(PID.TID 0000.0001) ====== Starts gradient-check number   3 (=ichknum) =======
 ph-test icomp, ncvarcomp, ichknum         1581      100450           3
 ph-grd _loc: bi, bj, icomptest, ichknum            1           1        1580           3
 ph-grd -->hit<--           22          24          20           1
(PID.TID 0000.0001) grdchk pos: i,j,k=   22   24   20 ; bi,bj=   1   1 ; iobc=  1 ; rec=   1
(PID.TID 0000.0001)  nRecords = 243 ; filePrec =  64 ; fileIter =      8640
(PID.TID 0000.0001)     nDims =   2 , dims:
(PID.TID 0000.0001)    1:  50   1  50
(PID.TID 0000.0001)    2: 100   1 100
(PID.TID 0000.0001)     nFlds =  11 , nFl3D =   8 , fields:
(PID.TID 0000.0001)  >Uvel    < >Vvel    < >Theta   < >Salt    < >GuNm1   < >GvNm1   < >GtNm1   < >GsNm1   < >EtaN    < >dEtaHdt < >EtaH    <
(PID.TID 0000.0001) missingVal=  1.00000000000000E+00 ; nTimRec =   1 , timeList:
(PID.TID 0000.0001)   1.555200000000E+07
(PID.TID 0000.0001) READ_MFLDS_3D_RL: read field: "Uvel    ", #   1 in fldList, rec=   1
(PID.TID 0000.0001) READ_MFLDS_3D_RL: read field: "Vvel    ", #   2 in fldList, rec=   2
(PID.TID 0000.0001) READ_MFLDS_3D_RL: read field: "Theta   ", #   3 in fldList, rec=   3
(PID.TID 0000.0001) READ_MFLDS_3D_RL: read field: "Salt    ", #   4 in fldList, rec=   4
(PID.TID 0000.0001) READ_MFLDS_3D_RL: read field: "GuNm1   ", #   5 in fldList, rec=   5
(PID.TID 0000.0001) READ_MFLDS_3D_RL: read field: "GvNm1   ", #   6 in fldList, rec=   6
(PID.TID 0000.0001) READ_MFLDS_3D_RL: read field: "EtaN    ", #   9 in fldList, rec= 241
(PID.TID 0000.0001) READ_MFLDS_3D_RL: read field: "dEtaHdt ", #  10 in fldList, rec= 242
(PID.TID 0000.0001) READ_MFLDS_3D_RL: read field: "EtaH    ", #  11 in fldList, rec= 243
(PID.TID 0000.0001) READ_MFLDS_CHECK: - normal end ; reset MFLDS file-name: pickup.0000008640
(PID.TID 0000.0001) // =======================================================
(PID.TID 0000.0001) // Model current state
(PID.TID 0000.0001) // =======================================================
(PID.TID 0000.0001) 
(PID.TID 0000.0001) SOLVE_FOR_PRESSURE: putPmEinXvector =    F
 cg2d: Sum(rhs),rhsMax =   7.02646274497454E-13  5.97860431289983E-02
 cg2d: Sum(rhs),rhsMax =   7.16079973095418E-13  5.85666438434653E-02
 cg2d: Sum(rhs),rhsMax =   7.16857129212656E-13  5.85084293278359E-02
 cg2d: Sum(rhs),rhsMax =   7.17634285329893E-13  5.85096181796713E-02
 cg2d: Sum(rhs),rhsMax =   7.22269466457703E-13  5.84749577740667E-02
(PID.TID 0000.0001) Did not write pickup because writePickupAtEnd = FALSE
 --> objf_shelfice(bi,bj) =  0.000000000000000D+00
 --> objf_shelfice(bi,bj) =  0.000000000000000D+00
 --> objf_shelfice(bi,bj) =  0.000000000000000D+00
 --> objf_shelfice(bi,bj) =  0.000000000000000D+00
 --> objf_shelfice(bi,bj) =  0.000000000000000D+00
 --> objf_shelfice(bi,bj) =  0.000000000000000D+00
 --> objf_shelfice(bi,bj) =  0.000000000000000D+00
 --> objf_shelfice(bi,bj) =  0.000000000000000D+00
(PID.TID 0000.0001)   early fc =  0.000000000000000D+00
 --> objf_test(bi,bj)        =  0.272283492245075D+05
 --> objf_test(bi,bj)        =  0.280618920223576D+05
 --> objf_test(bi,bj)        =  0.489322779985947D+05
 --> objf_test(bi,bj)        =  0.505632654154049D+05
 --> objf_test(bi,bj)        =  0.526333206297462D+05
 --> objf_test(bi,bj)        =  0.548246742961150D+05
 --> objf_test(bi,bj)        =  0.526314482602624D+05
 --> objf_test(bi,bj)        =  0.548244254436930D+05
(PID.TID 0000.0001)   local fc =  0.369699653290681D+06
(PID.TID 0000.0001)  global fc =  0.369699653290681D+06
(PID.TID 0000.0001) grdchk perturb(+)fc: fcpertplus  =  3.69699653290681E+05
(PID.TID 0000.0001)  nRecords = 243 ; filePrec =  64 ; fileIter =      8640
(PID.TID 0000.0001)     nDims =   2 , dims:
(PID.TID 0000.0001)    1:  50   1  50
(PID.TID 0000.0001)    2: 100   1 100
(PID.TID 0000.0001)     nFlds =  11 , nFl3D =   8 , fields:
(PID.TID 0000.0001)  >Uvel    < >Vvel    < >Theta   < >Salt    < >GuNm1   < >GvNm1   < >GtNm1   < >GsNm1   < >EtaN    < >dEtaHdt < >EtaH    <
(PID.TID 0000.0001) missingVal=  1.00000000000000E+00 ; nTimRec =   1 , timeList:
(PID.TID 0000.0001)   1.555200000000E+07
(PID.TID 0000.0001) READ_MFLDS_3D_RL: read field: "Uvel    ", #   1 in fldList, rec=   1
(PID.TID 0000.0001) READ_MFLDS_3D_RL: read field: "Vvel    ", #   2 in fldList, rec=   2
(PID.TID 0000.0001) READ_MFLDS_3D_RL: read field: "Theta   ", #   3 in fldList, rec=   3
(PID.TID 0000.0001) READ_MFLDS_3D_RL: read field: "Salt    ", #   4 in fldList, rec=   4
(PID.TID 0000.0001) READ_MFLDS_3D_RL: read field: "GuNm1   ", #   5 in fldList, rec=   5
(PID.TID 0000.0001) READ_MFLDS_3D_RL: read field: "GvNm1   ", #   6 in fldList, rec=   6
(PID.TID 0000.0001) READ_MFLDS_3D_RL: read field: "EtaN    ", #   9 in fldList, rec= 241
(PID.TID 0000.0001) READ_MFLDS_3D_RL: read field: "dEtaHdt ", #  10 in fldList, rec= 242
(PID.TID 0000.0001) READ_MFLDS_3D_RL: read field: "EtaH    ", #  11 in fldList, rec= 243
(PID.TID 0000.0001) READ_MFLDS_CHECK: - normal end ; reset MFLDS file-name: pickup.0000008640
(PID.TID 0000.0001) // =======================================================
(PID.TID 0000.0001) // Model current state
(PID.TID 0000.0001) // =======================================================
(PID.TID 0000.0001) 
(PID.TID 0000.0001) SOLVE_FOR_PRESSURE: putPmEinXvector =    F
 cg2d: Sum(rhs),rhsMax =   7.02590763346223E-13  5.97860431289983E-02
 cg2d: Sum(rhs),rhsMax =   7.18411441447131E-13  5.85666438541265E-02
 cg2d: Sum(rhs),rhsMax =   7.18272663569053E-13  5.85084293358631E-02
 cg2d: Sum(rhs),rhsMax =   7.17051418241965E-13  5.85096181790258E-02
 cg2d: Sum(rhs),rhsMax =   7.20090653771877E-13  5.84749577695525E-02
(PID.TID 0000.0001) Did not write pickup because writePickupAtEnd = FALSE
 --> objf_shelfice(bi,bj) =  0.000000000000000D+00
 --> objf_shelfice(bi,bj) =  0.000000000000000D+00
 --> objf_shelfice(bi,bj) =  0.000000000000000D+00
 --> objf_shelfice(bi,bj) =  0.000000000000000D+00
 --> objf_shelfice(bi,bj) =  0.000000000000000D+00
 --> objf_shelfice(bi,bj) =  0.000000000000000D+00
 --> objf_shelfice(bi,bj) =  0.000000000000000D+00
 --> objf_shelfice(bi,bj) =  0.000000000000000D+00
(PID.TID 0000.0001)   early fc =  0.000000000000000D+00
 --> objf_test(bi,bj)        =  0.272283499895700D+05
 --> objf_test(bi,bj)        =  0.280618920223563D+05
 --> objf_test(bi,bj)        =  0.489322779985927D+05
 --> objf_test(bi,bj)        =  0.505632654154048D+05
 --> objf_test(bi,bj)        =  0.526333206297462D+05
 --> objf_test(bi,bj)        =  0.548246742961150D+05
 --> objf_test(bi,bj)        =  0.526314482602623D+05
 --> objf_test(bi,bj)        =  0.548244254436929D+05
(PID.TID 0000.0001)   local fc =  0.369699654055740D+06
(PID.TID 0000.0001)  global fc =  0.369699654055740D+06
(PID.TID 0000.0001) grdchk perturb(-)fc: fcpertminus =  3.69699654055740E+05
grad-res -------------------------------
 grad-res     0    3   22   24   20    1    1    1   3.69699653673E+05  3.69699653291E+05  3.69699654056E+05
 grad-res     0    3    3 1581    0    1    1    1  -3.82529426160E+00 -3.82529426133E+00  7.02427005450E-11
(PID.TID 0000.0001)  ADM  ref_cost_function      =  3.69699653673201E+05
(PID.TID 0000.0001)  ADM  adjoint_gradient       = -3.82529426160130E+00
(PID.TID 0000.0001)  ADM  finite-diff_grad       = -3.82529426133260E+00
(PID.TID 0000.0001) ====== End of gradient-check number   3 (ierr=  0) =======
(PID.TID 0000.0001) ====== Starts gradient-check number   4 (=ichknum) =======
 ph-test icomp, ncvarcomp, ichknum         1582      100450           4
 ph-grd _loc: bi, bj, icomptest, ichknum            1           1        1581           4
 ph-grd -->hit<--           23          24          20           1
(PID.TID 0000.0001) grdchk pos: i,j,k=   23   24   20 ; bi,bj=   1   1 ; iobc=  1 ; rec=   1
(PID.TID 0000.0001)  nRecords = 243 ; filePrec =  64 ; fileIter =      8640
(PID.TID 0000.0001)     nDims =   2 , dims:
(PID.TID 0000.0001)    1:  50   1  50
(PID.TID 0000.0001)    2: 100   1 100
(PID.TID 0000.0001)     nFlds =  11 , nFl3D =   8 , fields:
(PID.TID 0000.0001)  >Uvel    < >Vvel    < >Theta   < >Salt    < >GuNm1   < >GvNm1   < >GtNm1   < >GsNm1   < >EtaN    < >dEtaHdt < >EtaH    <
(PID.TID 0000.0001) missingVal=  1.00000000000000E+00 ; nTimRec =   1 , timeList:
(PID.TID 0000.0001)   1.555200000000E+07
(PID.TID 0000.0001) READ_MFLDS_3D_RL: read field: "Uvel    ", #   1 in fldList, rec=   1
(PID.TID 0000.0001) READ_MFLDS_3D_RL: read field: "Vvel    ", #   2 in fldList, rec=   2
(PID.TID 0000.0001) READ_MFLDS_3D_RL: read field: "Theta   ", #   3 in fldList, rec=   3
(PID.TID 0000.0001) READ_MFLDS_3D_RL: read field: "Salt    ", #   4 in fldList, rec=   4
(PID.TID 0000.0001) READ_MFLDS_3D_RL: read field: "GuNm1   ", #   5 in fldList, rec=   5
(PID.TID 0000.0001) READ_MFLDS_3D_RL: read field: "GvNm1   ", #   6 in fldList, rec=   6
(PID.TID 0000.0001) READ_MFLDS_3D_RL: read field: "EtaN    ", #   9 in fldList, rec= 241
(PID.TID 0000.0001) READ_MFLDS_3D_RL: read field: "dEtaHdt ", #  10 in fldList, rec= 242
(PID.TID 0000.0001) READ_MFLDS_3D_RL: read field: "EtaH    ", #  11 in fldList, rec= 243
(PID.TID 0000.0001) READ_MFLDS_CHECK: - normal end ; reset MFLDS file-name: pickup.0000008640
(PID.TID 0000.0001) // =======================================================
(PID.TID 0000.0001) // Model current state
(PID.TID 0000.0001) // =======================================================
(PID.TID 0000.0001) 
(PID.TID 0000.0001) SOLVE_FOR_PRESSURE: putPmEinXvector =    F
 cg2d: Sum(rhs),rhsMax =   7.02535252194991E-13  5.97860431289983E-02
 cg2d: Sum(rhs),rhsMax =   7.19105330837522E-13  5.85666438438073E-02
 cg2d: Sum(rhs),rhsMax =   7.18508585961786E-13  5.85084293277456E-02
 cg2d: Sum(rhs),rhsMax =   7.16662840183346E-13  5.85096181791014E-02
 cg2d: Sum(rhs),rhsMax =   7.16801618061425E-13  5.84749577733250E-02
(PID.TID 0000.0001) Did not write pickup because writePickupAtEnd = FALSE
 --> objf_shelfice(bi,bj) =  0.000000000000000D+00
 --> objf_shelfice(bi,bj) =  0.000000000000000D+00
 --> objf_shelfice(bi,bj) =  0.000000000000000D+00
 --> objf_shelfice(bi,bj) =  0.000000000000000D+00
 --> objf_shelfice(bi,bj) =  0.000000000000000D+00
 --> objf_shelfice(bi,bj) =  0.000000000000000D+00
 --> objf_shelfice(bi,bj) =  0.000000000000000D+00
 --> objf_shelfice(bi,bj) =  0.000000000000000D+00
(PID.TID 0000.0001)   early fc =  0.000000000000000D+00
 --> objf_test(bi,bj)        =  0.272283492245397D+05
 --> objf_test(bi,bj)        =  0.280618920223470D+05
 --> objf_test(bi,bj)        =  0.489322779985959D+05
 --> objf_test(bi,bj)        =  0.505632654154048D+05
 --> objf_test(bi,bj)        =  0.526333206297462D+05
 --> objf_test(bi,bj)        =  0.548246742961150D+05
 --> objf_test(bi,bj)        =  0.526314482602624D+05
 --> objf_test(bi,bj)        =  0.548244254436930D+05
(PID.TID 0000.0001)   local fc =  0.369699653290704D+06
(PID.TID 0000.0001)  global fc =  0.369699653290704D+06
(PID.TID 0000.0001) grdchk perturb(+)fc: fcpertplus  =  3.69699653290704E+05
(PID.TID 0000.0001)  nRecords = 243 ; filePrec =  64 ; fileIter =      8640
(PID.TID 0000.0001)     nDims =   2 , dims:
(PID.TID 0000.0001)    1:  50   1  50
(PID.TID 0000.0001)    2: 100   1 100
(PID.TID 0000.0001)     nFlds =  11 , nFl3D =   8 , fields:
(PID.TID 0000.0001)  >Uvel    < >Vvel    < >Theta   < >Salt    < >GuNm1   < >GvNm1   < >GtNm1   < >GsNm1   < >EtaN    < >dEtaHdt < >EtaH    <
(PID.TID 0000.0001) missingVal=  1.00000000000000E+00 ; nTimRec =   1 , timeList:
(PID.TID 0000.0001)   1.555200000000E+07
(PID.TID 0000.0001) READ_MFLDS_3D_RL: read field: "Uvel    ", #   1 in fldList, rec=   1
(PID.TID 0000.0001) READ_MFLDS_3D_RL: read field: "Vvel    ", #   2 in fldList, rec=   2
(PID.TID 0000.0001) READ_MFLDS_3D_RL: read field: "Theta   ", #   3 in fldList, rec=   3
(PID.TID 0000.0001) READ_MFLDS_3D_RL: read field: "Salt    ", #   4 in fldList, rec=   4
(PID.TID 0000.0001) READ_MFLDS_3D_RL: read field: "GuNm1   ", #   5 in fldList, rec=   5
(PID.TID 0000.0001) READ_MFLDS_3D_RL: read field: "GvNm1   ", #   6 in fldList, rec=   6
(PID.TID 0000.0001) READ_MFLDS_3D_RL: read field: "EtaN    ", #   9 in fldList, rec= 241
(PID.TID 0000.0001) READ_MFLDS_3D_RL: read field: "dEtaHdt ", #  10 in fldList, rec= 242
(PID.TID 0000.0001) READ_MFLDS_3D_RL: read field: "EtaH    ", #  11 in fldList, rec= 243
(PID.TID 0000.0001) READ_MFLDS_CHECK: - normal end ; reset MFLDS file-name: pickup.0000008640
(PID.TID 0000.0001) // =======================================================
(PID.TID 0000.0001) // Model current state
(PID.TID 0000.0001) // =======================================================
(PID.TID 0000.0001) 
(PID.TID 0000.0001) SOLVE_FOR_PRESSURE: putPmEinXvector =    F
 cg2d: Sum(rhs),rhsMax =   7.02479741043760E-13  5.97860431289983E-02
 cg2d: Sum(rhs),rhsMax =   7.18605730476440E-13  5.85666438537939E-02
 cg2d: Sum(rhs),rhsMax =   7.15344450341604E-13  5.85084293359632E-02
 cg2d: Sum(rhs),rhsMax =   7.18120007903167E-13  5.85096181795877E-02
 cg2d: Sum(rhs),rhsMax =   7.14858727768330E-13  5.84749577703323E-02
(PID.TID 0000.0001) Did not write pickup because writePickupAtEnd = FALSE
 --> objf_shelfice(bi,bj) =  0.000000000000000D+00
 --> objf_shelfice(bi,bj) =  0.000000000000000D+00
 --> objf_shelfice(bi,bj) =  0.000000000000000D+00
 --> objf_shelfice(bi,bj) =  0.000000000000000D+00
 --> objf_shelfice(bi,bj) =  0.000000000000000D+00
 --> objf_shelfice(bi,bj) =  0.000000000000000D+00
 --> objf_shelfice(bi,bj) =  0.000000000000000D+00
 --> objf_shelfice(bi,bj) =  0.000000000000000D+00
(PID.TID 0000.0001)   early fc =  0.000000000000000D+00
 --> objf_test(bi,bj)        =  0.272283499895378D+05
 --> objf_test(bi,bj)        =  0.280618920223670D+05
 --> objf_test(bi,bj)        =  0.489322779985915D+05
 --> objf_test(bi,bj)        =  0.505632654154048D+05
 --> objf_test(bi,bj)        =  0.526333206297462D+05
 --> objf_test(bi,bj)        =  0.548246742961150D+05
 --> objf_test(bi,bj)        =  0.526314482602623D+05
 --> objf_test(bi,bj)        =  0.548244254436929D+05
(PID.TID 0000.0001)   local fc =  0.369699654055717D+06
(PID.TID 0000.0001)  global fc =  0.369699654055717D+06
(PID.TID 0000.0001) grdchk perturb(-)fc: fcpertminus =  3.69699654055717E+05
grad-res -------------------------------
 grad-res     0    4   23   24   20    1    1    1   3.69699653673E+05  3.69699653291E+05  3.69699654056E+05
 grad-res     0    4    4 1582    0    1    1    1  -3.82506726007E+00 -3.82506696042E+00  7.83384835890E-08
(PID.TID 0000.0001)  ADM  ref_cost_function      =  3.69699653673201E+05
(PID.TID 0000.0001)  ADM  adjoint_gradient       = -3.82506726006670E+00
(PID.TID 0000.0001)  ADM  finite-diff_grad       = -3.82506696041673E+00
(PID.TID 0000.0001) ====== End of gradient-check number   4 (ierr=  0) =======
(PID.TID 0000.0001) ====== Starts gradient-check number   5 (=ichknum) =======
 ph-test icomp, ncvarcomp, ichknum         1583      100450           5
 ph-grd _loc: bi, bj, icomptest, ichknum            1           1        1582           5
 ph-grd -->hit<--           24          24          20           1
(PID.TID 0000.0001) grdchk pos: i,j,k=   24   24   20 ; bi,bj=   1   1 ; iobc=  1 ; rec=   1
(PID.TID 0000.0001)  nRecords = 243 ; filePrec =  64 ; fileIter =      8640
(PID.TID 0000.0001)     nDims =   2 , dims:
(PID.TID 0000.0001)    1:  50   1  50
(PID.TID 0000.0001)    2: 100   1 100
(PID.TID 0000.0001)     nFlds =  11 , nFl3D =   8 , fields:
(PID.TID 0000.0001)  >Uvel    < >Vvel    < >Theta   < >Salt    < >GuNm1   < >GvNm1   < >GtNm1   < >GsNm1   < >EtaN    < >dEtaHdt < >EtaH    <
(PID.TID 0000.0001) missingVal=  1.00000000000000E+00 ; nTimRec =   1 , timeList:
(PID.TID 0000.0001)   1.555200000000E+07
(PID.TID 0000.0001) READ_MFLDS_3D_RL: read field: "Uvel    ", #   1 in fldList, rec=   1
(PID.TID 0000.0001) READ_MFLDS_3D_RL: read field: "Vvel    ", #   2 in fldList, rec=   2
(PID.TID 0000.0001) READ_MFLDS_3D_RL: read field: "Theta   ", #   3 in fldList, rec=   3
(PID.TID 0000.0001) READ_MFLDS_3D_RL: read field: "Salt    ", #   4 in fldList, rec=   4
(PID.TID 0000.0001) READ_MFLDS_3D_RL: read field: "GuNm1   ", #   5 in fldList, rec=   5
(PID.TID 0000.0001) READ_MFLDS_3D_RL: read field: "GvNm1   ", #   6 in fldList, rec=   6
(PID.TID 0000.0001) READ_MFLDS_3D_RL: read field: "EtaN    ", #   9 in fldList, rec= 241
(PID.TID 0000.0001) READ_MFLDS_3D_RL: read field: "dEtaHdt ", #  10 in fldList, rec= 242
(PID.TID 0000.0001) READ_MFLDS_3D_RL: read field: "EtaH    ", #  11 in fldList, rec= 243
(PID.TID 0000.0001) READ_MFLDS_CHECK: - normal end ; reset MFLDS file-name: pickup.0000008640
(PID.TID 0000.0001) // =======================================================
(PID.TID 0000.0001) // Model current state
(PID.TID 0000.0001) // =======================================================
(PID.TID 0000.0001) 
(PID.TID 0000.0001) SOLVE_FOR_PRESSURE: putPmEinXvector =    F
 cg2d: Sum(rhs),rhsMax =   7.02479741043760E-13  5.97860431289983E-02
 cg2d: Sum(rhs),rhsMax =   7.11042336121182E-13  5.85666438441105E-02
 cg2d: Sum(rhs),rhsMax =   7.18092252327551E-13  5.85084293276570E-02
 cg2d: Sum(rhs),rhsMax =   7.14053816075477E-13  5.85096181785665E-02
 cg2d: Sum(rhs),rhsMax =   7.18328174720284E-13  5.84749577726288E-02
(PID.TID 0000.0001) Did not write pickup because writePickupAtEnd = FALSE
 --> objf_shelfice(bi,bj) =  0.000000000000000D+00
 --> objf_shelfice(bi,bj) =  0.000000000000000D+00
 --> objf_shelfice(bi,bj) =  0.000000000000000D+00
 --> objf_shelfice(bi,bj) =  0.000000000000000D+00
 --> objf_shelfice(bi,bj) =  0.000000000000000D+00
 --> objf_shelfice(bi,bj) =  0.000000000000000D+00
 --> objf_shelfice(bi,bj) =  0.000000000000000D+00
 --> objf_shelfice(bi,bj) =  0.000000000000000D+00
(PID.TID 0000.0001)   early fc =  0.000000000000000D+00
 --> objf_test(bi,bj)        =  0.272283492244753D+05
 --> objf_test(bi,bj)        =  0.280618920224255D+05
 --> objf_test(bi,bj)        =  0.489322779985972D+05
 --> objf_test(bi,bj)        =  0.505632654154046D+05
 --> objf_test(bi,bj)        =  0.526333206297462D+05
 --> objf_test(bi,bj)        =  0.548246742961150D+05
 --> objf_test(bi,bj)        =  0.526314482602624D+05
 --> objf_test(bi,bj)        =  0.548244254436930D+05
(PID.TID 0000.0001)   local fc =  0.369699653290719D+06
(PID.TID 0000.0001)  global fc =  0.369699653290719D+06
(PID.TID 0000.0001) grdchk perturb(+)fc: fcpertplus  =  3.69699653290719E+05
(PID.TID 0000.0001)  nRecords = 243 ; filePrec =  64 ; fileIter =      8640
(PID.TID 0000.0001)     nDims =   2 , dims:
(PID.TID 0000.0001)    1:  50   1  50
(PID.TID 0000.0001)    2: 100   1 100
(PID.TID 0000.0001)     nFlds =  11 , nFl3D =   8 , fields:
(PID.TID 0000.0001)  >Uvel    < >Vvel    < >Theta   < >Salt    < >GuNm1   < >GvNm1   < >GtNm1   < >GsNm1   < >EtaN    < >dEtaHdt < >EtaH    <
(PID.TID 0000.0001) missingVal=  1.00000000000000E+00 ; nTimRec =   1 , timeList:
(PID.TID 0000.0001)   1.555200000000E+07
(PID.TID 0000.0001) READ_MFLDS_3D_RL: read field: "Uvel    ", #   1 in fldList, rec=   1
(PID.TID 0000.0001) READ_MFLDS_3D_RL: read field: "Vvel    ", #   2 in fldList, rec=   2
(PID.TID 0000.0001) READ_MFLDS_3D_RL: read field: "Theta   ", #   3 in fldList, rec=   3
(PID.TID 0000.0001) READ_MFLDS_3D_RL: read field: "Salt    ", #   4 in fldList, rec=   4
(PID.TID 0000.0001) READ_MFLDS_3D_RL: read field: "GuNm1   ", #   5 in fldList, rec=   5
(PID.TID 0000.0001) READ_MFLDS_3D_RL: read field: "GvNm1   ", #   6 in fldList, rec=   6
(PID.TID 0000.0001) READ_MFLDS_3D_RL: read field: "EtaN    ", #   9 in fldList, rec= 241
(PID.TID 0000.0001) READ_MFLDS_3D_RL: read field: "dEtaHdt ", #  10 in fldList, rec= 242
(PID.TID 0000.0001) READ_MFLDS_3D_RL: read field: "EtaH    ", #  11 in fldList, rec= 243
(PID.TID 0000.0001) READ_MFLDS_CHECK: - normal end ; reset MFLDS file-name: pickup.0000008640
(PID.TID 0000.0001) // =======================================================
(PID.TID 0000.0001) // Model current state
(PID.TID 0000.0001) // =======================================================
(PID.TID 0000.0001) 
(PID.TID 0000.0001) SOLVE_FOR_PRESSURE: putPmEinXvector =    F
 cg2d: Sum(rhs),rhsMax =   7.02424229892529E-13  5.97860431289983E-02
 cg2d: Sum(rhs),rhsMax =   7.15580372734337E-13  5.85666438534961E-02
 cg2d: Sum(rhs),rhsMax =   7.16884884788271E-13  5.85084293360608E-02
 cg2d: Sum(rhs),rhsMax =   7.15011383434216E-13  5.85096181801253E-02
 cg2d: Sum(rhs),rhsMax =   7.17384485149353E-13  5.84749577710455E-02
(PID.TID 0000.0001) Did not write pickup because writePickupAtEnd = FALSE
 --> objf_shelfice(bi,bj) =  0.000000000000000D+00
 --> objf_shelfice(bi,bj) =  0.000000000000000D+00
 --> objf_shelfice(bi,bj) =  0.000000000000000D+00
 --> objf_shelfice(bi,bj) =  0.000000000000000D+00
 --> objf_shelfice(bi,bj) =  0.000000000000000D+00
 --> objf_shelfice(bi,bj) =  0.000000000000000D+00
 --> objf_shelfice(bi,bj) =  0.000000000000000D+00
 --> objf_shelfice(bi,bj) =  0.000000000000000D+00
(PID.TID 0000.0001)   early fc =  0.000000000000000D+00
 --> objf_test(bi,bj)        =  0.272283499896031D+05
 --> objf_test(bi,bj)        =  0.280618920222876D+05
 --> objf_test(bi,bj)        =  0.489322779985902D+05
 --> objf_test(bi,bj)        =  0.505632654154051D+05
 --> objf_test(bi,bj)        =  0.526333206297462D+05
 --> objf_test(bi,bj)        =  0.548246742961150D+05
 --> objf_test(bi,bj)        =  0.526314482602623D+05
 --> objf_test(bi,bj)        =  0.548244254436929D+05
(PID.TID 0000.0001)   local fc =  0.369699654055702D+06
(PID.TID 0000.0001)  global fc =  0.369699654055702D+06
(PID.TID 0000.0001) grdchk perturb(-)fc: fcpertminus =  3.69699654055702E+05
grad-res -------------------------------
 grad-res     0    5   24   24   20    1    1    1   3.69699653673E+05  3.69699653291E+05  3.69699654056E+05
 grad-res     0    5    5 1583    0    1    1    1  -3.82491415701E+00 -3.82491503842E+00 -2.30440163174E-07
(PID.TID 0000.0001)  ADM  ref_cost_function      =  3.69699653673201E+05
(PID.TID 0000.0001)  ADM  adjoint_gradient       = -3.82491415700791E+00
(PID.TID 0000.0001)  ADM  finite-diff_grad       = -3.82491503842175E+00
(PID.TID 0000.0001) ====== End of gradient-check number   5 (ierr=  0) =======
(PID.TID 0000.0001) 
(PID.TID 0000.0001) // =======================================================
(PID.TID 0000.0001) // Gradient check results  >>> START <<<
(PID.TID 0000.0001) // =======================================================
(PID.TID 0000.0001) 
(PID.TID 0000.0001)  EPS = 1.000000E-04 ; grdchk CTRL var/file name: "xx_theta"
(PID.TID 0000.0001) 
(PID.TID 0000.0001) grdchk output h.p:  Id Itile Jtile LAYER   bi   bj   X(Id)           X(Id)+/-EPS
(PID.TID 0000.0001) grdchk output h.c:  Id  FC                   FC1                  FC2
(PID.TID 0000.0001) grdchk output h.g:  Id     FC1-FC2/(2*EPS)      ADJ GRAD(FC)         1-FDGRD/ADGRD
(PID.TID 0000.0001) 
(PID.TID 0000.0001) grdchk output (p):   1    20    24    20    1    1   0.000000000E+00 -1.000000000E-04
(PID.TID 0000.0001) grdchk output (c):   1  3.6969965367320E+05  3.6969965329059E+05  3.6969965405583E+05
(PID.TID 0000.0001) grdchk output (g):   1    -3.8261883310042E+00 -3.8261872316778E+00 -2.8731643086921E-07
(PID.TID 0000.0001) 
(PID.TID 0000.0001) grdchk output (p):   2    21    24    20    1    1   0.000000000E+00 -1.000000000E-04
(PID.TID 0000.0001) grdchk output (c):   2  3.6969965367320E+05  3.6969965329065E+05  3.6969965405578E+05
(PID.TID 0000.0001) grdchk output (g):   2    -3.8256513653323E+00 -3.8256515303233E+00  4.3127559634648E-08
(PID.TID 0000.0001) 
(PID.TID 0000.0001) grdchk output (p):   3    22    24    20    1    1   0.000000000E+00 -1.000000000E-04
(PID.TID 0000.0001) grdchk output (c):   3  3.6969965367320E+05  3.6969965329068E+05  3.6969965405574E+05
(PID.TID 0000.0001) grdchk output (g):   3    -3.8252942613326E+00 -3.8252942616013E+00  7.0242700545009E-11
(PID.TID 0000.0001) 
(PID.TID 0000.0001) grdchk output (p):   4    23    24    20    1    1   0.000000000E+00 -1.000000000E-04
(PID.TID 0000.0001) grdchk output (c):   4  3.6969965367320E+05  3.6969965329070E+05  3.6969965405572E+05
(PID.TID 0000.0001) grdchk output (g):   4    -3.8250669604167E+00 -3.8250672600667E+00  7.8338483588958E-08
(PID.TID 0000.0001) 
(PID.TID 0000.0001) grdchk output (p):   5    24    24    20    1    1   0.000000000E+00 -1.000000000E-04
(PID.TID 0000.0001) grdchk output (c):   5  3.6969965367320E+05  3.6969965329072E+05  3.6969965405570E+05
(PID.TID 0000.0001) grdchk output (g):   5    -3.8249150384218E+00 -3.8249141570079E+00 -2.3044016317364E-07
(PID.TID 0000.0001) 
(PID.TID 0000.0001) grdchk  summary  :  RMS of    5 ratios =  1.6949944518848E-07
(PID.TID 0000.0001) 
(PID.TID 0000.0001) // =======================================================
(PID.TID 0000.0001) // Gradient check results  >>> END <<<
(PID.TID 0000.0001) // =======================================================
(PID.TID 0000.0001) 
(PID.TID 0000.0001)   Seconds in section "ALL                    [THE_MODEL_MAIN]":
(PID.TID 0000.0001)           User time:   150.26415344327688
(PID.TID 0000.0001)         System time:   2.3259178940206766
(PID.TID 0000.0001)     Wall clock time:   152.59239315986633
(PID.TID 0000.0001)          No. starts:           1
(PID.TID 0000.0001)           No. stops:           1
(PID.TID 0000.0001)   Seconds in section "INITIALISE_FIXED       [THE_MODEL_MAIN]":
(PID.TID 0000.0001)           User time:  0.35161198489367962
(PID.TID 0000.0001)         System time:  0.14242899790406227
(PID.TID 0000.0001)     Wall clock time:  0.49406886100769043
(PID.TID 0000.0001)          No. starts:           1
(PID.TID 0000.0001)           No. stops:           1
(PID.TID 0000.0001)   Seconds in section "ADTHE_MAIN_LOOP          [ADJOINT RUN]":
(PID.TID 0000.0001)           User time:   61.996789366006851
(PID.TID 0000.0001)         System time:   1.9835399091243744
(PID.TID 0000.0001)     Wall clock time:   63.981545925140381
(PID.TID 0000.0001)          No. starts:           1
(PID.TID 0000.0001)           No. stops:           1
(PID.TID 0000.0001)   Seconds in section "FORWARD_STEP        [MAIN_DO_LOOP]":
(PID.TID 0000.0001)           User time:   101.90930342674255
(PID.TID 0000.0001)         System time:   6.8819582462310791E-002
(PID.TID 0000.0001)     Wall clock time:   101.97955131530762
(PID.TID 0000.0001)          No. starts:          60
(PID.TID 0000.0001)           No. stops:          60
(PID.TID 0000.0001)   Seconds in section "UPDATE_SURF_DR      [FORWARD_STEP]":
(PID.TID 0000.0001)           User time:   8.8848114013671875E-002
(PID.TID 0000.0001)         System time:   3.0952095985412598E-003
(PID.TID 0000.0001)     Wall clock time:   9.2086791992187500E-002
(PID.TID 0000.0001)          No. starts:         120
(PID.TID 0000.0001)           No. stops:         120
(PID.TID 0000.0001)   Seconds in section "LOAD_FIELDS_DRIVER  [FORWARD_STEP]":
(PID.TID 0000.0001)           User time:   3.6743760108947754E-002
(PID.TID 0000.0001)         System time:   2.6437044143676758E-003
(PID.TID 0000.0001)     Wall clock time:   3.9371013641357422E-002
(PID.TID 0000.0001)          No. starts:          60
(PID.TID 0000.0001)           No. stops:          60
(PID.TID 0000.0001)   Seconds in section "EXTERNAL_FLDS_LOAD [LOAD_FLDS_DRIVER]":
(PID.TID 0000.0001)           User time:   6.0439109802246094E-004
(PID.TID 0000.0001)         System time:   2.8133392333984375E-005
(PID.TID 0000.0001)     Wall clock time:   5.2952766418457031E-004
(PID.TID 0000.0001)          No. starts:          65
(PID.TID 0000.0001)           No. stops:          65
(PID.TID 0000.0001)   Seconds in section "CTRL_MAP_FORCING  [FORWARD_STEP]":
(PID.TID 0000.0001)           User time:  0.23840439319610596
(PID.TID 0000.0001)         System time:   7.5690746307373047E-003
(PID.TID 0000.0001)     Wall clock time:  0.24605846405029297
(PID.TID 0000.0001)          No. starts:          60
(PID.TID 0000.0001)           No. stops:          60
(PID.TID 0000.0001)   Seconds in section "DO_ATMOSPHERIC_PHYS [FORWARD_STEP]":
(PID.TID 0000.0001)           User time:  0.11755931377410889
(PID.TID 0000.0001)         System time:   7.8815221786499023E-004
(PID.TID 0000.0001)     Wall clock time:  0.11835098266601562
(PID.TID 0000.0001)          No. starts:          60
(PID.TID 0000.0001)           No. stops:          60
(PID.TID 0000.0001)   Seconds in section "DO_OCEANIC_PHYS     [FORWARD_STEP]":
(PID.TID 0000.0001)           User time:   2.2808629274368286
(PID.TID 0000.0001)         System time:   3.7581920623779297E-003
(PID.TID 0000.0001)     Wall clock time:   2.2847573757171631
(PID.TID 0000.0001)          No. starts:          60
(PID.TID 0000.0001)           No. stops:          60
(PID.TID 0000.0001)   Seconds in section "SHELFICE_THERMODYNAMICS [DO_OCEANIC_PHYS]":
(PID.TID 0000.0001)           User time:  0.21076452732086182
(PID.TID 0000.0001)         System time:   2.0909309387207031E-004
(PID.TID 0000.0001)     Wall clock time:  0.21102690696716309
(PID.TID 0000.0001)          No. starts:          60
(PID.TID 0000.0001)           No. stops:          60
(PID.TID 0000.0001)   Seconds in section "DYNAMICS            [FORWARD_STEP]":
(PID.TID 0000.0001)           User time:   33.079658150672913
(PID.TID 0000.0001)         System time:   4.5781731605529785E-003
(PID.TID 0000.0001)     Wall clock time:   33.084961891174316
(PID.TID 0000.0001)          No. starts:          60
(PID.TID 0000.0001)           No. stops:          60
(PID.TID 0000.0001)   Seconds in section "SOLVE_FOR_PRESSURE  [FORWARD_STEP]":
(PID.TID 0000.0001)           User time:   16.265980243682861
(PID.TID 0000.0001)         System time:   2.6050806045532227E-003
(PID.TID 0000.0001)     Wall clock time:   16.269026041030884
(PID.TID 0000.0001)          No. starts:          60
(PID.TID 0000.0001)           No. stops:          60
(PID.TID 0000.0001)   Seconds in section "MOM_CORRECTION_STEP [FORWARD_STEP]":
(PID.TID 0000.0001)           User time:   1.1168920993804932
(PID.TID 0000.0001)         System time:   2.6494264602661133E-004
(PID.TID 0000.0001)     Wall clock time:   1.1173894405364990
(PID.TID 0000.0001)          No. starts:          60
(PID.TID 0000.0001)           No. stops:          60
(PID.TID 0000.0001)   Seconds in section "INTEGR_CONTINUITY   [FORWARD_STEP]":
(PID.TID 0000.0001)           User time:   1.9220793247222900
(PID.TID 0000.0001)         System time:   2.2053718566894531E-005
(PID.TID 0000.0001)     Wall clock time:   1.9222934246063232
(PID.TID 0000.0001)          No. starts:          60
(PID.TID 0000.0001)           No. stops:          60
(PID.TID 0000.0001)   Seconds in section "CALC_SURF_DR      [FORWARD_STEP]":
(PID.TID 0000.0001)           User time:   8.9421749114990234E-002
(PID.TID 0000.0001)         System time:   0.0000000000000000
(PID.TID 0000.0001)     Wall clock time:   8.9547157287597656E-002
(PID.TID 0000.0001)          No. starts:          60
(PID.TID 0000.0001)           No. stops:          60
(PID.TID 0000.0001)   Seconds in section "BLOCKING_EXCHANGES  [FORWARD_STEP]":
(PID.TID 0000.0001)           User time:   1.2598721981048584
(PID.TID 0000.0001)         System time:   8.3982944488525391E-005
(PID.TID 0000.0001)     Wall clock time:   1.2602877616882324
(PID.TID 0000.0001)          No. starts:         120
(PID.TID 0000.0001)           No. stops:         120
(PID.TID 0000.0001)   Seconds in section "THERMODYNAMICS      [FORWARD_STEP]":
(PID.TID 0000.0001)           User time:   38.238027334213257
(PID.TID 0000.0001)         System time:   7.6909065246582031E-003
(PID.TID 0000.0001)     Wall clock time:   38.246385574340820
(PID.TID 0000.0001)          No. starts:          60
(PID.TID 0000.0001)           No. stops:          60
(PID.TID 0000.0001)   Seconds in section "TRC_CORRECTION_STEP [FORWARD_STEP]":
(PID.TID 0000.0001)           User time:   4.2894129753112793
(PID.TID 0000.0001)         System time:   0.0000000000000000
(PID.TID 0000.0001)     Wall clock time:   4.2896559238433838
(PID.TID 0000.0001)          No. starts:          60
(PID.TID 0000.0001)           No. stops:          60
(PID.TID 0000.0001)   Seconds in section "MONITOR             [FORWARD_STEP]":
(PID.TID 0000.0001)           User time:  0.80757474899291992
(PID.TID 0000.0001)         System time:   0.0000000000000000
(PID.TID 0000.0001)     Wall clock time:  0.80764842033386230
(PID.TID 0000.0001)          No. starts:          60
(PID.TID 0000.0001)           No. stops:          60
(PID.TID 0000.0001)   Seconds in section "COST_TILE           [FORWARD_STEP]":
(PID.TID 0000.0001)           User time:   1.9445989131927490
(PID.TID 0000.0001)         System time:   0.0000000000000000
(PID.TID 0000.0001)     Wall clock time:   1.9448366165161133
(PID.TID 0000.0001)          No. starts:          60
(PID.TID 0000.0001)           No. stops:          60
(PID.TID 0000.0001)   Seconds in section "DO_THE_MODEL_IO     [FORWARD_STEP]":
(PID.TID 0000.0001)           User time:   4.7662019729614258E-002
(PID.TID 0000.0001)         System time:   3.4980177879333496E-003
(PID.TID 0000.0001)     Wall clock time:   5.1151514053344727E-002
(PID.TID 0000.0001)          No. starts:          60
(PID.TID 0000.0001)           No. stops:          60
(PID.TID 0000.0001)   Seconds in section "DO_WRITE_PICKUP     [FORWARD_STEP]":
(PID.TID 0000.0001)           User time:   7.2881460189819336E-002
(PID.TID 0000.0001)         System time:   3.2013833522796631E-002
(PID.TID 0000.0001)     Wall clock time:  0.10497236251831055
(PID.TID 0000.0001)          No. starts:          60
(PID.TID 0000.0001)           No. stops:          60
(PID.TID 0000.0001)   Seconds in section "GRDCHK_MAIN         [THE_MODEL_MAIN]":
(PID.TID 0000.0001)           User time:   87.915676116943359
(PID.TID 0000.0001)         System time:  0.19991278648376465
(PID.TID 0000.0001)     Wall clock time:   88.116702079772949
(PID.TID 0000.0001)          No. starts:           1
(PID.TID 0000.0001)           No. stops:           1
(PID.TID 0000.0001)   Seconds in section "INITIALISE_VARIA    [THE_MAIN_LOOP]":
(PID.TID 0000.0001)           User time:   3.1401252746582031
(PID.TID 0000.0001)         System time:  0.12767004966735840
(PID.TID 0000.0001)     Wall clock time:   3.2679388523101807
(PID.TID 0000.0001)          No. starts:          10
(PID.TID 0000.0001)           No. stops:          10
(PID.TID 0000.0001)   Seconds in section "MAIN LOOP           [THE_MAIN_LOOP]":
(PID.TID 0000.0001)           User time:   84.462619781494141
(PID.TID 0000.0001)         System time:   1.2369155883789062E-002
(PID.TID 0000.0001)     Wall clock time:   84.475978136062622
(PID.TID 0000.0001)          No. starts:          10
(PID.TID 0000.0001)           No. stops:          10
(PID.TID 0000.0001)   Seconds in section "MAIN_DO_LOOP        [THE_MAIN_LOOP]":
(PID.TID 0000.0001)           User time:   84.420265197753906
(PID.TID 0000.0001)         System time:   1.2284994125366211E-002
(PID.TID 0000.0001)     Wall clock time:   84.433593988418579
(PID.TID 0000.0001)          No. starts:          50
(PID.TID 0000.0001)           No. stops:          50
(PID.TID 0000.0001)   Seconds in section "COST_FINAL         [ADJOINT SPIN-DOWN]":
(PID.TID 0000.0001)           User time:   4.0794372558593750E-002
(PID.TID 0000.0001)         System time:   0.0000000000000000
(PID.TID 0000.0001)     Wall clock time:   4.0794849395751953E-002
(PID.TID 0000.0001)          No. starts:          10
(PID.TID 0000.0001)           No. stops:          10
(PID.TID 0000.0001) // ======================================================
(PID.TID 0000.0001) // Tile <-> Tile communication statistics
(PID.TID 0000.0001) // ======================================================
(PID.TID 0000.0001) // o Tile number: 000001
(PID.TID 0000.0001) //         No. X exchanges =              0
(PID.TID 0000.0001) //            Max. X spins =              0
(PID.TID 0000.0001) //            Min. X spins =     1000000000
(PID.TID 0000.0001) //          Total. X spins =              0
(PID.TID 0000.0001) //            Avg. X spins =       0.00E+00
(PID.TID 0000.0001) //         No. Y exchanges =              0
(PID.TID 0000.0001) //            Max. Y spins =              0
(PID.TID 0000.0001) //            Min. Y spins =     1000000000
(PID.TID 0000.0001) //          Total. Y spins =              0
(PID.TID 0000.0001) //            Avg. Y spins =       0.00E+00
(PID.TID 0000.0001) // o Tile number: 000002
(PID.TID 0000.0001) //         No. X exchanges =              0
(PID.TID 0000.0001) //            Max. X spins =              0
(PID.TID 0000.0001) //            Min. X spins =     1000000000
(PID.TID 0000.0001) //          Total. X spins =              0
(PID.TID 0000.0001) //            Avg. X spins =       0.00E+00
(PID.TID 0000.0001) //         No. Y exchanges =              0
(PID.TID 0000.0001) //            Max. Y spins =              0
(PID.TID 0000.0001) //            Min. Y spins =     1000000000
(PID.TID 0000.0001) //          Total. Y spins =              0
(PID.TID 0000.0001) //            Avg. Y spins =       0.00E+00
(PID.TID 0000.0001) // o Tile number: 000003
(PID.TID 0000.0001) //         No. X exchanges =              0
(PID.TID 0000.0001) //            Max. X spins =              0
(PID.TID 0000.0001) //            Min. X spins =     1000000000
(PID.TID 0000.0001) //          Total. X spins =              0
(PID.TID 0000.0001) //            Avg. X spins =       0.00E+00
(PID.TID 0000.0001) //         No. Y exchanges =              0
(PID.TID 0000.0001) //            Max. Y spins =              0
(PID.TID 0000.0001) //            Min. Y spins =     1000000000
(PID.TID 0000.0001) //          Total. Y spins =              0
(PID.TID 0000.0001) //            Avg. Y spins =       0.00E+00
(PID.TID 0000.0001) // o Tile number: 000004
(PID.TID 0000.0001) //         No. X exchanges =              0
(PID.TID 0000.0001) //            Max. X spins =              0
(PID.TID 0000.0001) //            Min. X spins =     1000000000
(PID.TID 0000.0001) //          Total. X spins =              0
(PID.TID 0000.0001) //            Avg. X spins =       0.00E+00
(PID.TID 0000.0001) //         No. Y exchanges =              0
(PID.TID 0000.0001) //            Max. Y spins =              0
(PID.TID 0000.0001) //            Min. Y spins =     1000000000
(PID.TID 0000.0001) //          Total. Y spins =              0
(PID.TID 0000.0001) //            Avg. Y spins =       0.00E+00
(PID.TID 0000.0001) // o Tile number: 000005
(PID.TID 0000.0001) //         No. X exchanges =              0
(PID.TID 0000.0001) //            Max. X spins =              0
(PID.TID 0000.0001) //            Min. X spins =     1000000000
(PID.TID 0000.0001) //          Total. X spins =              0
(PID.TID 0000.0001) //            Avg. X spins =       0.00E+00
(PID.TID 0000.0001) //         No. Y exchanges =              0
(PID.TID 0000.0001) //            Max. Y spins =              0
(PID.TID 0000.0001) //            Min. Y spins =     1000000000
(PID.TID 0000.0001) //          Total. Y spins =              0
(PID.TID 0000.0001) //            Avg. Y spins =       0.00E+00
(PID.TID 0000.0001) // o Tile number: 000006
(PID.TID 0000.0001) //         No. X exchanges =              0
(PID.TID 0000.0001) //            Max. X spins =              0
(PID.TID 0000.0001) //            Min. X spins =     1000000000
(PID.TID 0000.0001) //          Total. X spins =              0
(PID.TID 0000.0001) //            Avg. X spins =       0.00E+00
(PID.TID 0000.0001) //         No. Y exchanges =              0
(PID.TID 0000.0001) //            Max. Y spins =              0
(PID.TID 0000.0001) //            Min. Y spins =     1000000000
(PID.TID 0000.0001) //          Total. Y spins =              0
(PID.TID 0000.0001) //            Avg. Y spins =       0.00E+00
(PID.TID 0000.0001) // o Tile number: 000007
(PID.TID 0000.0001) //         No. X exchanges =              0
(PID.TID 0000.0001) //            Max. X spins =              0
(PID.TID 0000.0001) //            Min. X spins =     1000000000
(PID.TID 0000.0001) //          Total. X spins =              0
(PID.TID 0000.0001) //            Avg. X spins =       0.00E+00
(PID.TID 0000.0001) //         No. Y exchanges =              0
(PID.TID 0000.0001) //            Max. Y spins =              0
(PID.TID 0000.0001) //            Min. Y spins =     1000000000
(PID.TID 0000.0001) //          Total. Y spins =              0
(PID.TID 0000.0001) //            Avg. Y spins =       0.00E+00
(PID.TID 0000.0001) // o Tile number: 000008
(PID.TID 0000.0001) //         No. X exchanges =              0
(PID.TID 0000.0001) //            Max. X spins =              0
(PID.TID 0000.0001) //            Min. X spins =     1000000000
(PID.TID 0000.0001) //          Total. X spins =              0
(PID.TID 0000.0001) //            Avg. X spins =       0.00E+00
(PID.TID 0000.0001) //         No. Y exchanges =              0
(PID.TID 0000.0001) //            Max. Y spins =              0
(PID.TID 0000.0001) //            Min. Y spins =     1000000000
(PID.TID 0000.0001) //          Total. Y spins =              0
(PID.TID 0000.0001) //            Avg. Y spins =       0.00E+00
(PID.TID 0000.0001) // o Thread number: 000001
(PID.TID 0000.0001) //            No. barriers =         104306
(PID.TID 0000.0001) //      Max. barrier spins =              1
(PID.TID 0000.0001) //      Min. barrier spins =              1
(PID.TID 0000.0001) //     Total barrier spins =         104306
(PID.TID 0000.0001) //      Avg. barrier spins =       1.00E+00
PROGRAM MAIN: Execution ended Normally
