(PID.TID 0000.0001) 
(PID.TID 0000.0001) // ======================================================
(PID.TID 0000.0001) //                      MITgcm UV
(PID.TID 0000.0001) //                      =========
(PID.TID 0000.0001) // ======================================================
(PID.TID 0000.0001) // execution environment starting up...
(PID.TID 0000.0001) 
(PID.TID 0000.0001) // MITgcmUV version:  checkpoint68k
(PID.TID 0000.0001) // Build user:        jm_c
(PID.TID 0000.0001) // Build host:        villon
(PID.TID 0000.0001) // Build date:        Fri Sep 23 13:11:53 EDT 2022
(PID.TID 0000.0001) 
(PID.TID 0000.0001) // =======================================================
(PID.TID 0000.0001) // Execution Environment parameter file "eedata"
(PID.TID 0000.0001) // =======================================================
(PID.TID 0000.0001) ># Example "eedata" file
(PID.TID 0000.0001) ># Lines beginning "#" are comments
(PID.TID 0000.0001) >#  nTx      :: No. threads per process in X
(PID.TID 0000.0001) >#  nTy      :: No. threads per process in Y
(PID.TID 0000.0001) ># debugMode :: print debug msg (sequence of S/R calls)
(PID.TID 0000.0001) > &EEPARMS
(PID.TID 0000.0001) > nTx=1,
(PID.TID 0000.0001) > nTy=1,
(PID.TID 0000.0001) >#debugMode=.TRUE.,
(PID.TID 0000.0001) > /
(PID.TID 0000.0001) ># Note: Some systems use & as the namelist terminator (as shown here).
(PID.TID 0000.0001) >#       Other systems use a / character.
(PID.TID 0000.0001) 
(PID.TID 0000.0001) // =======================================================
(PID.TID 0000.0001) // Computational Grid Specification ( see files "SIZE.h" )
(PID.TID 0000.0001) //                                  ( and "eedata"       )
(PID.TID 0000.0001) // =======================================================
(PID.TID 0000.0001)      nPx =    1 ; /* No. processes in X */
(PID.TID 0000.0001)      nPy =    1 ; /* No. processes in Y */
(PID.TID 0000.0001)      nSx =    2 ; /* No. tiles in X per process */
(PID.TID 0000.0001)      nSy =    4 ; /* No. tiles in Y per process */
(PID.TID 0000.0001)      sNx =   25 ; /* Tile size in X */
(PID.TID 0000.0001)      sNy =   25 ; /* Tile size in Y */
(PID.TID 0000.0001)      OLx =    3 ; /* Tile overlap distance in X */
(PID.TID 0000.0001)      OLy =    3 ; /* Tile overlap distance in Y */
(PID.TID 0000.0001)      nTx =    1 ; /* No. threads in X per process */
(PID.TID 0000.0001)      nTy =    1 ; /* No. threads in Y per process */
(PID.TID 0000.0001)       Nr =   30 ; /* No. levels in the vertical   */
(PID.TID 0000.0001)       Nx =   50 ; /* Total domain size in X ( = nPx*nSx*sNx ) */
(PID.TID 0000.0001)       Ny =  100 ; /* Total domain size in Y ( = nPy*nSy*sNy ) */
(PID.TID 0000.0001)   nTiles =    8 ; /* Total no. tiles per process ( = nSx*nSy ) */
(PID.TID 0000.0001)   nProcs =    1 ; /* Total no. processes ( = nPx*nPy ) */
(PID.TID 0000.0001) nThreads =    1 ; /* Total no. threads per process ( = nTx*nTy ) */
(PID.TID 0000.0001) usingMPI =    F ; /* Flag used to control whether MPI is in use */
(PID.TID 0000.0001)                   /*  note: To execute a program with MPI calls */
(PID.TID 0000.0001)                   /*  it must be launched appropriately e.g     */
(PID.TID 0000.0001)                   /*  "mpirun -np 64 ......"                    */
(PID.TID 0000.0001) useCoupler=   F ; /* Flag used to control communications with   */
(PID.TID 0000.0001)                   /*  other model components, through a coupler */
(PID.TID 0000.0001) useNest2W_parent =    F ;/* Control 2-W Nesting comm */
(PID.TID 0000.0001) useNest2W_child  =    F ;/* Control 2-W Nesting comm */
(PID.TID 0000.0001) debugMode =    F ; /* print debug msg. (sequence of S/R calls)  */
(PID.TID 0000.0001) printMapIncludesZeros=    F ; /* print zeros in Std.Output maps */
(PID.TID 0000.0001) maxLengthPrt1D=   65 /* maxLength of 1D array printed to StdOut */
(PID.TID 0000.0001) 
(PID.TID 0000.0001) // ======================================================
(PID.TID 0000.0001) // Mapping of tiles to threads
(PID.TID 0000.0001) // ======================================================
(PID.TID 0000.0001) // -o- Thread   1, tiles (   1:   2,   1:   4)
(PID.TID 0000.0001) 
(PID.TID 0000.0001) // ======================================================
(PID.TID 0000.0001) // Tile <-> Tile connectvity table
(PID.TID 0000.0001) // ======================================================
(PID.TID 0000.0001) // Tile number: 000001 (process no. = 000000)
(PID.TID 0000.0001) //        WEST: Tile = 000002, Process = 000000, Comm = put
(PID.TID 0000.0001) //                bi = 000002, bj = 000001
(PID.TID 0000.0001) //        EAST: Tile = 000002, Process = 000000, Comm = put
(PID.TID 0000.0001) //                bi = 000002, bj = 000001
(PID.TID 0000.0001) //       SOUTH: Tile = 000007, Process = 000000, Comm = put
(PID.TID 0000.0001) //                bi = 000001, bj = 000004
(PID.TID 0000.0001) //       NORTH: Tile = 000003, Process = 000000, Comm = put
(PID.TID 0000.0001) //                bi = 000001, bj = 000002
(PID.TID 0000.0001) // Tile number: 000002 (process no. = 000000)
(PID.TID 0000.0001) //        WEST: Tile = 000001, Process = 000000, Comm = put
(PID.TID 0000.0001) //                bi = 000001, bj = 000001
(PID.TID 0000.0001) //        EAST: Tile = 000001, Process = 000000, Comm = put
(PID.TID 0000.0001) //                bi = 000001, bj = 000001
(PID.TID 0000.0001) //       SOUTH: Tile = 000008, Process = 000000, Comm = put
(PID.TID 0000.0001) //                bi = 000002, bj = 000004
(PID.TID 0000.0001) //       NORTH: Tile = 000004, Process = 000000, Comm = put
(PID.TID 0000.0001) //                bi = 000002, bj = 000002
(PID.TID 0000.0001) // Tile number: 000003 (process no. = 000000)
(PID.TID 0000.0001) //        WEST: Tile = 000004, Process = 000000, Comm = put
(PID.TID 0000.0001) //                bi = 000002, bj = 000002
(PID.TID 0000.0001) //        EAST: Tile = 000004, Process = 000000, Comm = put
(PID.TID 0000.0001) //                bi = 000002, bj = 000002
(PID.TID 0000.0001) //       SOUTH: Tile = 000001, Process = 000000, Comm = put
(PID.TID 0000.0001) //                bi = 000001, bj = 000001
(PID.TID 0000.0001) //       NORTH: Tile = 000005, Process = 000000, Comm = put
(PID.TID 0000.0001) //                bi = 000001, bj = 000003
(PID.TID 0000.0001) // Tile number: 000004 (process no. = 000000)
(PID.TID 0000.0001) //        WEST: Tile = 000003, Process = 000000, Comm = put
(PID.TID 0000.0001) //                bi = 000001, bj = 000002
(PID.TID 0000.0001) //        EAST: Tile = 000003, Process = 000000, Comm = put
(PID.TID 0000.0001) //                bi = 000001, bj = 000002
(PID.TID 0000.0001) //       SOUTH: Tile = 000002, Process = 000000, Comm = put
(PID.TID 0000.0001) //                bi = 000002, bj = 000001
(PID.TID 0000.0001) //       NORTH: Tile = 000006, Process = 000000, Comm = put
(PID.TID 0000.0001) //                bi = 000002, bj = 000003
(PID.TID 0000.0001) // Tile number: 000005 (process no. = 000000)
(PID.TID 0000.0001) //        WEST: Tile = 000006, Process = 000000, Comm = put
(PID.TID 0000.0001) //                bi = 000002, bj = 000003
(PID.TID 0000.0001) //        EAST: Tile = 000006, Process = 000000, Comm = put
(PID.TID 0000.0001) //                bi = 000002, bj = 000003
(PID.TID 0000.0001) //       SOUTH: Tile = 000003, Process = 000000, Comm = put
(PID.TID 0000.0001) //                bi = 000001, bj = 000002
(PID.TID 0000.0001) //       NORTH: Tile = 000007, Process = 000000, Comm = put
(PID.TID 0000.0001) //                bi = 000001, bj = 000004
(PID.TID 0000.0001) // Tile number: 000006 (process no. = 000000)
(PID.TID 0000.0001) //        WEST: Tile = 000005, Process = 000000, Comm = put
(PID.TID 0000.0001) //                bi = 000001, bj = 000003
(PID.TID 0000.0001) //        EAST: Tile = 000005, Process = 000000, Comm = put
(PID.TID 0000.0001) //                bi = 000001, bj = 000003
(PID.TID 0000.0001) //       SOUTH: Tile = 000004, Process = 000000, Comm = put
(PID.TID 0000.0001) //                bi = 000002, bj = 000002
(PID.TID 0000.0001) //       NORTH: Tile = 000008, Process = 000000, Comm = put
(PID.TID 0000.0001) //                bi = 000002, bj = 000004
(PID.TID 0000.0001) // Tile number: 000007 (process no. = 000000)
(PID.TID 0000.0001) //        WEST: Tile = 000008, Process = 000000, Comm = put
(PID.TID 0000.0001) //                bi = 000002, bj = 000004
(PID.TID 0000.0001) //        EAST: Tile = 000008, Process = 000000, Comm = put
(PID.TID 0000.0001) //                bi = 000002, bj = 000004
(PID.TID 0000.0001) //       SOUTH: Tile = 000005, Process = 000000, Comm = put
(PID.TID 0000.0001) //                bi = 000001, bj = 000003
(PID.TID 0000.0001) //       NORTH: Tile = 000001, Process = 000000, Comm = put
(PID.TID 0000.0001) //                bi = 000001, bj = 000001
(PID.TID 0000.0001) // Tile number: 000008 (process no. = 000000)
(PID.TID 0000.0001) //        WEST: Tile = 000007, Process = 000000, Comm = put
(PID.TID 0000.0001) //                bi = 000001, bj = 000004
(PID.TID 0000.0001) //        EAST: Tile = 000007, Process = 000000, Comm = put
(PID.TID 0000.0001) //                bi = 000001, bj = 000004
(PID.TID 0000.0001) //       SOUTH: Tile = 000006, Process = 000000, Comm = put
(PID.TID 0000.0001) //                bi = 000002, bj = 000003
(PID.TID 0000.0001) //       NORTH: Tile = 000002, Process = 000000, Comm = put
(PID.TID 0000.0001) //                bi = 000002, bj = 000001
(PID.TID 0000.0001) 
(PID.TID 0000.0001)  INI_PARMS: opening model parameter file "data"
(PID.TID 0000.0001)  OPEN_COPY_DATA_FILE: opening file data
(PID.TID 0000.0001) // =======================================================
(PID.TID 0000.0001) // Parameter file "data"
(PID.TID 0000.0001) // =======================================================
(PID.TID 0000.0001) ># ====================
(PID.TID 0000.0001) ># | Model parameters |
(PID.TID 0000.0001) ># ====================
(PID.TID 0000.0001) >#
(PID.TID 0000.0001) ># Continuous equation parameters
(PID.TID 0000.0001) > &PARM01
(PID.TID 0000.0001) > Tref = 30*-1.9,
(PID.TID 0000.0001) >#Sref = 30*34.4,
(PID.TID 0000.0001) > Sref = 10*34.4,
(PID.TID 0000.0001) >       34.4436872 , 34.4873744 , 34.5310616 , 34.5747488 , 34.618436  ,
(PID.TID 0000.0001) >       34.6621232 , 34.7058104 , 34.7494976 , 34.7931848 , 34.836872  ,
(PID.TID 0000.0001) >       34.8805592 , 34.9242464 , 34.9679336 , 35.0116208 , 35.05530799,
(PID.TID 0000.0001) >       35.09899519, 35.14268239, 35.18636959, 35.23005679, 35.27374399,
(PID.TID 0000.0001) > viscAz=1.E-3,
(PID.TID 0000.0001) > viscAh=600.0,
(PID.TID 0000.0001) > no_slip_sides=.FALSE.,
(PID.TID 0000.0001) > no_slip_bottom=.FALSE.,
(PID.TID 0000.0001) > diffKhT=100.0,
(PID.TID 0000.0001) > diffKzT=5.E-5,
(PID.TID 0000.0001) > diffKhS=100.0,
(PID.TID 0000.0001) > diffKzS=5.E-5,
(PID.TID 0000.0001) > bottomDragQuadratic=2.5E-3,
(PID.TID 0000.0001) > eosType='JMD95Z',
(PID.TID 0000.0001) > HeatCapacity_Cp = 3974.0,
(PID.TID 0000.0001) > rhoConst=1030.,
(PID.TID 0000.0001) > gravity=9.81,
(PID.TID 0000.0001) > implicitDiffusion=.TRUE.,
(PID.TID 0000.0001) > implicitViscosity=.TRUE.,
(PID.TID 0000.0001) > implicitFreeSurface=.TRUE.,
(PID.TID 0000.0001) > exactConserv=.TRUE.,
(PID.TID 0000.0001) ># this is needed to test the balancing code
(PID.TID 0000.0001) > useRealFreshWaterFlux = .TRUE.,
(PID.TID 0000.0001) > select_rStar=2,
(PID.TID 0000.0001) > nonlinFreeSurf=4,
(PID.TID 0000.0001) > hFacInf=0.02,
(PID.TID 0000.0001) > hFacSup=2.0,
(PID.TID 0000.0001) >#
(PID.TID 0000.0001) > hFacMin=0.05,
(PID.TID 0000.0001) > readBinaryPrec=64,
(PID.TID 0000.0001) > useSingleCpuIO = .TRUE.,
(PID.TID 0000.0001) > debugLevel=3,
(PID.TID 0000.0001) > /
(PID.TID 0000.0001) >
(PID.TID 0000.0001) ># Elliptic solver parameters
(PID.TID 0000.0001) > &PARM02
(PID.TID 0000.0001) > cg2dMaxIters=1000,
(PID.TID 0000.0001) > cg2dTargetResidual=1.E-13,
(PID.TID 0000.0001) > /
(PID.TID 0000.0001) >
(PID.TID 0000.0001) ># Time stepping parameters
(PID.TID 0000.0001) > &PARM03
(PID.TID 0000.0001) > nIter0=0,
(PID.TID 0000.0001) > nTimeSteps=12,
(PID.TID 0000.0001) > deltaT=1800.0,
(PID.TID 0000.0001) > abEps=0.1,
(PID.TID 0000.0001) > pChkptFreq=0.0,
(PID.TID 0000.0001) > chkptFreq=0.0,
(PID.TID 0000.0001) > dumpFreq=0.0,
(PID.TID 0000.0001) > monitorFreq=1.,
(PID.TID 0000.0001) > monitorSelect=2,
(PID.TID 0000.0001) > /
(PID.TID 0000.0001) >
(PID.TID 0000.0001) ># Gridding parameters
(PID.TID 0000.0001) > &PARM04
(PID.TID 0000.0001) > usingSphericalPolarGrid=.TRUE.,
(PID.TID 0000.0001) > ygOrigin = -80.0,
(PID.TID 0000.0001) > delX=50*0.3,
(PID.TID 0000.0001) > delY=100*0.1,
(PID.TID 0000.0001) > delZ=30*30.0,
(PID.TID 0000.0001) > /
(PID.TID 0000.0001) >
(PID.TID 0000.0001) ># Input datasets
(PID.TID 0000.0001) > &PARM05
(PID.TID 0000.0001) > bathyFile='bathy.box',
(PID.TID 0000.0001) > /
(PID.TID 0000.0001) 
(PID.TID 0000.0001)  INI_PARMS ; starts to read PARM01
(PID.TID 0000.0001)  INI_PARMS ; read PARM01 : OK
(PID.TID 0000.0001)  INI_PARMS ; starts to read PARM02
(PID.TID 0000.0001)  INI_PARMS ; read PARM02 : OK
(PID.TID 0000.0001)  INI_PARMS ; starts to read PARM03
(PID.TID 0000.0001)  INI_PARMS ; read PARM03 : OK
(PID.TID 0000.0001)  INI_PARMS ; starts to read PARM04
(PID.TID 0000.0001)  INI_PARMS ; read PARM04 : OK
(PID.TID 0000.0001)  INI_PARMS ; starts to read PARM05
(PID.TID 0000.0001)  INI_PARMS ; read PARM05 : OK
(PID.TID 0000.0001)  INI_PARMS: finished reading file "data"
(PID.TID 0000.0001)  PACKAGES_BOOT: opening data.pkg
(PID.TID 0000.0001)  OPEN_COPY_DATA_FILE: opening file data.pkg
(PID.TID 0000.0001) // =======================================================
(PID.TID 0000.0001) // Parameter file "data.pkg"
(PID.TID 0000.0001) // =======================================================
(PID.TID 0000.0001) ># Packages
(PID.TID 0000.0001) > &PACKAGES
(PID.TID 0000.0001) > useShelfIce=.TRUE.,
(PID.TID 0000.0001) > useGGL90=.TRUE.,
(PID.TID 0000.0001) > useOBCS=.TRUE.,
(PID.TID 0000.0001) > useDiagnostics=.TRUE.,
(PID.TID 0000.0001) >#useMNC=.TRUE.,
(PID.TID 0000.0001) > /
(PID.TID 0000.0001) 
(PID.TID 0000.0001)  PACKAGES_BOOT: finished reading data.pkg
(PID.TID 0000.0001)  PACKAGES_BOOT: On/Off package Summary
 --------  pkgs with a standard "usePKG" On/Off switch in "data.pkg":  --------
 pkg/obcs                 compiled   and   used ( useOBCS                  = T )
 pkg/ggl90                compiled   and   used ( useGGL90                 = T )
 pkg/shelfice             compiled   and   used ( useShelfIce              = T )
 pkg/icefront             compiled but not used ( useICEFRONT              = F )
 pkg/diagnostics          compiled   and   used ( useDiagnostics           = T )
 pkg/mnc                  compiled but not used ( useMNC                   = F )
 -------- pkgs without standard "usePKG" On/Off switch in "data.pkg":  --------
 pkg/generic_advdiff      compiled   and   used ( useGAD                   = T )
 pkg/mom_common           compiled   and   used ( momStepping              = T )
 pkg/mom_vecinv           compiled but not used ( +vectorInvariantMomentum = F )
 pkg/mom_fluxform         compiled   and   used ( & not vectorInvariantMom = T )
 pkg/cd_code              compiled but not used ( useCDscheme              = F )
 pkg/monitor              compiled   and   used ( monitorFreq > 0.         = T )
 pkg/debug                compiled but not used ( debugMode                = F )
 pkg/rw                   compiled   and   used
 pkg/mdsio                compiled   and   used
(PID.TID 0000.0001)  PACKAGES_BOOT: End of package Summary
(PID.TID 0000.0001) 
(PID.TID 0000.0001)  OBCS_READPARMS: opening data.obcs
(PID.TID 0000.0001)  OPEN_COPY_DATA_FILE: opening file data.obcs
(PID.TID 0000.0001) // =======================================================
(PID.TID 0000.0001) // Parameter file "data.obcs"
(PID.TID 0000.0001) // =======================================================
(PID.TID 0000.0001) ># Open-boundaries
(PID.TID 0000.0001) > &OBCS_PARM01
(PID.TID 0000.0001) ># This flag turns off checking and fixing problematic topography across
(PID.TID 0000.0001) ># open boundaries.
(PID.TID 0000.0001) > OBCSfixTopo=.FALSE.,
(PID.TID 0000.0001) > OB_Jnorth= 50*-1,
(PID.TID 0000.0001) > useOBCSprescribe = .TRUE.,
(PID.TID 0000.0001) ># not prescribing any velocity defaults to zero flow
(PID.TID 0000.0001) >#OBNuFile = ' ',
(PID.TID 0000.0001) > OBCS_monitorFreq= 1800.,
(PID.TID 0000.0001) > OBCS_monSelect = 1,
(PID.TID 0000.0001) > useOBCSbalance = .TRUE.,
(PID.TID 0000.0001) ># this flag tests balancing the surface flux
(PID.TID 0000.0001) > OBCSbalanceSurf = .TRUE.,
(PID.TID 0000.0001) ># all adjustments are made through the northern boundary
(PID.TID 0000.0001) > OBCS_balanceFacN = 1.,
(PID.TID 0000.0001) > /
(PID.TID 0000.0001) >
(PID.TID 0000.0001) 
(PID.TID 0000.0001)  OBCS_READPARMS: finished reading data.obcs
(PID.TID 0000.0001)  OB_indexUnset = /* unset OB index value (i.e. no OB) */
(PID.TID 0000.0001)                       0
(PID.TID 0000.0001)     ;
(PID.TID 0000.0001)  Northern OB global indices : OB_Jnorth =
(PID.TID 0000.0001)    50 @      100                            /* I =  1: 50 */
(PID.TID 0000.0001)  Southern OB global indices : OB_Jsouth =
(PID.TID 0000.0001)    50 @        0                            /* I =  1: 50 */
(PID.TID 0000.0001)  Eastern  OB global indices : OB_Ieast =
(PID.TID 0000.0001)   100 @        0                            /* J =  1:100 */
(PID.TID 0000.0001)  Western  OB global indices : OB_Iwest =
(PID.TID 0000.0001)   100 @        0                            /* J =  1:100 */
(PID.TID 0000.0001) 
(PID.TID 0000.0001)  GGL90_READPARMS: opening data.ggl90
(PID.TID 0000.0001)  OPEN_COPY_DATA_FILE: opening file data.ggl90
(PID.TID 0000.0001) // =======================================================
(PID.TID 0000.0001) // Parameter file "data.ggl90"
(PID.TID 0000.0001) // =======================================================
(PID.TID 0000.0001) ># =====================================================================
(PID.TID 0000.0001) ># | Parameters for Gaspar et al. (1990)'s TKE vertical mixing scheme  |
(PID.TID 0000.0001) ># =====================================================================
(PID.TID 0000.0001) > &GGL90_PARM01
(PID.TID 0000.0001) > GGL90writeState=.TRUE.,
(PID.TID 0000.0001) > mxlMaxFlag=2,
(PID.TID 0000.0001) >#- decrease Minimum TKE value @ the top (default = 1.E-4) to feel the
(PID.TID 0000.0001) >#  effect of ice-shelf bottom stress on TKE and vertical mixing:
(PID.TID 0000.0001) > GGL90TKEsurfMin= 1.E-5,
(PID.TID 0000.0001) > /
(PID.TID 0000.0001) 
(PID.TID 0000.0001)  GGL90_READPARMS ; starts to read GGL90_PARM01
(PID.TID 0000.0001)  GGL90_READPARMS: read GGL90_PARM01 : OK
(PID.TID 0000.0001)  GGL90_READPARMS: finished reading data.ggl90
(PID.TID 0000.0001) // =======================================================
(PID.TID 0000.0001) // GGL90 configuration
(PID.TID 0000.0001) // =======================================================
(PID.TID 0000.0001) GGL90dumpFreq =   /* GGL90 state write out interval ( s ). */
(PID.TID 0000.0001)                 0.000000000000000E+00
(PID.TID 0000.0001)     ;
(PID.TID 0000.0001) GGL90taveFreq =   /* GGL90 averaging interval ( s ). */
(PID.TID 0000.0001)                 1.234567000000000E+05
(PID.TID 0000.0001)     ;
(PID.TID 0000.0001) GGL90mixingMAPS =   /* GGL90 IO flag */
(PID.TID 0000.0001)                   F
(PID.TID 0000.0001)     ;
(PID.TID 0000.0001) GGL90writeState =   /* GGL90 IO flag */
(PID.TID 0000.0001)                   T
(PID.TID 0000.0001)     ;
(PID.TID 0000.0001) GGL90ck =   /* GGL90 viscosity parameter */
(PID.TID 0000.0001)                 1.000000000000000E-01
(PID.TID 0000.0001)     ;
(PID.TID 0000.0001) GGL90ceps =   /* GGL90 dissipation parameter */
(PID.TID 0000.0001)                 7.000000000000000E-01
(PID.TID 0000.0001)     ;
(PID.TID 0000.0001) GGL90alpha =   /* GGL90 TKE diffusivity parameter */
(PID.TID 0000.0001)                 1.000000000000000E+00
(PID.TID 0000.0001)     ;
(PID.TID 0000.0001) GGL90m2 =   /* GGL90 wind stress to vertical stress ratio */
(PID.TID 0000.0001)                 3.750000000000000E+00
(PID.TID 0000.0001)     ;
(PID.TID 0000.0001) GGL90TKEmin =   /* GGL90 minimum kinetic energy ( m^2/s^2 ) */
(PID.TID 0000.0001)                 9.999999999999999E-12
(PID.TID 0000.0001)     ;
(PID.TID 0000.0001) GGL90TKEsurfMin =   /* GGL90 minimum surface kinetic energy ( m^2/s^2 ) */
(PID.TID 0000.0001)                 1.000000000000000E-05
(PID.TID 0000.0001)     ;
(PID.TID 0000.0001) GGL90TKEbottom =   /* GGL90 bottom kinetic energy ( m^2/s^2 ) */
(PID.TID 0000.0001)                 9.999999999999999E-12
(PID.TID 0000.0001)     ;
(PID.TID 0000.0001) GGL90viscMax =   /* GGL90 upper limit for viscosity (m^2/s ) */
(PID.TID 0000.0001)                 1.000000000000000E+02
(PID.TID 0000.0001)     ;
(PID.TID 0000.0001) GGL90diffMax =   /* GGL90 upper limit for diffusivity (m^2/s ) */
(PID.TID 0000.0001)                 1.000000000000000E+02
(PID.TID 0000.0001)     ;
(PID.TID 0000.0001) GGL90diffTKEh =   /* GGL90 horizontal diffusivity for TKE ( m^2/s ) */
(PID.TID 0000.0001)                 0.000000000000000E+00
(PID.TID 0000.0001)     ;
(PID.TID 0000.0001) GGL90mixingLengthMin =   /* GGL90 minimum mixing length (m) */
(PID.TID 0000.0001)                 1.000000000000000E-08
(PID.TID 0000.0001)     ;
(PID.TID 0000.0001) mxlMaxFlag =   /* Flag for limiting mixing-length method */
(PID.TID 0000.0001)                       2
(PID.TID 0000.0001)     ;
(PID.TID 0000.0001) mxlSurfFlag =   /* GGL90 flag for near surface mixing */
(PID.TID 0000.0001)                   F
(PID.TID 0000.0001)     ;
(PID.TID 0000.0001) calcMeanVertShear = /* calc Mean of Vert.Shear (vs shear of Mean flow) */
(PID.TID 0000.0001)                   F
(PID.TID 0000.0001)     ;
(PID.TID 0000.0001) GGL90: GGL90TKEFile =
(PID.TID 0000.0001) GGL90_dirichlet =   /* GGL90 Boundary condition flag */
(PID.TID 0000.0001)                   T
(PID.TID 0000.0001)     ;
(PID.TID 0000.0001) // =======================================================
(PID.TID 0000.0001) // End of GGL90 config. summary
(PID.TID 0000.0001) // =======================================================
(PID.TID 0000.0001) 
(PID.TID 0000.0001)  SHELFICE_READPARMS: opening data.shelfice
(PID.TID 0000.0001)  OPEN_COPY_DATA_FILE: opening file data.shelfice
(PID.TID 0000.0001) // =======================================================
(PID.TID 0000.0001) // Parameter file "data.shelfice"
(PID.TID 0000.0001) // =======================================================
(PID.TID 0000.0001) ># ===================================
(PID.TID 0000.0001) ># | Parameters for SHELFICE package |
(PID.TID 0000.0001) ># ===================================
(PID.TID 0000.0001) > &SHELFICE_PARM01
(PID.TID 0000.0001) > SHELFICEconserve = .TRUE.,
(PID.TID 0000.0001) > SHELFICEboundaryLayer = .TRUE.,
(PID.TID 0000.0001) > SHELFICEtopoFile='icetopo.obcs',
(PID.TID 0000.0001) > SHELFICEmassFile='iceShelf_Mass.obcs',
(PID.TID 0000.0001) > SHELFICEMAssStepping = .TRUE.,
(PID.TID 0000.0001) > SHELFICEMassDynTendFile ='iceShelf_MassTend.obcs',
(PID.TID 0000.0001) > SHELFICEadvDiffHeatFlux = .TRUE.,
(PID.TID 0000.0001) > SHELFICEuseGammaFrict = .TRUE.,
(PID.TID 0000.0001) > SHELFICEselectDragQuadr = 1,
(PID.TID 0000.0001) > SHELFICEwriteState = .TRUE.,
(PID.TID 0000.0001) > /
(PID.TID 0000.0001) 
(PID.TID 0000.0001)  SHELFICE_READPARMS: finished reading data.shelfice
(PID.TID 0000.0001)  DIAGNOSTICS_READPARMS: opening data.diagnostics
(PID.TID 0000.0001)  OPEN_COPY_DATA_FILE: opening file data.diagnostics
(PID.TID 0000.0001) // =======================================================
(PID.TID 0000.0001) // Parameter file "data.diagnostics"
(PID.TID 0000.0001) // =======================================================
(PID.TID 0000.0001) ># Diagnostic Package Choices
(PID.TID 0000.0001) >#--------------------
(PID.TID 0000.0001) >#  dumpAtLast (logical): always write output at the end of simulation (default=F)
(PID.TID 0000.0001) >#  diag_mnc   (logical): write to NetCDF files (default=useMNC)
(PID.TID 0000.0001) >#--for each output-stream:
(PID.TID 0000.0001) >#  fileName(n) : prefix of the output file name (max 80c long) for outp.stream n
(PID.TID 0000.0001) >#  frequency(n):< 0 : write snap-shot output every |frequency| seconds
(PID.TID 0000.0001) >#               > 0 : write time-average output every frequency seconds
(PID.TID 0000.0001) >#  timePhase(n)     : write at time = timePhase + multiple of |frequency|
(PID.TID 0000.0001) >#    averagingFreq  : frequency (in s) for periodic averaging interval
(PID.TID 0000.0001) >#    averagingPhase : phase     (in s) for periodic averaging interval
(PID.TID 0000.0001) >#    repeatCycle    : number of averaging intervals in 1 cycle
(PID.TID 0000.0001) >#  levels(:,n) : list of levels to write to file (Notes: declared as REAL)
(PID.TID 0000.0001) >#                when this entry is missing, select all common levels of this list
(PID.TID 0000.0001) >#  fields(:,n) : list of selected diagnostics fields (8.c) in outp.stream n
(PID.TID 0000.0001) >#                (see "available_diagnostics.log" file for the full list of diags)
(PID.TID 0000.0001) >#  missing_value(n) : missing value for real-type fields in output file "n"
(PID.TID 0000.0001) >#  fileFlags(n)     : specific code (8c string) for output file "n"
(PID.TID 0000.0001) >#--------------------
(PID.TID 0000.0001) > &DIAGNOSTICS_LIST
(PID.TID 0000.0001) ># diag_mnc     = .FALSE.,
(PID.TID 0000.0001) >#--
(PID.TID 0000.0001) >  fields(1:14,1) = 'ETAN    ','ETANSQ  ','DETADT2 ',
(PID.TID 0000.0001) >                   'SHIuStar','SHIgammT','SHIgammS',
(PID.TID 0000.0001) >                   'SHIfwFlx','SHIhtFlx','SHIForcT','SHIForcS',
(PID.TID 0000.0001) >                   'TFLUX   ','SFLUX   ',
(PID.TID 0000.0001) >                   'SHI_TauX','SHI_TauY',
(PID.TID 0000.0001) >#  fileName(1) = 'surfDiag',
(PID.TID 0000.0001) >  frequency(1) =  86400.,
(PID.TID 0000.0001) >
(PID.TID 0000.0001) >  fields(1:9,2)  = 'UVEL    ','VVEL    ','WVEL    ','PHIHYD  ',
(PID.TID 0000.0001) >                   'VVELMASS','UVELMASS','WVELSQ  ',
(PID.TID 0000.0001) >                   'THETA   ','SALT    ',
(PID.TID 0000.0001) ># do not specify levels => all levels are selected
(PID.TID 0000.0001) >   fileName(2) = 'dynDiag',
(PID.TID 0000.0001) >  frequency(2) =  5184000.,
(PID.TID 0000.0001) >
(PID.TID 0000.0001) >  fields(1:4,3)  = 'GGL90TKE','GGL90Lmx','GGL90Prl','GGL90Kr ',
(PID.TID 0000.0001) >#  fileName(3) = 'ggl90Diag',
(PID.TID 0000.0001) >  frequency(3) = 1728000.,
(PID.TID 0000.0001) >
(PID.TID 0000.0001) >  fields(1:7,4) =  'ADVx_TH ','ADVy_TH ','ADVr_TH ',
(PID.TID 0000.0001) >                   'DFxE_TH ','DFyE_TH ','DFrE_TH ',
(PID.TID 0000.0001) >                   'DFrI_TH ',
(PID.TID 0000.0001) >#  fileName(4) = 'flxDiag',
(PID.TID 0000.0001) >  frequency(4) = 1728000.,
(PID.TID 0000.0001) > /
(PID.TID 0000.0001) >
(PID.TID 0000.0001) >#--------------------
(PID.TID 0000.0001) ># Parameter for Diagnostics of per level statistics:
(PID.TID 0000.0001) >#--------------------
(PID.TID 0000.0001) >#  diagSt_mnc (logical): write stat-diags to NetCDF files (default=diag_mnc)
(PID.TID 0000.0001) >#  diagSt_regMaskFile : file containing the region-mask to read-in
(PID.TID 0000.0001) >#  nSetRegMskFile   : number of region-mask sets within the region-mask file
(PID.TID 0000.0001) >#  set_regMask(i)   : region-mask set-index that identifies the region "i"
(PID.TID 0000.0001) >#  val_regMask(i)   : region "i" identifier value in the region mask
(PID.TID 0000.0001) >#--for each output-stream:
(PID.TID 0000.0001) >#  stat_fName(n) : prefix of the output file name (max 80c long) for outp.stream n
(PID.TID 0000.0001) >#  stat_freq(n):< 0 : write snap-shot output every |stat_freq| seconds
(PID.TID 0000.0001) >#               > 0 : write time-average output every stat_freq seconds
(PID.TID 0000.0001) >#  stat_phase(n)    : write at time = stat_phase + multiple of |stat_freq|
(PID.TID 0000.0001) >#  stat_region(:,n) : list of "regions" (default: 1 region only=global)
(PID.TID 0000.0001) >#  stat_fields(:,n) : list of selected diagnostics fields (8.c) in outp.stream n
(PID.TID 0000.0001) >#                (see "available_diagnostics.log" file for the full list of diags)
(PID.TID 0000.0001) >#--------------------
(PID.TID 0000.0001) > &DIAG_STATIS_PARMS
(PID.TID 0000.0001) ># diagSt_mnc = .TRUE.,
(PID.TID 0000.0001) ># The mask differentiates between (1) inside and (2) outside the cavity. The
(PID.TID 0000.0001) ># mean of ETAN outside the cavity should not drift after an initial adjustment.
(PID.TID 0000.0001) ># The initial adjustment is caused by the imperfect balance of the initial
(PID.TID 0000.0001) ># ice mass load.
(PID.TID 0000.0001) >  diagSt_regMaskFile='iceMask.obcs',
(PID.TID 0000.0001) >  nSetRegMskFile = 1,
(PID.TID 0000.0001) >  set_regMask(1:2) = 1,  1,
(PID.TID 0000.0001) >  val_regMask(1:2) = 1., 2.,
(PID.TID 0000.0001) ># an example just to check the agreement with MONITOR output:
(PID.TID 0000.0001) > stat_fields(1:6,1)  = 'ETAN    ','UVEL    ','VVEL    ','WVEL    ',
(PID.TID 0000.0001) >                       'THETA   ','SALT    ',
(PID.TID 0000.0001) >  stat_fName(1) = 'dynStDiag',
(PID.TID 0000.0001) >   stat_freq(1) = 86400.,
(PID.TID 0000.0001) ># stat_phase(1) = 0.,
(PID.TID 0000.0001) > stat_region(1:3,1) = 0, 1, 2,
(PID.TID 0000.0001) > /
(PID.TID 0000.0001) >
(PID.TID 0000.0001) 
(PID.TID 0000.0001) S/R DIAGNOSTICS_READPARMS, read namelist "diagnostics_list": start
(PID.TID 0000.0001) S/R DIAGNOSTICS_READPARMS, read namelist "diagnostics_list": OK
(PID.TID 0000.0001) S/R DIAGNOSTICS_READPARMS, read namelist "DIAG_STATIS_PARMS": start
(PID.TID 0000.0001) S/R DIAGNOSTICS_READPARMS, read namelist "DIAG_STATIS_PARMS": OK
(PID.TID 0000.0001)  DIAGNOSTICS_READPARMS: global parameter summary:
(PID.TID 0000.0001)  dumpAtLast = /* always write time-ave diags at the end */
(PID.TID 0000.0001)                   F
(PID.TID 0000.0001)     ;
(PID.TID 0000.0001)  diag_mnc =   /* write NetCDF output files */
(PID.TID 0000.0001)                   F
(PID.TID 0000.0001)     ;
(PID.TID 0000.0001)  useMissingValue = /* put MissingValue where mask = 0 */
(PID.TID 0000.0001)                   F
(PID.TID 0000.0001)     ;
(PID.TID 0000.0001)  diagCG_maxIters = /* max number of iters in diag_cg2d */
(PID.TID 0000.0001)                    1000
(PID.TID 0000.0001)     ;
(PID.TID 0000.0001)  diagCG_resTarget = /* residual target for diag_cg2d */
(PID.TID 0000.0001)                 1.000000000000000E-13
(PID.TID 0000.0001)     ;
(PID.TID 0000.0001)  diagCG_pcOffDFac = /* preconditioner off-diagonal factor */
(PID.TID 0000.0001)                 9.611687812379854E-01
(PID.TID 0000.0001)     ;
(PID.TID 0000.0001) -----------------------------------------------------
(PID.TID 0000.0001)  DIAGNOSTICS_READPARMS: active diagnostics summary:
(PID.TID 0000.0001) -----------------------------------------------------
(PID.TID 0000.0001) Creating Output Stream: dynDiag
(PID.TID 0000.0001) Output Frequency:    5184000.000000 ; Phase:           0.000000
(PID.TID 0000.0001)  Averaging Freq.:    5184000.000000 , Phase:           0.000000 , Cycle:   1
(PID.TID 0000.0001)  missing value: -9.990000000000E+02
(PID.TID 0000.0001)  Levels:    will be set later
(PID.TID 0000.0001)  Fields:    UVEL     VVEL     WVEL     PHIHYD   VVELMASS UVELMASS WVELSQ   THETA    SALT
(PID.TID 0000.0001) -----------------------------------------------------
(PID.TID 0000.0001)  DIAGNOSTICS_READPARMS: statistics diags. summary:
(PID.TID 0000.0001) Creating Stats. Output Stream: dynStDiag
(PID.TID 0000.0001) Output Frequency:      86400.000000 ; Phase:           0.000000
(PID.TID 0000.0001)  Regions:   0  1  2
(PID.TID 0000.0001)  Fields:    ETAN     UVEL     VVEL     WVEL     THETA    SALT
(PID.TID 0000.0001) -----------------------------------------------------
(PID.TID 0000.0001) 
(PID.TID 0000.0001) SET_PARMS: done
(PID.TID 0000.0001) Enter INI_VERTICAL_GRID: setInterFDr=    T ; setCenterDr=    F
(PID.TID 0000.0001) %MON XC_max                       =   1.4850000000000E+01
(PID.TID 0000.0001) %MON XC_min                       =   1.5000000000000E-01
(PID.TID 0000.0001) %MON XC_mean                      =   7.5000000000000E+00
(PID.TID 0000.0001) %MON XC_sd                        =   4.3292609068985E+00
(PID.TID 0000.0001) %MON XG_max                       =   1.4700000000000E+01
(PID.TID 0000.0001) %MON XG_min                       =   1.1102230246252E-16
(PID.TID 0000.0001) %MON XG_mean                      =   7.3500000000000E+00
(PID.TID 0000.0001) %MON XG_sd                        =   4.3292609068985E+00
(PID.TID 0000.0001) %MON DXC_max                      =   1.1380125394806E+04
(PID.TID 0000.0001) %MON DXC_min                      =   5.8203914905589E+03
(PID.TID 0000.0001) %MON DXC_mean                     =   8.6215028627207E+03
(PID.TID 0000.0001) %MON DXC_sd                       =   1.6219001271572E+03
(PID.TID 0000.0001) %MON DXF_max                      =   1.1380125394806E+04
(PID.TID 0000.0001) %MON DXF_min                      =   5.8203914905589E+03
(PID.TID 0000.0001) %MON DXF_mean                     =   8.6215028627207E+03
(PID.TID 0000.0001) %MON DXF_sd                       =   1.6219001271572E+03
(PID.TID 0000.0001) %MON DXG_max                      =   1.1352761512017E+04
(PID.TID 0000.0001) %MON DXG_min                      =   5.7917296935586E+03
(PID.TID 0000.0001) %MON DXG_mean                     =   8.5934208253080E+03
(PID.TID 0000.0001) %MON DXG_sd                       =   1.6222785520817E+03
(PID.TID 0000.0001) %MON DXV_max                      =   1.1352761512017E+04
(PID.TID 0000.0001) %MON DXV_min                      =   5.7917296935586E+03
(PID.TID 0000.0001) %MON DXV_mean                     =   8.5934208253080E+03
(PID.TID 0000.0001) %MON DXV_sd                       =   1.6222785520817E+03
(PID.TID 0000.0001) %MON YC_max                       =  -7.0050000000001E+01
(PID.TID 0000.0001) %MON YC_min                       =  -7.9950000000000E+01
(PID.TID 0000.0001) %MON YC_mean                      =  -7.5000000000000E+01
(PID.TID 0000.0001) %MON YC_sd                        =   2.8866070047720E+00
(PID.TID 0000.0001) %MON YG_max                       =  -7.0100000000001E+01
(PID.TID 0000.0001) %MON YG_min                       =  -8.0000000000000E+01
(PID.TID 0000.0001) %MON YG_mean                      =  -7.5050000000000E+01
(PID.TID 0000.0001) %MON YG_sd                        =   2.8866070047721E+00
(PID.TID 0000.0001) %MON DYC_max                      =   1.1117747335204E+04
(PID.TID 0000.0001) %MON DYC_min                      =   1.1117747335204E+04
(PID.TID 0000.0001) %MON DYC_mean                     =   1.1117747335204E+04
(PID.TID 0000.0001) %MON DYC_sd                       =   4.1836756281555E-11
(PID.TID 0000.0001) %MON DYF_max                      =   1.1117747335204E+04
(PID.TID 0000.0001) %MON DYF_min                      =   1.1117747335204E+04
(PID.TID 0000.0001) %MON DYF_mean                     =   1.1117747335204E+04
(PID.TID 0000.0001) %MON DYF_sd                       =   4.1836756281555E-11
(PID.TID 0000.0001) %MON DYG_max                      =   1.1117747335204E+04
(PID.TID 0000.0001) %MON DYG_min                      =   1.1117747335204E+04
(PID.TID 0000.0001) %MON DYG_mean                     =   1.1117747335204E+04
(PID.TID 0000.0001) %MON DYG_sd                       =   4.1836756281555E-11
(PID.TID 0000.0001) %MON DYU_max                      =   1.1117747335204E+04
(PID.TID 0000.0001) %MON DYU_min                      =   1.1117747335204E+04
(PID.TID 0000.0001) %MON DYU_mean                     =   1.1117747335204E+04
(PID.TID 0000.0001) %MON DYU_sd                       =   4.1836756281555E-11
(PID.TID 0000.0001) %MON RA_max                       =   1.2652134272379E+08
(PID.TID 0000.0001) %MON RA_min                       =   6.4709633770803E+07
(PID.TID 0000.0001) %MON RA_mean                      =   9.5851678311587E+07
(PID.TID 0000.0001) %MON RA_sd                        =   1.8031873527992E+07
(PID.TID 0000.0001) %MON RAW_max                      =   1.2652134272379E+08
(PID.TID 0000.0001) %MON RAW_min                      =   6.4709633770803E+07
(PID.TID 0000.0001) %MON RAW_mean                     =   9.5851678311587E+07
(PID.TID 0000.0001) %MON RAW_sd                       =   1.8031873527992E+07
(PID.TID 0000.0001) %MON RAS_max                      =   1.2621711802744E+08
(PID.TID 0000.0001) %MON RAS_min                      =   6.4390979194019E+07
(PID.TID 0000.0001) %MON RAS_mean                     =   9.5539469354603E+07
(PID.TID 0000.0001) %MON RAS_sd                       =   1.8036080760153E+07
(PID.TID 0000.0001) %MON RAZ_max                      =   1.2621711802744E+08
(PID.TID 0000.0001) %MON RAZ_min                      =   6.4390979194019E+07
(PID.TID 0000.0001) %MON RAZ_mean                     =   9.5539469354603E+07
(PID.TID 0000.0001) %MON RAZ_sd                       =   1.8036080760153E+07
(PID.TID 0000.0001) %MON AngleCS_max                  =   1.0000000000000E+00
(PID.TID 0000.0001) %MON AngleCS_min                  =   1.0000000000000E+00
(PID.TID 0000.0001) %MON AngleCS_mean                 =   1.0000000000000E+00
(PID.TID 0000.0001) %MON AngleCS_sd                   =   0.0000000000000E+00
(PID.TID 0000.0001) %MON AngleSN_max                  =   0.0000000000000E+00
(PID.TID 0000.0001) %MON AngleSN_min                  =   0.0000000000000E+00
(PID.TID 0000.0001) %MON AngleSN_mean                 =   0.0000000000000E+00
(PID.TID 0000.0001) %MON AngleSN_sd                   =   0.0000000000000E+00
(PID.TID 0000.0001)  MDS_WRITEVEC_LOC: open file: RhoRef.data
(PID.TID 0000.0001)  MDS_READ_FIELD: opening global file: bathy.box
(PID.TID 0000.0001) // =======================================================
(PID.TID 0000.0001) // Field Bottom depths (ini_depths)
(PID.TID 0000.0001) // CMIN =         -9.000000000000000E+02
(PID.TID 0000.0001) // CMAX =         -9.000000000000000E+02
(PID.TID 0000.0001) // CINT =          0.000000000000000E+00
(PID.TID 0000.0001) // SYMBOLS (CMIN->CMAX): -abcdefghijklmnopqrstuvwxyz+
(PID.TID 0000.0001) //                  0.0: .
(PID.TID 0000.0001) // RANGE I (Lo:Hi:Step):(    -2:    53:     1)
(PID.TID 0000.0001) // RANGE J (Lo:Hi:Step):(   103:    -2:    -1)
(PID.TID 0000.0001) // RANGE K (Lo:Hi:Step):(   1:   1:   1)
(PID.TID 0000.0001) // =======================================================
(PID.TID 0000.0001) // =======================================================
(PID.TID 0000.0001) // END OF FIELD                                          =
(PID.TID 0000.0001) // =======================================================
(PID.TID 0000.0001) 
(PID.TID 0000.0001) // =======================================================
(PID.TID 0000.0001) // Field Surface reference r-position (ini_depths)
(PID.TID 0000.0001) // CMIN =          1.000000000000000E+32
(PID.TID 0000.0001) // CMAX =         -1.000000000000000E+32
(PID.TID 0000.0001) // CINT =          0.000000000000000E+00
(PID.TID 0000.0001) // SYMBOLS (CMIN->CMAX): -abcdefghijklmnopqrstuvwxyz+
(PID.TID 0000.0001) //                  0.0: .
(PID.TID 0000.0001) // RANGE I (Lo:Hi:Step):(    -2:    53:     1)
(PID.TID 0000.0001) // RANGE J (Lo:Hi:Step):(   103:    -2:    -1)
(PID.TID 0000.0001) // RANGE K (Lo:Hi:Step):(   1:   1:   1)
(PID.TID 0000.0001) // =======================================================
(PID.TID 0000.0001) // =======================================================
(PID.TID 0000.0001) // END OF FIELD                                          =
(PID.TID 0000.0001) // =======================================================
(PID.TID 0000.0001) 
(PID.TID 0000.0001)  MDS_READ_FIELD: opening global file: icetopo.obcs
(PID.TID 0000.0001) // =======================================================
(PID.TID 0000.0001) // Field Model R_low (ini_masks_etc)
(PID.TID 0000.0001) // CMIN =         -9.000000000000000E+02
(PID.TID 0000.0001) // CMAX =         -9.000000000000000E+02
(PID.TID 0000.0001) // CINT =          0.000000000000000E+00
(PID.TID 0000.0001) // SYMBOLS (CMIN->CMAX): -abcdefghijklmnopqrstuvwxyz+
(PID.TID 0000.0001) //                  0.0: .
(PID.TID 0000.0001) // RANGE I (Lo:Hi:Step):(    -2:    53:     1)
(PID.TID 0000.0001) // RANGE J (Lo:Hi:Step):(   103:    -2:    -1)
(PID.TID 0000.0001) // RANGE K (Lo:Hi:Step):(   1:   1:   1)
(PID.TID 0000.0001) // =======================================================
(PID.TID 0000.0001) // =======================================================
(PID.TID 0000.0001) // END OF FIELD                                          =
(PID.TID 0000.0001) // =======================================================
(PID.TID 0000.0001) 
(PID.TID 0000.0001) // =======================================================
(PID.TID 0000.0001) // Field Model Ro_surf (ini_masks_etc)
(PID.TID 0000.0001) // CMIN =         -6.812500000000010E+02
(PID.TID 0000.0001) // CMAX =         -2.000000000000000E+02
(PID.TID 0000.0001) // CINT =          1.782407407407411E+01
(PID.TID 0000.0001) // SYMBOLS (CMIN->CMAX): -abcdefghijklmnopqrstuvwxyz+
(PID.TID 0000.0001) //                  0.0: .
(PID.TID 0000.0001) // RANGE I (Lo:Hi:Step):(    -2:    53:     1)
(PID.TID 0000.0001) // RANGE J (Lo:Hi:Step):(   103:    -2:    -1)
(PID.TID 0000.0001) // RANGE K (Lo:Hi:Step):(   1:   1:   1)
(PID.TID 0000.0001) // =======================================================
(PID.TID 0000.0001) K =   1
(PID.TID 0000.0001) //                I=7       I=17      I=27      I=31      I=41      I=51
(PID.TID 0000.0001) // |--J--|210123456|890123456|890123456|834567890|234567890|234567890|23
(PID.TID 0000.0001) //    103 aaa.aaaaaaaaaaaaaaaaaaaaaaaaaaaaaaaaaaaaaaaaaaaaaaaaaaaaaaa.aa
(PID.TID 0000.0001) //    102 ---.-------------------------------------------------------.--
(PID.TID 0000.0001) //    101 ..............................................................
(PID.TID 0000.0001) //    100 ..............................................................
(PID.TID 0000.0001) //     99 ..............................................................
(PID.TID 0000.0001) //     98 ..............................................................
(PID.TID 0000.0001) //     97 ..............................................................
(PID.TID 0000.0001) //     96 ..............................................................
(PID.TID 0000.0001) //     95 ..............................................................
(PID.TID 0000.0001) //     94 ..............................................................
(PID.TID 0000.0001) //     93 ..............................................................
(PID.TID 0000.0001) //     92 ..............................................................
(PID.TID 0000.0001) //     91 ..............................................................
(PID.TID 0000.0001) //     90 ..............................................................
(PID.TID 0000.0001) //     89 ..............................................................
(PID.TID 0000.0001) //     88 ..............................................................
(PID.TID 0000.0001) //     87 ..............................................................
(PID.TID 0000.0001) //     86 ..............................................................
(PID.TID 0000.0001) //     85 ..............................................................
(PID.TID 0000.0001) //     84 ..............................................................
(PID.TID 0000.0001) //     83 ..............................................................
(PID.TID 0000.0001) //     82 ..............................................................
(PID.TID 0000.0001) //     81 ..............................................................
(PID.TID 0000.0001) //     80 ..............................................................
(PID.TID 0000.0001) //     79 ..............................................................
(PID.TID 0000.0001) //     78 ..............................................................
(PID.TID 0000.0001) //     77 ..............................................................
(PID.TID 0000.0001) //     76 ..............................................................
(PID.TID 0000.0001) //     75 ..............................................................
(PID.TID 0000.0001) //     74 ..............................................................
(PID.TID 0000.0001) //     73 ..............................................................
(PID.TID 0000.0001) //     78 ..............................................................
(PID.TID 0000.0001) //     77 ..............................................................
(PID.TID 0000.0001) //     76 ..............................................................
(PID.TID 0000.0001) //     75 ..............................................................
(PID.TID 0000.0001) //     74 ..............................................................
(PID.TID 0000.0001) //     73 ..............................................................
(PID.TID 0000.0001) //     72 ..............................................................
(PID.TID 0000.0001) //     71 ..............................................................
(PID.TID 0000.0001) //     70 ..............................................................
(PID.TID 0000.0001) //     69 ..............................................................
(PID.TID 0000.0001) //     68 ..............................................................
(PID.TID 0000.0001) //     67 ..............................................................
(PID.TID 0000.0001) //     66 ..............................................................
(PID.TID 0000.0001) //     65 ..............................................................
(PID.TID 0000.0001) //     64 ..............................................................
(PID.TID 0000.0001) //     63 ..............................................................
(PID.TID 0000.0001) //     62 ..............................................................
(PID.TID 0000.0001) //     61 ..............................................................
(PID.TID 0000.0001) //     60 ..............................................................
(PID.TID 0000.0001) //     59 ..............................................................
(PID.TID 0000.0001) //     58 ..............................................................
(PID.TID 0000.0001) //     57 ..............................................................
(PID.TID 0000.0001) //     56 ..............................................................
(PID.TID 0000.0001) //     55 ..............................................................
(PID.TID 0000.0001) //     54 ..............................................................
(PID.TID 0000.0001) //     53 ..............................................................
(PID.TID 0000.0001) //     52 ..............................................................
(PID.TID 0000.0001) //     51 ..............................................................
(PID.TID 0000.0001) //     50 +++.+++++++++++++++++++++++++++++++++++++++++++++++++++++++.++
(PID.TID 0000.0001) //     49 +++.+++++++++++++++++++++++++++++++++++++++++++++++++++++++.++
(PID.TID 0000.0001) //     48 +++.+++++++++++++++++++++++++++++++++++++++++++++++++++++++.++
(PID.TID 0000.0001) //     53 ..............................................................
(PID.TID 0000.0001) //     52 ..............................................................
(PID.TID 0000.0001) //     51 ..............................................................
(PID.TID 0000.0001) //     50 +++.+++++++++++++++++++++++++++++++++++++++++++++++++++++++.++
(PID.TID 0000.0001) //     49 +++.+++++++++++++++++++++++++++++++++++++++++++++++++++++++.++
(PID.TID 0000.0001) //     48 +++.+++++++++++++++++++++++++++++++++++++++++++++++++++++++.++
(PID.TID 0000.0001) //     47 +++.+++++++++++++++++++++++++++++++++++++++++++++++++++++++.++
(PID.TID 0000.0001) //     46 +++.+++++++++++++++++++++++++++++++++++++++++++++++++++++++.++
(PID.TID 0000.0001) //     45 +++.+++++++++++++++++++++++++++++++++++++++++++++++++++++++.++
(PID.TID 0000.0001) //     44 +++.+++++++++++++++++++++++++++++++++++++++++++++++++++++++.++
(PID.TID 0000.0001) //     43 +++.+++++++++++++++++++++++++++++++++++++++++++++++++++++++.++
(PID.TID 0000.0001) //     42 +++.+++++++++++++++++++++++++++++++++++++++++++++++++++++++.++
(PID.TID 0000.0001) //     41 +++.+++++++++++++++++++++++++++++++++++++++++++++++++++++++.++
(PID.TID 0000.0001) //     40 +++.+++++++++++++++++++++++++++++++++++++++++++++++++++++++.++
(PID.TID 0000.0001) //     39 zzz.zzzzzzzzzzzzzzzzzzzzzzzzzzzzzzzzzzzzzzzzzzzzzzzzzzzzzzz.zz
(PID.TID 0000.0001) //     38 yyy.yyyyyyyyyyyyyyyyyyyyyyyyyyyyyyyyyyyyyyyyyyyyyyyyyyyyyyy.yy
(PID.TID 0000.0001) //     37 yyy.yyyyyyyyyyyyyyyyyyyyyyyyyyyyyyyyyyyyyyyyyyyyyyyyyyyyyyy.yy
(PID.TID 0000.0001) //     36 xxx.xxxxxxxxxxxxxxxxxxxxxxxxxxxxxxxxxxxxxxxxxxxxxxxxxxxxxxx.xx
(PID.TID 0000.0001) //     35 www.wwwwwwwwwwwwwwwwwwwwwwwwwwwwwwwwwwwwwwwwwwwwwwwwwwwwwww.ww
(PID.TID 0000.0001) //     34 vvv.vvvvvvvvvvvvvvvvvvvvvvvvvvvvvvvvvvvvvvvvvvvvvvvvvvvvvvv.vv
(PID.TID 0000.0001) //     33 vvv.vvvvvvvvvvvvvvvvvvvvvvvvvvvvvvvvvvvvvvvvvvvvvvvvvvvvvvv.vv
(PID.TID 0000.0001) //     32 uuu.uuuuuuuuuuuuuuuuuuuuuuuuuuuuuuuuuuuuuuuuuuuuuuuuuuuuuuu.uu
(PID.TID 0000.0001) //     31 ttt.ttttttttttttttttttttttttttttttttttttttttttttttttttttttt.tt
(PID.TID 0000.0001) //     30 ttt.ttttttttttttttttttttttttttttttttttttttttttttttttttttttt.tt
(PID.TID 0000.0001) //     29 sss.sssssssssssssssssssssssssssssssssssssssssssssssssssssss.ss
(PID.TID 0000.0001) //     28 rrr.rrrrrrrrrrrrrrrrrrrrrrrrrrrrrrrrrrrrrrrrrrrrrrrrrrrrrrr.rr
(PID.TID 0000.0001) //     27 rrr.rrrrrrrrrrrrrrrrrrrrrrrrrrrrrrrrrrrrrrrrrrrrrrrrrrrrrrr.rr
(PID.TID 0000.0001) //     26 qqq.qqqqqqqqqqqqqqqqqqqqqqqqqqqqqqqqqqqqqqqqqqqqqqqqqqqqqqq.qq
(PID.TID 0000.0001) //     25 ppp.ppppppppppppppppppppppppppppppppppppppppppppppppppppppp.pp
(PID.TID 0000.0001) //     24 ooo.ooooooooooooooooooooooooooooooooooooooooooooooooooooooo.oo
(PID.TID 0000.0001) //     23 ooo.ooooooooooooooooooooooooooooooooooooooooooooooooooooooo.oo
(PID.TID 0000.0001) //     28 rrr.rrrrrrrrrrrrrrrrrrrrrrrrrrrrrrrrrrrrrrrrrrrrrrrrrrrrrrr.rr
(PID.TID 0000.0001) //     27 rrr.rrrrrrrrrrrrrrrrrrrrrrrrrrrrrrrrrrrrrrrrrrrrrrrrrrrrrrr.rr
(PID.TID 0000.0001) //     26 qqq.qqqqqqqqqqqqqqqqqqqqqqqqqqqqqqqqqqqqqqqqqqqqqqqqqqqqqqq.qq
(PID.TID 0000.0001) //     25 ppp.ppppppppppppppppppppppppppppppppppppppppppppppppppppppp.pp
(PID.TID 0000.0001) //     24 ooo.ooooooooooooooooooooooooooooooooooooooooooooooooooooooo.oo
(PID.TID 0000.0001) //     23 ooo.ooooooooooooooooooooooooooooooooooooooooooooooooooooooo.oo
(PID.TID 0000.0001) //     22 nnn.nnnnnnnnnnnnnnnnnnnnnnnnnnnnnnnnnnnnnnnnnnnnnnnnnnnnnnn.nn
(PID.TID 0000.0001) //     21 mmm.mmmmmmmmmmmmmmmmmmmmmmmmmmmmmmmmmmmmmmmmmmmmmmmmmmmmmmm.mm
(PID.TID 0000.0001) //     20 mmm.mmmmmmmmmmmmmmmmmmmmmmmmmmmmmmmmmmmmmmmmmmmmmmmmmmmmmmm.mm
(PID.TID 0000.0001) //     19 lll.lllllllllllllllllllllllllllllllllllllllllllllllllllllll.ll
(PID.TID 0000.0001) //     18 kkk.kkkkkkkkkkkkkkkkkkkkkkkkkkkkkkkkkkkkkkkkkkkkkkkkkkkkkkk.kk
(PID.TID 0000.0001) //     17 kkk.kkkkkkkkkkkkkkkkkkkkkkkkkkkkkkkkkkkkkkkkkkkkkkkkkkkkkkk.kk
(PID.TID 0000.0001) //     16 jjj.jjjjjjjjjjjjjjjjjjjjjjjjjjjjjjjjjjjjjjjjjjjjjjjjjjjjjjj.jj
(PID.TID 0000.0001) //     15 iii.iiiiiiiiiiiiiiiiiiiiiiiiiiiiiiiiiiiiiiiiiiiiiiiiiiiiiii.ii
(PID.TID 0000.0001) //     14 hhh.hhhhhhhhhhhhhhhhhhhhhhhhhhhhhhhhhhhhhhhhhhhhhhhhhhhhhhh.hh
(PID.TID 0000.0001) //     13 hhh.hhhhhhhhhhhhhhhhhhhhhhhhhhhhhhhhhhhhhhhhhhhhhhhhhhhhhhh.hh
(PID.TID 0000.0001) //     12 ggg.ggggggggggggggggggggggggggggggggggggggggggggggggggggggg.gg
(PID.TID 0000.0001) //     11 fff.fffffffffffffffffffffffffffffffffffffffffffffffffffffff.ff
(PID.TID 0000.0001) //     10 fff.fffffffffffffffffffffffffffffffffffffffffffffffffffffff.ff
(PID.TID 0000.0001) //      9 eee.eeeeeeeeeeeeeeeeeeeeeeeeeeeeeeeeeeeeeeeeeeeeeeeeeeeeeee.ee
(PID.TID 0000.0001) //      8 ddd.ddddddddddddddddddddddddddddddddddddddddddddddddddddddd.dd
(PID.TID 0000.0001) //      7 ddd.ddddddddddddddddddddddddddddddddddddddddddddddddddddddd.dd
(PID.TID 0000.0001) //      6 ccc.ccccccccccccccccccccccccccccccccccccccccccccccccccccccc.cc
(PID.TID 0000.0001) //      5 bbb.bbbbbbbbbbbbbbbbbbbbbbbbbbbbbbbbbbbbbbbbbbbbbbbbbbbbbbb.bb
(PID.TID 0000.0001) //      4 aaa.aaaaaaaaaaaaaaaaaaaaaaaaaaaaaaaaaaaaaaaaaaaaaaaaaaaaaaa.aa
(PID.TID 0000.0001) //      3 aaa.aaaaaaaaaaaaaaaaaaaaaaaaaaaaaaaaaaaaaaaaaaaaaaaaaaaaaaa.aa
(PID.TID 0000.0001) //      2 ---.-------------------------------------------------------.--
(PID.TID 0000.0001) //      1 ..............................................................
(PID.TID 0000.0001) //      0 ..............................................................
(PID.TID 0000.0001) //     -1 ..............................................................
(PID.TID 0000.0001) //     -2 ..............................................................
(PID.TID 0000.0001) // =======================================================
(PID.TID 0000.0001) // END OF FIELD                                          =
(PID.TID 0000.0001) // =======================================================
(PID.TID 0000.0001) 
(PID.TID 0000.0001) // =======================================================
(PID.TID 0000.0001) // Field hFacC at iteration          0
(PID.TID 0000.0001) // CMIN =          1.000000000000000E+00
(PID.TID 0000.0001) // CMAX =          1.000000000000000E+00
(PID.TID 0000.0001) // CINT =          0.000000000000000E+00
(PID.TID 0000.0001) // SYMBOLS (CMIN->CMAX): -abcdefghijklmnopqrstuvwxyz+
(PID.TID 0000.0001) //                  0.0: .
(PID.TID 0000.0001) // RANGE I (Lo:Hi:Step):(    -2:    53:     1)
(PID.TID 0000.0001) // RANGE J (Lo:Hi:Step):(   103:    -2:    -1)
(PID.TID 0000.0001) // RANGE K (Lo:Hi:Step):(   1:   1:   1)
(PID.TID 0000.0001) // =======================================================
(PID.TID 0000.0001) // =======================================================
(PID.TID 0000.0001) // END OF FIELD                                          =
(PID.TID 0000.0001) // =======================================================
(PID.TID 0000.0001) 
(PID.TID 0000.0001) // =======================================================
(PID.TID 0000.0001) // Field hFacW at iteration          0
(PID.TID 0000.0001) // CMIN =          1.000000000000000E+00
(PID.TID 0000.0001) // CMAX =          1.000000000000000E+00
(PID.TID 0000.0001) // CINT =          0.000000000000000E+00
(PID.TID 0000.0001) // SYMBOLS (CMIN->CMAX): -abcdefghijklmnopqrstuvwxyz+
(PID.TID 0000.0001) //                  0.0: .
(PID.TID 0000.0001) // RANGE I (Lo:Hi:Step):(    -2:    53:     1)
(PID.TID 0000.0001) // RANGE J (Lo:Hi:Step):(   103:    -2:    -1)
(PID.TID 0000.0001) // RANGE K (Lo:Hi:Step):(   1:   1:   1)
(PID.TID 0000.0001) // =======================================================
(PID.TID 0000.0001) // =======================================================
(PID.TID 0000.0001) // END OF FIELD                                          =
(PID.TID 0000.0001) // =======================================================
(PID.TID 0000.0001) 
(PID.TID 0000.0001) // =======================================================
(PID.TID 0000.0001) // Field hFacS at iteration          0
(PID.TID 0000.0001) // CMIN =          1.000000000000000E+00
(PID.TID 0000.0001) // CMAX =          1.000000000000000E+00
(PID.TID 0000.0001) // CINT =          0.000000000000000E+00
(PID.TID 0000.0001) // SYMBOLS (CMIN->CMAX): -abcdefghijklmnopqrstuvwxyz+
(PID.TID 0000.0001) //                  0.0: .
(PID.TID 0000.0001) // RANGE I (Lo:Hi:Step):(    -2:    53:     1)
(PID.TID 0000.0001) // RANGE J (Lo:Hi:Step):(   103:    -2:    -1)
(PID.TID 0000.0001) // RANGE K (Lo:Hi:Step):(   1:   1:   1)
(PID.TID 0000.0001) // =======================================================
(PID.TID 0000.0001) // =======================================================
(PID.TID 0000.0001) // END OF FIELD                                          =
(PID.TID 0000.0001) // =======================================================
(PID.TID 0000.0001) 
(PID.TID 0000.0001) GAD_INIT_FIXED: GAD_OlMinSize=  1  0  1
(PID.TID 0000.0001) 
(PID.TID 0000.0001) // ===================================
(PID.TID 0000.0001) // GAD parameters :
(PID.TID 0000.0001) // ===================================
(PID.TID 0000.0001) tempAdvScheme =   /* Temp. Horiz.Advection scheme selector */
(PID.TID 0000.0001)                       2
(PID.TID 0000.0001)     ;
(PID.TID 0000.0001) tempVertAdvScheme =   /* Temp. Vert. Advection scheme selector */
(PID.TID 0000.0001)                       2
(PID.TID 0000.0001)     ;
(PID.TID 0000.0001) tempMultiDimAdvec =   /* use Muti-Dim Advec method for Temp */
(PID.TID 0000.0001)                   F
(PID.TID 0000.0001)     ;
(PID.TID 0000.0001) tempSOM_Advection = /* use 2nd Order Moment Advection for Temp */
(PID.TID 0000.0001)                   F
(PID.TID 0000.0001)     ;
(PID.TID 0000.0001) AdamsBashforthGt = /* apply Adams-Bashforth extrapolation on Gt */
(PID.TID 0000.0001)                   T
(PID.TID 0000.0001)     ;
(PID.TID 0000.0001) AdamsBashforth_T = /* apply Adams-Bashforth extrapolation on Temp */
(PID.TID 0000.0001)                   F
(PID.TID 0000.0001)     ;
(PID.TID 0000.0001) saltAdvScheme =   /* Salt. Horiz.advection scheme selector */
(PID.TID 0000.0001)                       2
(PID.TID 0000.0001)     ;
(PID.TID 0000.0001) saltVertAdvScheme =   /* Salt. Vert. Advection scheme selector */
(PID.TID 0000.0001)                       2
(PID.TID 0000.0001)     ;
(PID.TID 0000.0001) saltMultiDimAdvec =   /* use Muti-Dim Advec method for Salt */
(PID.TID 0000.0001)                   F
(PID.TID 0000.0001)     ;
(PID.TID 0000.0001) saltSOM_Advection = /* use 2nd Order Moment Advection for Salt */
(PID.TID 0000.0001)                   F
(PID.TID 0000.0001)     ;
(PID.TID 0000.0001) AdamsBashforthGs = /* apply Adams-Bashforth extrapolation on Gs */
(PID.TID 0000.0001)                   T
(PID.TID 0000.0001)     ;
(PID.TID 0000.0001) AdamsBashforth_S = /* apply Adams-Bashforth extrapolation on Salt */
(PID.TID 0000.0001)                   F
(PID.TID 0000.0001)     ;
(PID.TID 0000.0001) // ===================================
(PID.TID 0000.0001)  MDS_READ_FIELD: opening global file: iceShelf_Mass.obcs
(PID.TID 0000.0001)  MDS_WRITE_FIELD: it,rec,kS,kL,kH=       0     1   1   1   1 file=shelficemassinit
(PID.TID 0000.0001)  MDS_WRITE_FIELD: it,rec,kS,kL,kH=      -1     1   1   1   1 file=SHICE_pLoadAnom
(PID.TID 0000.0001)  MDS_READ_FIELD: opening global file: iceShelf_MassTend.obcs
(PID.TID 0000.0001) ------------------------------------------------------------
(PID.TID 0000.0001) DIAGNOSTICS_SET_LEVELS: done
(PID.TID 0000.0001)  Total Nb of available Diagnostics: ndiagt=   217
(PID.TID 0000.0001)  write list of available Diagnostics to file: available_diagnostics.log
(PID.TID 0000.0001) SETDIAG: Allocate 30 x  1 Levels for Diagnostic #    30 UVEL
(PID.TID 0000.0001) SETDIAG: Allocate 30 x  1 Levels for Diagnostic #    31 VVEL
(PID.TID 0000.0001) SETDIAG: Allocate 30 x  1 Levels for Diagnostic #    32 WVEL
(PID.TID 0000.0001) SETDIAG: Allocate 30 x  1 Levels for Diagnostic #    71 PHIHYD
(PID.TID 0000.0001) SETDIAG: Allocate 30 x  1 Levels for Diagnostic #    46 VVELMASS
(PID.TID 0000.0001) SETDIAG: Allocate 30 x  1 Levels for Diagnostic #    45 UVELMASS
(PID.TID 0000.0001) SETDIAG: Allocate 30 x  1 Levels for Diagnostic #    38 WVELSQ
(PID.TID 0000.0001) SETDIAG: Allocate 30 x  1 Levels for Diagnostic #    26 THETA
(PID.TID 0000.0001) SETDIAG: Allocate 30 x  1 Levels for Diagnostic #    27 SALT
(PID.TID 0000.0001)   space allocated for all diagnostics:     270 levels
(PID.TID 0000.0001)   set mate pointer for diag #    30  UVEL     , Parms: UUR     MR , mate:    31
(PID.TID 0000.0001)   set mate pointer for diag #    31  VVEL     , Parms: VVR     MR , mate:    30
(PID.TID 0000.0001)   set mate pointer for diag #    46  VVELMASS , Parms: VVr     MR , mate:    45
(PID.TID 0000.0001)   set mate pointer for diag #    45  UVELMASS , Parms: UUr     MR , mate:    46
(PID.TID 0000.0001) DIAGNOSTICS_SET_POINTERS: Set levels for Outp.Stream: dynDiag
(PID.TID 0000.0001)  Levels:       1.   2.   3.   4.   5.   6.   7.   8.   9.  10.  11.  12.  13.  14.  15.  16.  17.  18.  19.  20.
(PID.TID 0000.0001)  Levels:      21.  22.  23.  24.  25.  26.  27.  28.  29.  30.
(PID.TID 0000.0001) DIAGNOSTICS_SET_POINTERS: done
(PID.TID 0000.0001) ------------------------------------------------------------
 DIAGSTATS_SET_REGIONS: start reading region-mask file: iceMask.obcs
 DIAGSTATS_SET_REGIONS:  reading set k=  1
(PID.TID 0000.0001)  MDS_READ_FIELD: opening global file: iceMask.obcs
 DIAGSTATS_SET_REGIONS:          set k=  1 <= done
(PID.TID 0000.0001) DIAGSTATS_SET_REGIONS: define   2 regions:  1  2
(PID.TID 0000.0001) ------------------------------------------------------------
(PID.TID 0000.0001) SETDIAG: Allocate  1 Levels for Stats-Diag #    23 ETAN
(PID.TID 0000.0001) SETDIAG: Allocate 30 Levels for Stats-Diag #    30 UVEL
(PID.TID 0000.0001) SETDIAG: Allocate 30 Levels for Stats-Diag #    31 VVEL
(PID.TID 0000.0001) SETDIAG: Allocate 30 Levels for Stats-Diag #    32 WVEL
(PID.TID 0000.0001) SETDIAG: Allocate 30 Levels for Stats-Diag #    26 THETA
(PID.TID 0000.0001) SETDIAG: Allocate 30 Levels for Stats-Diag #    27 SALT
(PID.TID 0000.0001)   space allocated for all stats-diags:     151 levels
(PID.TID 0000.0001) DIAGSTATS_SET_POINTERS: done
(PID.TID 0000.0001) ------------------------------------------------------------
(PID.TID 0000.0001) DIAGSTATS_INI_IO: open file: dynStDiag.0000000000.txt , unit=     9
(PID.TID 0000.0001) %MON fCori_max                    =  -1.3709057042516E-04
(PID.TID 0000.0001) %MON fCori_min                    =  -1.4360464034757E-04
(PID.TID 0000.0001) %MON fCori_mean                   =  -1.4069429304698E-04
(PID.TID 0000.0001) %MON fCori_sd                     =   1.9069739624987E-06
(PID.TID 0000.0001) %MON fCoriG_max                   =  -1.3713394327439E-04
(PID.TID 0000.0001) %MON fCoriG_min                   =  -1.4362679550910E-04
(PID.TID 0000.0001) %MON fCoriG_mean                  =  -1.4072713798624E-04
(PID.TID 0000.0001) %MON fCoriG_sd                    =   1.9008093726821E-06
(PID.TID 0000.0001) %MON fCoriCos_max                 =   4.9761447480159E-05
(PID.TID 0000.0001) %MON fCoriCos_min                 =   2.5450607565678E-05
(PID.TID 0000.0001) %MON fCoriCos_mean                =   3.7698922201606E-05
(PID.TID 0000.0001) %MON fCoriCos_sd                  =   7.0920218535055E-06
(PID.TID 0000.0001) INI_CG2D: CG2D normalisation factor =  8.6553958581495505E-04
(PID.TID 0000.0001) 
(PID.TID 0000.0001) // =======================================================
(PID.TID 0000.0001) // Model configuration
(PID.TID 0000.0001) // =======================================================
(PID.TID 0000.0001) //
(PID.TID 0000.0001) // "Physical" paramters ( PARM01 in namelist )
(PID.TID 0000.0001) //
(PID.TID 0000.0001) buoyancyRelation = /* Type of relation to get Buoyancy */
(PID.TID 0000.0001)               'OCEANIC'
(PID.TID 0000.0001)     ;
(PID.TID 0000.0001) fluidIsAir   =  /* fluid major constituent is Air */
(PID.TID 0000.0001)                   F
(PID.TID 0000.0001)     ;
(PID.TID 0000.0001) fluidIsWater =  /* fluid major constituent is Water */
(PID.TID 0000.0001)                   T
(PID.TID 0000.0001)     ;
(PID.TID 0000.0001) usingPCoords =  /* use p (or p*) vertical coordinate */
(PID.TID 0000.0001)                   F
(PID.TID 0000.0001)     ;
(PID.TID 0000.0001) usingZCoords =  /* use z (or z*) vertical coordinate */
(PID.TID 0000.0001)                   T
(PID.TID 0000.0001)     ;
(PID.TID 0000.0001) tRef =   /* Reference temperature profile ( oC or K ) */
(PID.TID 0000.0001)    30 @ -1.900000000000000E+00              /* K =  1: 30 */
(PID.TID 0000.0001)     ;
(PID.TID 0000.0001) sRef =   /* Reference salinity profile ( g/kg ) */
(PID.TID 0000.0001)    10 @  3.440000000000000E+01,             /* K =  1: 10 */
(PID.TID 0000.0001)                 3.444368720000000E+01,      /* K = 11 */
(PID.TID 0000.0001)                 3.448737440000000E+01,      /* K = 12 */
(PID.TID 0000.0001)                 3.453106160000000E+01,      /* K = 13 */
(PID.TID 0000.0001)                 3.457474880000000E+01,      /* K = 14 */
(PID.TID 0000.0001)                 3.461843600000000E+01,      /* K = 15 */
(PID.TID 0000.0001)                 3.466212320000000E+01,      /* K = 16 */
(PID.TID 0000.0001)                 3.470581040000000E+01,      /* K = 17 */
(PID.TID 0000.0001)                 3.474949760000000E+01,      /* K = 18 */
(PID.TID 0000.0001)                 3.479318480000000E+01,      /* K = 19 */
(PID.TID 0000.0001)                 3.483687200000000E+01,      /* K = 20 */
(PID.TID 0000.0001)                 3.488055920000000E+01,      /* K = 21 */
(PID.TID 0000.0001)                 3.492424640000000E+01,      /* K = 22 */
(PID.TID 0000.0001)                 3.496793360000000E+01,      /* K = 23 */
(PID.TID 0000.0001)                 3.501162080000000E+01,      /* K = 24 */
(PID.TID 0000.0001)                 3.505530799000000E+01,      /* K = 25 */
(PID.TID 0000.0001)                 3.509899519000000E+01,      /* K = 26 */
(PID.TID 0000.0001)                 3.514268239000000E+01,      /* K = 27 */
(PID.TID 0000.0001)                 3.518636959000000E+01,      /* K = 28 */
(PID.TID 0000.0001)                 3.523005679000000E+01,      /* K = 29 */
(PID.TID 0000.0001)                 3.527374399000000E+01       /* K = 30 */
(PID.TID 0000.0001)     ;
(PID.TID 0000.0001) useStrainTensionVisc= /* Use StrainTension Form of Viscous Operator */
(PID.TID 0000.0001)                   F
(PID.TID 0000.0001)     ;
(PID.TID 0000.0001) useVariableVisc = /* Use variable horizontal viscosity */
(PID.TID 0000.0001)                   F
(PID.TID 0000.0001)     ;
(PID.TID 0000.0001) useHarmonicVisc = /* Use harmonic horizontal viscosity */
(PID.TID 0000.0001)                   T
(PID.TID 0000.0001)     ;
(PID.TID 0000.0001) useBiharmonicVisc= /* Use biharmonic horiz.  viscosity */
(PID.TID 0000.0001)                   F
(PID.TID 0000.0001)     ;
(PID.TID 0000.0001) useSmag3D = /* Use isotropic 3-D Smagorinsky viscosity */
(PID.TID 0000.0001)                   F
(PID.TID 0000.0001)     ;
(PID.TID 0000.0001) viscAh  =   /* Lateral harmonic viscosity ( m^2/s ) */
(PID.TID 0000.0001)                 6.000000000000000E+02
(PID.TID 0000.0001)     ;
(PID.TID 0000.0001) viscA4  =   /* Lateral biharmonic viscosity ( m^4/s ) */
(PID.TID 0000.0001)                 0.000000000000000E+00
(PID.TID 0000.0001)     ;
(PID.TID 0000.0001) no_slip_sides =  /* Viscous BCs: No-slip sides */
(PID.TID 0000.0001)                   F
(PID.TID 0000.0001)     ;
(PID.TID 0000.0001) sideDragFactor = /* side-drag scaling factor (non-dim) */
(PID.TID 0000.0001)                 2.000000000000000E+00
(PID.TID 0000.0001)     ;
(PID.TID 0000.0001) viscArNr = /* vertical profile of vertical viscosity ( m^2/s )*/
(PID.TID 0000.0001)    30 @  1.000000000000000E-03              /* K =  1: 30 */
(PID.TID 0000.0001)     ;
(PID.TID 0000.0001) no_slip_bottom =  /* Viscous BCs: No-slip bottom */
(PID.TID 0000.0001)                   F
(PID.TID 0000.0001)     ;
(PID.TID 0000.0001) bottomVisc_pCell = /* Partial-cell in bottom Visc. BC */
(PID.TID 0000.0001)                   F
(PID.TID 0000.0001)     ;
(PID.TID 0000.0001) bottomDragLinear = /* linear bottom-drag coefficient ( m/s ) */
(PID.TID 0000.0001)                 0.000000000000000E+00
(PID.TID 0000.0001)     ;
(PID.TID 0000.0001) bottomDragQuadratic = /* quadratic bottom-drag coefficient (-) */
(PID.TID 0000.0001)                 2.500000000000000E-03
(PID.TID 0000.0001)     ;
(PID.TID 0000.0001) selectBotDragQuadr = /* select quadratic bottom drag options */
(PID.TID 0000.0001)                       0
(PID.TID 0000.0001)     ;
(PID.TID 0000.0001) diffKhT =   /* Laplacian diffusion of heat laterally ( m^2/s ) */
(PID.TID 0000.0001)                 1.000000000000000E+02
(PID.TID 0000.0001)     ;
(PID.TID 0000.0001) diffK4T =   /* Biharmonic diffusion of heat laterally ( m^4/s ) */
(PID.TID 0000.0001)                 0.000000000000000E+00
(PID.TID 0000.0001)     ;
(PID.TID 0000.0001) diffKhS =   /* Laplacian diffusion of salt laterally ( m^2/s ) */
(PID.TID 0000.0001)                 1.000000000000000E+02
(PID.TID 0000.0001)     ;
(PID.TID 0000.0001) diffK4S =   /* Biharmonic diffusion of salt laterally ( m^4/s ) */
(PID.TID 0000.0001)                 0.000000000000000E+00
(PID.TID 0000.0001)     ;
(PID.TID 0000.0001) diffKrNrT = /* vertical profile of vertical diffusion of Temp ( m^2/s )*/
(PID.TID 0000.0001)    30 @  5.000000000000000E-05              /* K =  1: 30 */
(PID.TID 0000.0001)     ;
(PID.TID 0000.0001) diffKrNrS = /* vertical profile of vertical diffusion of Salt ( m^2/s )*/
(PID.TID 0000.0001)    30 @  5.000000000000000E-05              /* K =  1: 30 */
(PID.TID 0000.0001)     ;
(PID.TID 0000.0001) diffKrBL79surf = /* Surface diffusion for Bryan and Lewis 79 ( m^2/s ) */
(PID.TID 0000.0001)                 0.000000000000000E+00
(PID.TID 0000.0001)     ;
(PID.TID 0000.0001) diffKrBL79deep = /* Deep diffusion for Bryan and Lewis 1979 ( m^2/s ) */
(PID.TID 0000.0001)                 0.000000000000000E+00
(PID.TID 0000.0001)     ;
(PID.TID 0000.0001) diffKrBL79scl = /* Depth scale for Bryan and Lewis 1979 ( m ) */
(PID.TID 0000.0001)                 2.000000000000000E+02
(PID.TID 0000.0001)     ;
(PID.TID 0000.0001) diffKrBL79Ho = /* Turning depth for Bryan and Lewis 1979 ( m ) */
(PID.TID 0000.0001)                -2.000000000000000E+03
(PID.TID 0000.0001)     ;
(PID.TID 0000.0001) ivdc_kappa = /* Implicit Vertical Diffusivity for Convection ( m^2/s) */
(PID.TID 0000.0001)                 0.000000000000000E+00
(PID.TID 0000.0001)     ;
(PID.TID 0000.0001) hMixCriteria=  /* Criteria for mixed-layer diagnostic */
(PID.TID 0000.0001)                -8.000000000000000E-01
(PID.TID 0000.0001)     ;
(PID.TID 0000.0001) dRhoSmall =  /* Parameter for mixed-layer diagnostic */
(PID.TID 0000.0001)                 1.000000000000000E-06
(PID.TID 0000.0001)     ;
(PID.TID 0000.0001) hMixSmooth=  /* Smoothing parameter for mixed-layer diagnostic */
(PID.TID 0000.0001)                 0.000000000000000E+00
(PID.TID 0000.0001)     ;
(PID.TID 0000.0001) eosType =  /* Type of Equation of State */
(PID.TID 0000.0001)               'JMD95Z'
(PID.TID 0000.0001)     ;
(PID.TID 0000.0001) eosRefP0 = /* Reference atmospheric pressure for EOS ( Pa ) */
(PID.TID 0000.0001)                 1.013250000000000E+05
(PID.TID 0000.0001)     ;
(PID.TID 0000.0001) selectP_inEOS_Zc = /* select pressure to use in EOS (0,1,2,3) */
(PID.TID 0000.0001)                       0
(PID.TID 0000.0001)     0= -g*rhoConst*z ; 1= pRef (from tRef,sRef); 2= Hyd P ; 3= Hyd+NH P
(PID.TID 0000.0001)     ;
(PID.TID 0000.0001) surf_pRef = /* Surface reference pressure ( Pa ) */
(PID.TID 0000.0001)                 1.013250000000000E+05
(PID.TID 0000.0001)     ;
(PID.TID 0000.0001) HeatCapacity_Cp =  /* Specific heat capacity ( J/kg/K ) */
(PID.TID 0000.0001)                 3.974000000000000E+03
(PID.TID 0000.0001)     ;
(PID.TID 0000.0001) celsius2K = /* 0 degree Celsius converted to Kelvin ( K ) */
(PID.TID 0000.0001)                 2.731500000000000E+02
(PID.TID 0000.0001)     ;
(PID.TID 0000.0001) rhoConst  = /* Reference density (Boussinesq)  ( kg/m^3 ) */
(PID.TID 0000.0001)                 1.030000000000000E+03
(PID.TID 0000.0001)     ;
(PID.TID 0000.0001) rhoFacC = /* normalized Reference density @ cell-Center (-) */
(PID.TID 0000.0001)    30 @  1.000000000000000E+00              /* K =  1: 30 */
(PID.TID 0000.0001)     ;
(PID.TID 0000.0001) rhoFacF = /* normalized Reference density @ W-Interface (-) */
(PID.TID 0000.0001)    31 @  1.000000000000000E+00              /* K =  1: 31 */
(PID.TID 0000.0001)     ;
(PID.TID 0000.0001) rhoConstFresh = /* Fresh-water reference density ( kg/m^3 ) */
(PID.TID 0000.0001)                 1.030000000000000E+03
(PID.TID 0000.0001)     ;
(PID.TID 0000.0001) gravity =   /* Gravitational acceleration ( m/s^2 ) */
(PID.TID 0000.0001)                 9.810000000000000E+00
(PID.TID 0000.0001)     ;
(PID.TID 0000.0001) gBaro =   /* Barotropic gravity ( m/s^2 ) */
(PID.TID 0000.0001)                 9.810000000000000E+00
(PID.TID 0000.0001)     ;
(PID.TID 0000.0001) gravFacC = /* gravity factor (vs surf.) @ cell-Center (-) */
(PID.TID 0000.0001)    30 @  1.000000000000000E+00              /* K =  1: 30 */
(PID.TID 0000.0001)     ;
(PID.TID 0000.0001) gravFacF = /* gravity factor (vs surf.) @ W-Interface (-) */
(PID.TID 0000.0001)    31 @  1.000000000000000E+00              /* K =  1: 31 */
(PID.TID 0000.0001)     ;
(PID.TID 0000.0001) rotationPeriod =   /* Rotation Period ( s ) */
(PID.TID 0000.0001)                 8.616400000000000E+04
(PID.TID 0000.0001)     ;
(PID.TID 0000.0001) omega =   /* Angular velocity ( rad/s ) */
(PID.TID 0000.0001)                 7.292123516990375E-05
(PID.TID 0000.0001)     ;
(PID.TID 0000.0001) f0 =   /* Reference coriolis parameter ( 1/s ) */
(PID.TID 0000.0001)                 1.000000000000000E-04
(PID.TID 0000.0001)     ;
(PID.TID 0000.0001) beta =   /* Beta ( 1/(m.s) ) */
(PID.TID 0000.0001)                 9.999999999999999E-12
(PID.TID 0000.0001)     ;
(PID.TID 0000.0001) fPrime =   /* Second coriolis parameter ( 1/s ) */
(PID.TID 0000.0001)                 0.000000000000000E+00
(PID.TID 0000.0001)     ;
(PID.TID 0000.0001) rigidLid =   /* Rigid lid on/off flag */
(PID.TID 0000.0001)                   F
(PID.TID 0000.0001)     ;
(PID.TID 0000.0001) implicitFreeSurface =   /* Implicit free surface on/off flag */
(PID.TID 0000.0001)                   T
(PID.TID 0000.0001)     ;
(PID.TID 0000.0001) freeSurfFac =   /* Implicit free surface factor */
(PID.TID 0000.0001)                 1.000000000000000E+00
(PID.TID 0000.0001)     ;
(PID.TID 0000.0001) implicSurfPress =  /* Surface Pressure implicit factor (0-1) */
(PID.TID 0000.0001)                 1.000000000000000E+00
(PID.TID 0000.0001)     ;
(PID.TID 0000.0001) implicDiv2DFlow =  /* Barot. Flow Div. implicit factor (0-1) */
(PID.TID 0000.0001)                 1.000000000000000E+00
(PID.TID 0000.0001)     ;
(PID.TID 0000.0001) uniformLin_PhiSurf = /* use uniform Bo_surf on/off flag */
(PID.TID 0000.0001)                   T
(PID.TID 0000.0001)     ;
(PID.TID 0000.0001) uniformFreeSurfLev = /* free-surface level-index is uniform */
(PID.TID 0000.0001)                   F
(PID.TID 0000.0001)     ;
(PID.TID 0000.0001) sIceLoadFac =  /* scale factor for sIceLoad (0-1) */
(PID.TID 0000.0001)                 1.000000000000000E+00
(PID.TID 0000.0001)     ;
(PID.TID 0000.0001) hFacMin =   /* minimum partial cell factor (hFac) */
(PID.TID 0000.0001)                 5.000000000000000E-02
(PID.TID 0000.0001)     ;
(PID.TID 0000.0001) hFacMinDr = /* minimum partial cell thickness ( m) */
(PID.TID 0000.0001)                 0.000000000000000E+00
(PID.TID 0000.0001)     ;
(PID.TID 0000.0001) exactConserv =  /* Exact Volume Conservation on/off flag */
(PID.TID 0000.0001)                   T
(PID.TID 0000.0001)     ;
(PID.TID 0000.0001) linFSConserveTr = /* Tracer correction for Lin Free Surface on/off flag */
(PID.TID 0000.0001)                   F
(PID.TID 0000.0001)     ;
(PID.TID 0000.0001) nonlinFreeSurf = /* Non-linear Free Surf. options (-1,0,1,2,3)*/
(PID.TID 0000.0001)                       4
(PID.TID 0000.0001)      -1,0= Off ; 1,2,3= On, 2=+rescale gU,gV, 3=+update cg2d solv.
(PID.TID 0000.0001)     ;
(PID.TID 0000.0001) hFacInf =   /* lower threshold for hFac (nonlinFreeSurf only)*/
(PID.TID 0000.0001)                 2.000000000000000E-02
(PID.TID 0000.0001)     ;
(PID.TID 0000.0001) hFacSup =   /* upper threshold for hFac (nonlinFreeSurf only)*/
(PID.TID 0000.0001)                 2.000000000000000E+00
(PID.TID 0000.0001)     ;
(PID.TID 0000.0001) select_rStar = /* r* Vertical coord. options (=0 r coord.; >0 uses r*)*/
(PID.TID 0000.0001)                       2
(PID.TID 0000.0001)     ;
(PID.TID 0000.0001) useRealFreshWaterFlux = /* Real Fresh Water Flux on/off flag*/
(PID.TID 0000.0001)                   T
(PID.TID 0000.0001)     ;
(PID.TID 0000.0001) temp_EvPrRn = /* Temp. of Evap/Prec/R (UNSET=use local T)(oC)*/
(PID.TID 0000.0001)                 1.234567000000000E+05
(PID.TID 0000.0001)     ;
(PID.TID 0000.0001) salt_EvPrRn = /* Salin. of Evap/Prec/R (UNSET=use local S)(g/kg)*/
(PID.TID 0000.0001)                 0.000000000000000E+00
(PID.TID 0000.0001)     ;
(PID.TID 0000.0001) selectAddFluid = /* option for mass source/sink of fluid (=0: off) */
(PID.TID 0000.0001)                       0
(PID.TID 0000.0001)     ;
(PID.TID 0000.0001) temp_addMass = /* Temp. of addMass array (UNSET=use local T)(oC)*/
(PID.TID 0000.0001)                 1.234567000000000E+05
(PID.TID 0000.0001)     ;
(PID.TID 0000.0001) salt_addMass = /* Salin. of addMass array (UNSET=use local S)(g/kg)*/
(PID.TID 0000.0001)                 0.000000000000000E+00
(PID.TID 0000.0001)     ;
(PID.TID 0000.0001) use3Dsolver = /* use 3-D pressure solver on/off flag */
(PID.TID 0000.0001)                   F
(PID.TID 0000.0001)     ;
(PID.TID 0000.0001) nonHydrostatic =  /* Non-Hydrostatic on/off flag */
(PID.TID 0000.0001)                   F
(PID.TID 0000.0001)     ;
(PID.TID 0000.0001) nh_Am2 = /* Non-Hydrostatic terms scaling factor */
(PID.TID 0000.0001)                 1.000000000000000E+00
(PID.TID 0000.0001)     ;
(PID.TID 0000.0001) implicitNHPress = /* Non-Hyd Pressure implicit factor (0-1)*/
(PID.TID 0000.0001)                 1.000000000000000E+00
(PID.TID 0000.0001)     ;
(PID.TID 0000.0001) selectNHfreeSurf = /* Non-Hyd (free-)Surface option */
(PID.TID 0000.0001)                       0
(PID.TID 0000.0001)     ;
(PID.TID 0000.0001) quasiHydrostatic = /* Quasi-Hydrostatic on/off flag */
(PID.TID 0000.0001)                   F
(PID.TID 0000.0001)     ;
(PID.TID 0000.0001) calc_wVelocity = /* vertical velocity calculation on/off flag */
(PID.TID 0000.0001)                   T
(PID.TID 0000.0001)     ;
(PID.TID 0000.0001) momStepping =  /* Momentum equation on/off flag */
(PID.TID 0000.0001)                   T
(PID.TID 0000.0001)     ;
(PID.TID 0000.0001) vectorInvariantMomentum= /* Vector-Invariant Momentum on/off */
(PID.TID 0000.0001)                   F
(PID.TID 0000.0001)     ;
(PID.TID 0000.0001) momAdvection =  /* Momentum advection on/off flag */
(PID.TID 0000.0001)                   T
(PID.TID 0000.0001)     ;
(PID.TID 0000.0001) momViscosity =  /* Momentum viscosity on/off flag */
(PID.TID 0000.0001)                   T
(PID.TID 0000.0001)     ;
(PID.TID 0000.0001) momImplVertAdv= /* Momentum implicit vert. advection on/off*/
(PID.TID 0000.0001)                   F
(PID.TID 0000.0001)     ;
(PID.TID 0000.0001) implicitViscosity = /* Implicit viscosity on/off flag */
(PID.TID 0000.0001)                   T
(PID.TID 0000.0001)     ;
(PID.TID 0000.0001) selectImplicitDrag= /* Implicit bot Drag options (0,1,2)*/
(PID.TID 0000.0001)                       0
(PID.TID 0000.0001)     0= Expl. ; 1= Impl. on provis. Vel ; 2= Fully Impl (with surf.P)
(PID.TID 0000.0001)     ;
(PID.TID 0000.0001) metricTerms =  /* metric-Terms on/off flag */
(PID.TID 0000.0001)                   T
(PID.TID 0000.0001)     ;
(PID.TID 0000.0001) useNHMTerms = /* Non-Hydrostatic Metric-Terms on/off */
(PID.TID 0000.0001)                   F
(PID.TID 0000.0001)     ;
(PID.TID 0000.0001) selectCoriMap = /* Coriolis Map options (0,1,2,3)*/
(PID.TID 0000.0001)                       2
(PID.TID 0000.0001)     0= f-Plane ; 1= Beta-Plane ; 2= Spherical ; 3= read from file
(PID.TID 0000.0001)     ;
(PID.TID 0000.0001) use3dCoriolis = /* 3-D Coriolis on/off flag */
(PID.TID 0000.0001)                   F
(PID.TID 0000.0001)     ;
(PID.TID 0000.0001) useCoriolis =  /* Coriolis on/off flag */
(PID.TID 0000.0001)                   T
(PID.TID 0000.0001)     ;
(PID.TID 0000.0001) useCDscheme =  /* CD scheme on/off flag */
(PID.TID 0000.0001)                   F
(PID.TID 0000.0001)     ;
(PID.TID 0000.0001) selectCoriScheme= /* Scheme selector for Coriolis-Term */
(PID.TID 0000.0001)                       0
(PID.TID 0000.0001)    = 0 : original discretization (simple averaging, no hFac)
(PID.TID 0000.0001)    = 1 : Wet-point averaging (Jamar & Ozer 1986)
(PID.TID 0000.0001)    = 2 : energy conserving scheme (no hFac weight)
(PID.TID 0000.0001)    = 3 : energy conserving scheme using Wet-point averaging
(PID.TID 0000.0001)     ;
(PID.TID 0000.0001) momForcing =  /* Momentum forcing on/off flag */
(PID.TID 0000.0001)                   T
(PID.TID 0000.0001)     ;
(PID.TID 0000.0001) momTidalForcing = /* Momentum Tidal forcing on/off flag */
(PID.TID 0000.0001)                   T
(PID.TID 0000.0001)     ;
(PID.TID 0000.0001) momPressureForcing =  /* Momentum pressure term on/off flag */
(PID.TID 0000.0001)                   T
(PID.TID 0000.0001)     ;
(PID.TID 0000.0001) implicitIntGravWave= /* Implicit Internal Gravity Wave flag */
(PID.TID 0000.0001)                   F
(PID.TID 0000.0001)     ;
(PID.TID 0000.0001) staggerTimeStep =    /* Stagger time stepping on/off flag */
(PID.TID 0000.0001)                   F
(PID.TID 0000.0001)     ;
(PID.TID 0000.0001) doResetHFactors = /* reset thickness factors @ each time-step */
(PID.TID 0000.0001)                   F
(PID.TID 0000.0001)     ;
(PID.TID 0000.0001) multiDimAdvection =  /* enable/disable Multi-Dim Advection */
(PID.TID 0000.0001)                   T
(PID.TID 0000.0001)     ;
(PID.TID 0000.0001) useMultiDimAdvec =   /* Multi-Dim Advection is/is-not used */
(PID.TID 0000.0001)                   F
(PID.TID 0000.0001)     ;
(PID.TID 0000.0001) implicitDiffusion = /* Implicit Diffusion on/off flag */
(PID.TID 0000.0001)                   T
(PID.TID 0000.0001)     ;
(PID.TID 0000.0001) tempStepping =  /* Temperature equation on/off flag */
(PID.TID 0000.0001)                   T
(PID.TID 0000.0001)     ;
(PID.TID 0000.0001) tempAdvection = /* Temperature advection on/off flag */
(PID.TID 0000.0001)                   T
(PID.TID 0000.0001)     ;
(PID.TID 0000.0001) tempImplVertAdv = /* Temp. implicit vert. advection on/off */
(PID.TID 0000.0001)                   F
(PID.TID 0000.0001)     ;
(PID.TID 0000.0001) tempForcing  =  /* Temperature forcing on/off flag */
(PID.TID 0000.0001)                   T
(PID.TID 0000.0001)     ;
(PID.TID 0000.0001) doThetaClimRelax = /* apply SST relaxation on/off flag */
(PID.TID 0000.0001)                   F
(PID.TID 0000.0001)     ;
(PID.TID 0000.0001) tempIsActiveTr = /* Temp. is a dynamically Active Tracer */
(PID.TID 0000.0001)                   T
(PID.TID 0000.0001)     ;
(PID.TID 0000.0001) saltStepping =  /* Salinity equation on/off flag */
(PID.TID 0000.0001)                   T
(PID.TID 0000.0001)     ;
(PID.TID 0000.0001) saltAdvection = /* Salinity advection on/off flag */
(PID.TID 0000.0001)                   T
(PID.TID 0000.0001)     ;
(PID.TID 0000.0001) saltImplVertAdv = /* Sali. implicit vert. advection on/off */
(PID.TID 0000.0001)                   F
(PID.TID 0000.0001)     ;
(PID.TID 0000.0001) saltForcing  =  /* Salinity forcing on/off flag */
(PID.TID 0000.0001)                   T
(PID.TID 0000.0001)     ;
(PID.TID 0000.0001) doSaltClimRelax = /* apply SSS relaxation on/off flag */
(PID.TID 0000.0001)                   F
(PID.TID 0000.0001)     ;
(PID.TID 0000.0001) saltIsActiveTr = /* Salt  is a dynamically Active Tracer */
(PID.TID 0000.0001)                   T
(PID.TID 0000.0001)     ;
(PID.TID 0000.0001)  readBinaryPrec = /* Precision used for reading binary files */
(PID.TID 0000.0001)                      64
(PID.TID 0000.0001)     ;
(PID.TID 0000.0001) writeBinaryPrec = /* Precision used for writing binary files */
(PID.TID 0000.0001)                      32
(PID.TID 0000.0001)     ;
(PID.TID 0000.0001)  rwSuffixType =   /* select format of mds file suffix */
(PID.TID 0000.0001)                       0
(PID.TID 0000.0001)    = 0 : myIter (I10.10) ;   = 1 : 100*myTime (100th sec) ;
(PID.TID 0000.0001)    = 2 : myTime (seconds);   = 3 : myTime/360 (10th of hr);
(PID.TID 0000.0001)    = 4 : myTime/3600 (hours)
(PID.TID 0000.0001)     ;
(PID.TID 0000.0001)  globalFiles = /* write "global" (=not per tile) files */
(PID.TID 0000.0001)                   F
(PID.TID 0000.0001)     ;
(PID.TID 0000.0001)  useSingleCpuIO = /* only master MPI process does I/O */
(PID.TID 0000.0001)                   T
(PID.TID 0000.0001)     ;
(PID.TID 0000.0001)  useSingleCpuInput = /* only master process reads input */
(PID.TID 0000.0001)                   T
(PID.TID 0000.0001)     ;
(PID.TID 0000.0001) /* debLev[*]  : level of debug & auxiliary message printing */
(PID.TID 0000.0001) debLevZero =  0 ; /* level of disabled aux. msg printing */
(PID.TID 0000.0001)    debLevA =  1 ; /* level of minimum  aux. msg printing */
(PID.TID 0000.0001)    debLevB =  2 ; /* level of low aux. print (report read-file opening)*/
(PID.TID 0000.0001)    debLevC =  3 ; /* level of moderate debug prt (most pkgs debug msg) */
(PID.TID 0000.0001)    debLevD =  4 ; /* level of enhanced debug prt (add DEBUG_STATS prt) */
(PID.TID 0000.0001)    debLevE =  5 ; /* level of extensive debug printing */
(PID.TID 0000.0001) debugLevel =  /* select debug printing level */
(PID.TID 0000.0001)                       3
(PID.TID 0000.0001)     ;
(PID.TID 0000.0001)  plotLevel =  /* select PLOT_FIELD printing level */
(PID.TID 0000.0001)                       3
(PID.TID 0000.0001)     ;
(PID.TID 0000.0001) //
(PID.TID 0000.0001) // Elliptic solver(s) paramters ( PARM02 in namelist )
(PID.TID 0000.0001) //
(PID.TID 0000.0001) cg2dMaxIters =   /* Upper limit on 2d con. grad iterations  */
(PID.TID 0000.0001)                    1000
(PID.TID 0000.0001)     ;
(PID.TID 0000.0001) cg2dMinItersNSA =   /* Minimum number of iterations of 2d con. grad solver  */
(PID.TID 0000.0001)                       0
(PID.TID 0000.0001)     ;
(PID.TID 0000.0001) cg2dUseMinResSol= /* use cg2d last-iter(=0) / min-resid.(=1) solution */
(PID.TID 0000.0001)                       0
(PID.TID 0000.0001)     ;
(PID.TID 0000.0001) cg2dTargetResidual =   /* 2d con. grad target residual  */
(PID.TID 0000.0001)                 1.000000000000000E-13
(PID.TID 0000.0001)     ;
(PID.TID 0000.0001) cg2dTargetResWunit =   /* CG2d target residual [W units] */
(PID.TID 0000.0001)                -1.000000000000000E+00
(PID.TID 0000.0001)     ;
(PID.TID 0000.0001) cg2dPreCondFreq =   /* Freq. for updating cg2d preconditioner */
(PID.TID 0000.0001)                       1
(PID.TID 0000.0001)     ;
(PID.TID 0000.0001) useSRCGSolver =  /* use single reduction CG solver(s) */
(PID.TID 0000.0001)                   F
(PID.TID 0000.0001)     ;
(PID.TID 0000.0001) useNSACGSolver =  /* use not-self-adjoint CG solver */
(PID.TID 0000.0001)                   F
(PID.TID 0000.0001)     ;
(PID.TID 0000.0001) printResidualFreq = /* Freq. for printing CG residual */
(PID.TID 0000.0001)                       0
(PID.TID 0000.0001)     ;
(PID.TID 0000.0001) //
(PID.TID 0000.0001) // Time stepping paramters ( PARM03 in namelist )
(PID.TID 0000.0001) //
(PID.TID 0000.0001) deltaTMom =   /* Momentum equation timestep ( s ) */
(PID.TID 0000.0001)                 1.800000000000000E+03
(PID.TID 0000.0001)     ;
(PID.TID 0000.0001) deltaTFreeSurf = /* FreeSurface equation timestep ( s ) */
(PID.TID 0000.0001)                 1.800000000000000E+03
(PID.TID 0000.0001)     ;
(PID.TID 0000.0001) dTtracerLev =  /* Tracer equation timestep ( s ) */
(PID.TID 0000.0001)    30 @  1.800000000000000E+03              /* K =  1: 30 */
(PID.TID 0000.0001)     ;
(PID.TID 0000.0001) deltaTClock  =   /* Model clock timestep ( s ) */
(PID.TID 0000.0001)                 1.800000000000000E+03
(PID.TID 0000.0001)     ;
(PID.TID 0000.0001) cAdjFreq =   /* Convective adjustment interval ( s ) */
(PID.TID 0000.0001)                 0.000000000000000E+00
(PID.TID 0000.0001)     ;
(PID.TID 0000.0001) momForcingOutAB = /* =1: take Momentum Forcing out of Adams-Bash. stepping */
(PID.TID 0000.0001)                       0
(PID.TID 0000.0001)     ;
(PID.TID 0000.0001) tracForcingOutAB = /* =1: take T,S,pTr Forcing out of Adams-Bash. stepping */
(PID.TID 0000.0001)                       0
(PID.TID 0000.0001)     ;
(PID.TID 0000.0001) momDissip_In_AB = /* put Dissipation Tendency in Adams-Bash. stepping */
(PID.TID 0000.0001)                   T
(PID.TID 0000.0001)     ;
(PID.TID 0000.0001) doAB_onGtGs = /* apply AB on Tendencies (rather than on T,S)*/
(PID.TID 0000.0001)                   T
(PID.TID 0000.0001)     ;
(PID.TID 0000.0001) abEps =   /* Adams-Bashforth-2 stabilizing weight */
(PID.TID 0000.0001)                 1.000000000000000E-01
(PID.TID 0000.0001)     ;
(PID.TID 0000.0001) applyExchUV_early = /* Apply EXCH to U,V earlier in time-step */
(PID.TID 0000.0001)                   F
(PID.TID 0000.0001)     ;
(PID.TID 0000.0001) pickupStrictlyMatch= /* stop if pickup do not strictly match */
(PID.TID 0000.0001)                   T
(PID.TID 0000.0001)     ;
(PID.TID 0000.0001) nIter0   =   /* Run starting timestep number */
(PID.TID 0000.0001)                       0
(PID.TID 0000.0001)     ;
(PID.TID 0000.0001) nTimeSteps = /* Number of timesteps */
(PID.TID 0000.0001)                      12
(PID.TID 0000.0001)     ;
(PID.TID 0000.0001) nEndIter =   /* Run ending timestep number */
(PID.TID 0000.0001)                      12
(PID.TID 0000.0001)     ;
(PID.TID 0000.0001) baseTime =   /* Model base time ( s ) */
(PID.TID 0000.0001)                 0.000000000000000E+00
(PID.TID 0000.0001)     ;
(PID.TID 0000.0001) startTime =  /* Run start time ( s ) */
(PID.TID 0000.0001)                 0.000000000000000E+00
(PID.TID 0000.0001)     ;
(PID.TID 0000.0001) endTime  =   /* Integration ending time ( s ) */
(PID.TID 0000.0001)                 2.160000000000000E+04
(PID.TID 0000.0001)     ;
(PID.TID 0000.0001) pChkPtFreq = /* Permanent restart/pickup file interval ( s ) */
(PID.TID 0000.0001)                 0.000000000000000E+00
(PID.TID 0000.0001)     ;
(PID.TID 0000.0001) chkPtFreq  = /* Rolling restart/pickup file interval ( s ) */
(PID.TID 0000.0001)                 0.000000000000000E+00
(PID.TID 0000.0001)     ;
(PID.TID 0000.0001) pickup_write_mdsio =   /* Model IO flag. */
(PID.TID 0000.0001)                   T
(PID.TID 0000.0001)     ;
(PID.TID 0000.0001) pickup_read_mdsio =   /* Model IO flag. */
(PID.TID 0000.0001)                   T
(PID.TID 0000.0001)     ;
(PID.TID 0000.0001) pickup_write_mnc =   /* Model IO flag. */
(PID.TID 0000.0001)                   F
(PID.TID 0000.0001)     ;
(PID.TID 0000.0001) pickup_read_mnc =   /* Model IO flag. */
(PID.TID 0000.0001)                   F
(PID.TID 0000.0001)     ;
(PID.TID 0000.0001) writePickupAtEnd =   /* Model IO flag. */
(PID.TID 0000.0001)                   T
(PID.TID 0000.0001)     ;
(PID.TID 0000.0001) dumpFreq =   /* Model state write out interval ( s ). */
(PID.TID 0000.0001)                 0.000000000000000E+00
(PID.TID 0000.0001)     ;
(PID.TID 0000.0001) dumpInitAndLast= /* write out Initial & Last iter. model state */
(PID.TID 0000.0001)                   T
(PID.TID 0000.0001)     ;
(PID.TID 0000.0001) snapshot_mdsio =   /* Model IO flag. */
(PID.TID 0000.0001)                   T
(PID.TID 0000.0001)     ;
(PID.TID 0000.0001) snapshot_mnc =   /* Model IO flag. */
(PID.TID 0000.0001)                   F
(PID.TID 0000.0001)     ;
(PID.TID 0000.0001) monitorFreq =   /* Monitor output interval ( s ). */
(PID.TID 0000.0001)                 1.000000000000000E+00
(PID.TID 0000.0001)     ;
(PID.TID 0000.0001) monitorSelect = /* select group of variables to monitor */
(PID.TID 0000.0001)                       2
(PID.TID 0000.0001)     ;
(PID.TID 0000.0001) monitor_stdio =   /* Model IO flag. */
(PID.TID 0000.0001)                   T
(PID.TID 0000.0001)     ;
(PID.TID 0000.0001) monitor_mnc =   /* Model IO flag. */
(PID.TID 0000.0001)                   F
(PID.TID 0000.0001)     ;
(PID.TID 0000.0001) externForcingPeriod =   /* forcing period (s) */
(PID.TID 0000.0001)                 0.000000000000000E+00
(PID.TID 0000.0001)     ;
(PID.TID 0000.0001) externForcingCycle =   /* period of the cyle (s). */
(PID.TID 0000.0001)                 0.000000000000000E+00
(PID.TID 0000.0001)     ;
(PID.TID 0000.0001) tauThetaClimRelax =   /* relaxation time scale (s) */
(PID.TID 0000.0001)                 0.000000000000000E+00
(PID.TID 0000.0001)     ;
(PID.TID 0000.0001) tauSaltClimRelax =   /* relaxation time scale (s) */
(PID.TID 0000.0001)                 0.000000000000000E+00
(PID.TID 0000.0001)     ;
(PID.TID 0000.0001) latBandClimRelax =   /* max. Lat. where relaxation */
(PID.TID 0000.0001)                 1.800000000000000E+02
(PID.TID 0000.0001)     ;
(PID.TID 0000.0001) //
(PID.TID 0000.0001) // Gridding paramters ( PARM04 in namelist )
(PID.TID 0000.0001) //
(PID.TID 0000.0001) usingCartesianGrid = /* Cartesian coordinates flag ( True/False ) */
(PID.TID 0000.0001)                   F
(PID.TID 0000.0001)     ;
(PID.TID 0000.0001) usingCylindricalGrid = /* Cylindrical coordinates flag ( True/False ) */
(PID.TID 0000.0001)                   F
(PID.TID 0000.0001)     ;
(PID.TID 0000.0001) usingSphericalPolarGrid = /* Spherical coordinates flag ( True/False ) */
(PID.TID 0000.0001)                   T
(PID.TID 0000.0001)     ;
(PID.TID 0000.0001) usingCurvilinearGrid = /* Curvilinear coordinates flag ( True/False ) */
(PID.TID 0000.0001)                   F
(PID.TID 0000.0001)     ;
(PID.TID 0000.0001) useMin4hFacEdges = /* set hFacW,S as minimum of adjacent hFacC factor */
(PID.TID 0000.0001)                   F
(PID.TID 0000.0001)     ;
(PID.TID 0000.0001) interViscAr_pCell = /* account for partial-cell in interior vert. viscosity */
(PID.TID 0000.0001)                   F
(PID.TID 0000.0001)     ;
(PID.TID 0000.0001) interDiffKr_pCell = /* account for partial-cell in interior vert. diffusion */
(PID.TID 0000.0001)                   F
(PID.TID 0000.0001)     ;
(PID.TID 0000.0001) pCellMix_select = /* option to enhance mixing near surface & bottom */
(PID.TID 0000.0001)                       0
(PID.TID 0000.0001)     ;
(PID.TID 0000.0001) selectSigmaCoord = /* Hybrid-Sigma Vert. Coordinate option */
(PID.TID 0000.0001)                       0
(PID.TID 0000.0001)     ;
(PID.TID 0000.0001) rSigmaBnd = /* r/sigma transition ( units of r ==  m ) */
(PID.TID 0000.0001)                 1.234567000000000E+05
(PID.TID 0000.0001)     ;
(PID.TID 0000.0001) rkSign =   /* index orientation relative to vertical coordinate */
(PID.TID 0000.0001)                -1.000000000000000E+00
(PID.TID 0000.0001)     ;
(PID.TID 0000.0001) gravitySign = /* gravity orientation relative to vertical coordinate */
(PID.TID 0000.0001)                -1.000000000000000E+00
(PID.TID 0000.0001)     ;
(PID.TID 0000.0001) seaLev_Z =  /* reference height of sea-level [m] */
(PID.TID 0000.0001)                 0.000000000000000E+00
(PID.TID 0000.0001)     ;
(PID.TID 0000.0001) top_Pres =  /* reference pressure at the top [Pa] */
(PID.TID 0000.0001)                 0.000000000000000E+00
(PID.TID 0000.0001)     ;
(PID.TID 0000.0001) mass2rUnit = /* convert mass per unit area [kg/m2] to r-units [m] */
(PID.TID 0000.0001)                 9.708737864077669E-04
(PID.TID 0000.0001)     ;
(PID.TID 0000.0001) rUnit2mass = /* convert r-units [m] to mass per unit area [kg/m2] */
(PID.TID 0000.0001)                 1.030000000000000E+03
(PID.TID 0000.0001)     ;
(PID.TID 0000.0001) drC =   /* C spacing ( units of r ) */
(PID.TID 0000.0001)                 1.500000000000000E+01,      /* K =  1 */
(PID.TID 0000.0001)    29 @  3.000000000000000E+01,             /* K =  2: 30 */
(PID.TID 0000.0001)                 1.500000000000000E+01       /* K = 31 */
(PID.TID 0000.0001)     ;
(PID.TID 0000.0001) drF =   /* W spacing ( units of r ) */
(PID.TID 0000.0001)    30 @  3.000000000000000E+01              /* K =  1: 30 */
(PID.TID 0000.0001)     ;
(PID.TID 0000.0001) delX = /* U spacing ( m - cartesian, degrees - spherical ) */
(PID.TID 0000.0001)    50 @  3.000000000000000E-01              /* I =  1: 50 */
(PID.TID 0000.0001)     ;
(PID.TID 0000.0001) delY = /* V spacing ( m - cartesian, degrees - spherical ) */
(PID.TID 0000.0001)   100 @  1.000000000000000E-01              /* J =  1:100 */
(PID.TID 0000.0001)     ;
(PID.TID 0000.0001) xgOrigin = /* X-axis origin of West  edge (cartesian: m, lat-lon: deg) */
(PID.TID 0000.0001)                 0.000000000000000E+00
(PID.TID 0000.0001)     ;
(PID.TID 0000.0001) ygOrigin = /* Y-axis origin of South edge (cartesian: m, lat-lon: deg) */
(PID.TID 0000.0001)                -8.000000000000000E+01
(PID.TID 0000.0001)     ;
(PID.TID 0000.0001) rSphere =  /* Radius ( ignored - cartesian, m - spherical ) */
(PID.TID 0000.0001)                 6.370000000000000E+06
(PID.TID 0000.0001)     ;
(PID.TID 0000.0001) deepAtmosphere = /* Deep/Shallow Atmosphere flag (True/False) */
(PID.TID 0000.0001)                   F
(PID.TID 0000.0001)     ;
(PID.TID 0000.0001) xC =  /* xC(:,1,:,1) : P-point X coord ( deg. or m if cartesian) */
(PID.TID 0000.0001)                 1.500000000000001E-01,      /* I =  1 */
(PID.TID 0000.0001)                 4.500000000000001E-01,      /* I =  2 */
(PID.TID 0000.0001)                 7.500000000000002E-01,      /* I =  3 */
(PID.TID 0000.0001)                 1.050000000000000E+00,      /* I =  4 */
(PID.TID 0000.0001)                 1.350000000000000E+00,      /* I =  5 */
(PID.TID 0000.0001)                 1.650000000000000E+00,      /* I =  6 */
(PID.TID 0000.0001)                 1.950000000000000E+00,      /* I =  7 */
(PID.TID 0000.0001)                 2.250000000000000E+00,      /* I =  8 */
(PID.TID 0000.0001)                 2.550000000000000E+00,      /* I =  9 */
(PID.TID 0000.0001)                 2.850000000000000E+00,      /* I = 10 */
(PID.TID 0000.0001)                 3.149999999999999E+00,      /* I = 11 */
(PID.TID 0000.0001)                 3.449999999999999E+00,      /* I = 12 */
(PID.TID 0000.0001)                 3.749999999999999E+00,      /* I = 13 */
(PID.TID 0000.0001)                 4.049999999999999E+00,      /* I = 14 */
(PID.TID 0000.0001)                 4.350000000000000E+00,      /* I = 15 */
(PID.TID 0000.0001)                 4.649999999999999E+00,      /* I = 16 */
(PID.TID 0000.0001)                 4.949999999999999E+00,      /* I = 17 */
(PID.TID 0000.0001)                 5.249999999999998E+00,      /* I = 18 */
(PID.TID 0000.0001)                 5.549999999999999E+00,      /* I = 19 */
(PID.TID 0000.0001)                 5.849999999999998E+00,      /* I = 20 */
(PID.TID 0000.0001)                 6.149999999999999E+00,      /* I = 21 */
(PID.TID 0000.0001)                 6.449999999999998E+00,      /* I = 22 */
(PID.TID 0000.0001)                 6.749999999999998E+00,      /* I = 23 */
(PID.TID 0000.0001)                 7.049999999999997E+00,      /* I = 24 */
(PID.TID 0000.0001)                 7.349999999999997E+00,      /* I = 25 */
(PID.TID 0000.0001)                 7.649999999999997E+00,      /* I = 26 */
(PID.TID 0000.0001)                 7.949999999999998E+00,      /* I = 27 */
(PID.TID 0000.0001)                 8.249999999999998E+00,      /* I = 28 */
(PID.TID 0000.0001)                 8.549999999999999E+00,      /* I = 29 */
(PID.TID 0000.0001)                 8.850000000000000E+00,      /* I = 30 */
(PID.TID 0000.0001)                 9.150000000000000E+00,      /* I = 31 */
(PID.TID 0000.0001)                 9.450000000000001E+00,      /* I = 32 */
(PID.TID 0000.0001)                 9.750000000000002E+00,      /* I = 33 */
(PID.TID 0000.0001)                 1.005000000000000E+01,      /* I = 34 */
(PID.TID 0000.0001)                 1.035000000000000E+01,      /* I = 35 */
(PID.TID 0000.0001)                 1.065000000000000E+01,      /* I = 36 */
(PID.TID 0000.0001)                 1.095000000000001E+01,      /* I = 37 */
(PID.TID 0000.0001)                 1.125000000000001E+01,      /* I = 38 */
(PID.TID 0000.0001)                 1.155000000000000E+01,      /* I = 39 */
(PID.TID 0000.0001)                 1.185000000000001E+01,      /* I = 40 */
(PID.TID 0000.0001)                 1.215000000000001E+01,      /* I = 41 */
(PID.TID 0000.0001)                 1.245000000000001E+01,      /* I = 42 */
(PID.TID 0000.0001)                 1.275000000000001E+01,      /* I = 43 */
(PID.TID 0000.0001)                 1.305000000000001E+01,      /* I = 44 */
(PID.TID 0000.0001)                 1.335000000000001E+01,      /* I = 45 */
(PID.TID 0000.0001)                 1.365000000000001E+01,      /* I = 46 */
(PID.TID 0000.0001)                 1.395000000000001E+01,      /* I = 47 */
(PID.TID 0000.0001)                 1.425000000000001E+01,      /* I = 48 */
(PID.TID 0000.0001)                 1.455000000000001E+01,      /* I = 49 */
(PID.TID 0000.0001)                 1.485000000000001E+01       /* I = 50 */
(PID.TID 0000.0001)     ;
(PID.TID 0000.0001) yC =  /* yC(1,:,1,:) : P-point Y coord ( deg. or m if cartesian) */
(PID.TID 0000.0001)                -7.995000000000000E+01,      /* J =  1 */
(PID.TID 0000.0001)                -7.985000000000001E+01,      /* J =  2 */
(PID.TID 0000.0001)                -7.975000000000001E+01,      /* J =  3 */
(PID.TID 0000.0001)      . . .
(PID.TID 0000.0001)                -7.775000000000013E+01,      /* J = 23 */
(PID.TID 0000.0001)                -7.765000000000013E+01,      /* J = 24 */
(PID.TID 0000.0001)                -7.755000000000014E+01,      /* J = 25 */
(PID.TID 0000.0001)                -7.745000000000014E+01,      /* J = 26 */
(PID.TID 0000.0001)                -7.735000000000015E+01,      /* J = 27 */
(PID.TID 0000.0001)                -7.725000000000016E+01,      /* J = 28 */
(PID.TID 0000.0001)      . . .
(PID.TID 0000.0001)                -7.525000000000027E+01,      /* J = 48 */
(PID.TID 0000.0001)                -7.515000000000028E+01,      /* J = 49 */
(PID.TID 0000.0001)                -7.505000000000028E+01,      /* J = 50 */
(PID.TID 0000.0001)                -7.495000000000029E+01,      /* J = 51 */
(PID.TID 0000.0001)                -7.485000000000029E+01,      /* J = 52 */
(PID.TID 0000.0001)                -7.475000000000030E+01,      /* J = 53 */
(PID.TID 0000.0001)      . . .
(PID.TID 0000.0001)                -7.275000000000041E+01,      /* J = 73 */
(PID.TID 0000.0001)                -7.265000000000042E+01,      /* J = 74 */
(PID.TID 0000.0001)                -7.255000000000042E+01,      /* J = 75 */
(PID.TID 0000.0001)                -7.245000000000043E+01,      /* J = 76 */
(PID.TID 0000.0001)                -7.235000000000043E+01,      /* J = 77 */
(PID.TID 0000.0001)                -7.225000000000044E+01,      /* J = 78 */
(PID.TID 0000.0001)      . . .
(PID.TID 0000.0001)                -7.025000000000055E+01,      /* J = 98 */
(PID.TID 0000.0001)                -7.015000000000056E+01,      /* J = 99 */
(PID.TID 0000.0001)                -7.005000000000057E+01       /* J =100 */
(PID.TID 0000.0001)     ;
(PID.TID 0000.0001) rcoord = /* P-point R coordinate (  units of r ) */
(PID.TID 0000.0001)                -1.500000000000000E+01,      /* K =  1 */
(PID.TID 0000.0001)                -4.500000000000000E+01,      /* K =  2 */
(PID.TID 0000.0001)                -7.500000000000000E+01,      /* K =  3 */
(PID.TID 0000.0001)                -1.050000000000000E+02,      /* K =  4 */
(PID.TID 0000.0001)                -1.350000000000000E+02,      /* K =  5 */
(PID.TID 0000.0001)                -1.650000000000000E+02,      /* K =  6 */
(PID.TID 0000.0001)                -1.950000000000000E+02,      /* K =  7 */
(PID.TID 0000.0001)                -2.250000000000000E+02,      /* K =  8 */
(PID.TID 0000.0001)                -2.550000000000000E+02,      /* K =  9 */
(PID.TID 0000.0001)                -2.850000000000000E+02,      /* K = 10 */
(PID.TID 0000.0001)                -3.150000000000000E+02,      /* K = 11 */
(PID.TID 0000.0001)                -3.450000000000000E+02,      /* K = 12 */
(PID.TID 0000.0001)                -3.750000000000000E+02,      /* K = 13 */
(PID.TID 0000.0001)                -4.050000000000000E+02,      /* K = 14 */
(PID.TID 0000.0001)                -4.350000000000000E+02,      /* K = 15 */
(PID.TID 0000.0001)                -4.650000000000000E+02,      /* K = 16 */
(PID.TID 0000.0001)                -4.950000000000000E+02,      /* K = 17 */
(PID.TID 0000.0001)                -5.250000000000000E+02,      /* K = 18 */
(PID.TID 0000.0001)                -5.550000000000000E+02,      /* K = 19 */
(PID.TID 0000.0001)                -5.850000000000000E+02,      /* K = 20 */
(PID.TID 0000.0001)                -6.150000000000000E+02,      /* K = 21 */
(PID.TID 0000.0001)                -6.450000000000000E+02,      /* K = 22 */
(PID.TID 0000.0001)                -6.750000000000000E+02,      /* K = 23 */
(PID.TID 0000.0001)                -7.050000000000000E+02,      /* K = 24 */
(PID.TID 0000.0001)                -7.350000000000000E+02,      /* K = 25 */
(PID.TID 0000.0001)                -7.650000000000000E+02,      /* K = 26 */
(PID.TID 0000.0001)                -7.950000000000000E+02,      /* K = 27 */
(PID.TID 0000.0001)                -8.250000000000000E+02,      /* K = 28 */
(PID.TID 0000.0001)                -8.550000000000000E+02,      /* K = 29 */
(PID.TID 0000.0001)                -8.850000000000000E+02       /* K = 30 */
(PID.TID 0000.0001)     ;
(PID.TID 0000.0001) rF =   /* W-Interf. R coordinate (  units of r ) */
(PID.TID 0000.0001)                 0.000000000000000E+00,      /* K =  1 */
(PID.TID 0000.0001)                -3.000000000000000E+01,      /* K =  2 */
(PID.TID 0000.0001)                -6.000000000000000E+01,      /* K =  3 */
(PID.TID 0000.0001)                -9.000000000000000E+01,      /* K =  4 */
(PID.TID 0000.0001)                -1.200000000000000E+02,      /* K =  5 */
(PID.TID 0000.0001)                -1.500000000000000E+02,      /* K =  6 */
(PID.TID 0000.0001)                -1.800000000000000E+02,      /* K =  7 */
(PID.TID 0000.0001)                -2.100000000000000E+02,      /* K =  8 */
(PID.TID 0000.0001)                -2.400000000000000E+02,      /* K =  9 */
(PID.TID 0000.0001)                -2.700000000000000E+02,      /* K = 10 */
(PID.TID 0000.0001)                -3.000000000000000E+02,      /* K = 11 */
(PID.TID 0000.0001)                -3.300000000000000E+02,      /* K = 12 */
(PID.TID 0000.0001)                -3.600000000000000E+02,      /* K = 13 */
(PID.TID 0000.0001)                -3.900000000000000E+02,      /* K = 14 */
(PID.TID 0000.0001)                -4.200000000000000E+02,      /* K = 15 */
(PID.TID 0000.0001)                -4.500000000000000E+02,      /* K = 16 */
(PID.TID 0000.0001)                -4.800000000000000E+02,      /* K = 17 */
(PID.TID 0000.0001)                -5.100000000000000E+02,      /* K = 18 */
(PID.TID 0000.0001)                -5.400000000000000E+02,      /* K = 19 */
(PID.TID 0000.0001)                -5.700000000000000E+02,      /* K = 20 */
(PID.TID 0000.0001)                -6.000000000000000E+02,      /* K = 21 */
(PID.TID 0000.0001)                -6.300000000000000E+02,      /* K = 22 */
(PID.TID 0000.0001)                -6.600000000000000E+02,      /* K = 23 */
(PID.TID 0000.0001)                -6.900000000000000E+02,      /* K = 24 */
(PID.TID 0000.0001)                -7.200000000000000E+02,      /* K = 25 */
(PID.TID 0000.0001)                -7.500000000000000E+02,      /* K = 26 */
(PID.TID 0000.0001)                -7.800000000000000E+02,      /* K = 27 */
(PID.TID 0000.0001)                -8.100000000000000E+02,      /* K = 28 */
(PID.TID 0000.0001)                -8.400000000000000E+02,      /* K = 29 */
(PID.TID 0000.0001)                -8.700000000000000E+02,      /* K = 30 */
(PID.TID 0000.0001)                -9.000000000000000E+02       /* K = 31 */
(PID.TID 0000.0001)     ;
(PID.TID 0000.0001) deepFacC = /* deep-model grid factor @ cell-Center (-) */
(PID.TID 0000.0001)    30 @  1.000000000000000E+00              /* K =  1: 30 */
(PID.TID 0000.0001)     ;
(PID.TID 0000.0001) deepFacF = /* deep-model grid factor @ W-Interface (-) */
(PID.TID 0000.0001)    31 @  1.000000000000000E+00              /* K =  1: 31 */
(PID.TID 0000.0001)     ;
(PID.TID 0000.0001) rVel2wUnit = /* convert units: rVel -> wSpeed (=1 if z-coord)*/
(PID.TID 0000.0001)    31 @  1.000000000000000E+00              /* K =  1: 31 */
(PID.TID 0000.0001)     ;
(PID.TID 0000.0001) wUnit2rVel = /* convert units: wSpeed -> rVel (=1 if z-coord)*/
(PID.TID 0000.0001)    31 @  1.000000000000000E+00              /* K =  1: 31 */
(PID.TID 0000.0001)     ;
(PID.TID 0000.0001) dBdrRef = /* Vertical grad. of reference buoyancy [(m/s/r)^2] */
(PID.TID 0000.0001)    10 @  0.000000000000000E+00,             /* K =  1: 10 */
(PID.TID 0000.0001)                 1.124731220453894E-05,      /* K = 11 */
(PID.TID 0000.0001)                 1.124366515896614E-05,      /* K = 12 */
(PID.TID 0000.0001)                 1.124002146518838E-05,      /* K = 13 */
(PID.TID 0000.0001)                 1.123638113569378E-05,      /* K = 14 */
(PID.TID 0000.0001)                 1.123274418246514E-05,      /* K = 15 */
(PID.TID 0000.0001)                 1.122911061777403E-05,      /* K = 16 */
(PID.TID 0000.0001)                 1.122548045374762E-05,      /* K = 17 */
(PID.TID 0000.0001)                 1.122185370222437E-05,      /* K = 18 */
(PID.TID 0000.0001)                 1.121823037547582E-05,      /* K = 19 */
(PID.TID 0000.0001)                 1.121461048512386E-05,      /* K = 20 */
(PID.TID 0000.0001)                 1.121099404322349E-05,      /* K = 21 */
(PID.TID 0000.0001)                 1.120738106139660E-05,      /* K = 22 */
(PID.TID 0000.0001)                 1.120377155162599E-05,      /* K = 23 */
(PID.TID 0000.0001)                 1.120016552538919E-05,      /* K = 24 */
(PID.TID 0000.0001)                 1.119656043150190E-05,      /* K = 25 */
(PID.TID 0000.0001)                 1.119296397022110E-05,      /* K = 26 */
(PID.TID 0000.0001)                 1.118936846446139E-05,      /* K = 27 */
(PID.TID 0000.0001)                 1.118577648836210E-05,      /* K = 28 */
(PID.TID 0000.0001)                 1.118218805347293E-05,      /* K = 29 */
(PID.TID 0000.0001)                 1.117860317127138E-05       /* K = 30 */
(PID.TID 0000.0001)     ;
(PID.TID 0000.0001) rotateGrid = /* use rotated grid ( True/False ) */
(PID.TID 0000.0001)                   F
(PID.TID 0000.0001)     ;
(PID.TID 0000.0001) phiEuler = /* Euler angle, rotation about original z-coordinate [rad] */
(PID.TID 0000.0001)                 0.000000000000000E+00
(PID.TID 0000.0001)     ;
(PID.TID 0000.0001) thetaEuler = /* Euler angle, rotation about new x-coordinate [rad] */
(PID.TID 0000.0001)                 0.000000000000000E+00
(PID.TID 0000.0001)     ;
(PID.TID 0000.0001) psiEuler = /* Euler angle, rotation about new z-coordinate [rad] */
(PID.TID 0000.0001)                 0.000000000000000E+00
(PID.TID 0000.0001)     ;
(PID.TID 0000.0001) dxF =  /* dxF(:,1,:,1) ( units: m ) */
(PID.TID 0000.0001)    50 @  5.820391490558872E+03              /* I =  1: 50 */
(PID.TID 0000.0001)     ;
(PID.TID 0000.0001) dxF =  /* dxF(1,:,1,:) ( units: m ) */
(PID.TID 0000.0001)                 5.820391490558872E+03,      /* J =  1 */
(PID.TID 0000.0001)                 5.877701765291692E+03,      /* J =  2 */
(PID.TID 0000.0001)                 5.934994135525598E+03,      /* J =  3 */
(PID.TID 0000.0001)      . . .
(PID.TID 0000.0001)                 7.076813247621209E+03,      /* J = 23 */
(PID.TID 0000.0001)                 7.133689397375063E+03,      /* J = 24 */
(PID.TID 0000.0001)                 7.190543816673855E+03,      /* J = 25 */
(PID.TID 0000.0001)                 7.247376332329164E+03,      /* J = 26 */
(PID.TID 0000.0001)                 7.304186771219292E+03,      /* J = 27 */
(PID.TID 0000.0001)                 7.360974960289787E+03,      /* J = 28 */
(PID.TID 0000.0001)      . . .
(PID.TID 0000.0001)                 8.491800393599013E+03,      /* J = 48 */
(PID.TID 0000.0001)                 8.548081485571185E+03,      /* J = 49 */
(PID.TID 0000.0001)                 8.604336538604706E+03,      /* J = 50 */
(PID.TID 0000.0001)                 8.660565381336924E+03,      /* J = 51 */
(PID.TID 0000.0001)                 8.716767842485036E+03,      /* J = 52 */
(PID.TID 0000.0001)                 8.772943750846600E+03,      /* J = 53 */
(PID.TID 0000.0001)      . . .
(PID.TID 0000.0001)                 9.890622914885218E+03,      /* J = 73 */
(PID.TID 0000.0001)                 9.946201814818334E+03,      /* J = 74 */
(PID.TID 0000.0001)                 1.000175041689580E+04,      /* J = 75 */
(PID.TID 0000.0001)                 1.005726855190695E+04,      /* J = 76 */
(PID.TID 0000.0001)                 1.011275605073392E+04,      /* J = 77 */
(PID.TID 0000.0001)                 1.016821274435215E+04,      /* J = 78 */
(PID.TID 0000.0001)      . . .
(PID.TID 0000.0001)                 1.127061807330668E+04,      /* J = 98 */
(PID.TID 0000.0001)                 1.132538898360582E+04,      /* J = 99 */
(PID.TID 0000.0001)                 1.138012539480601E+04       /* J =100 */
(PID.TID 0000.0001)     ;
(PID.TID 0000.0001) dyF =  /* dyF(:,1,:,1) ( units: m ) */
(PID.TID 0000.0001)    50 @  1.111774733520388E+04              /* I =  1: 50 */
(PID.TID 0000.0001)     ;
(PID.TID 0000.0001) dyF =  /* dyF(1,:,1,:) ( units: m ) */
(PID.TID 0000.0001)   100 @  1.111774733520388E+04              /* J =  1:100 */
(PID.TID 0000.0001)     ;
(PID.TID 0000.0001) dxG =  /* dxG(:,1,:,1) ( units: m ) */
(PID.TID 0000.0001)    50 @  5.791729693558576E+03              /* I =  1: 50 */
(PID.TID 0000.0001)     ;
(PID.TID 0000.0001) dxG =  /* dxG(1,:,1,:) ( units: m ) */
(PID.TID 0000.0001)                 5.791729693558576E+03,      /* J =  1 */
(PID.TID 0000.0001)                 5.849048855077854E+03,      /* J =  2 */
(PID.TID 0000.0001)                 5.906350199379949E+03,      /* J =  3 */
(PID.TID 0000.0001)      . . .
(PID.TID 0000.0001)                 7.048367077963129E+03,      /* J = 23 */
(PID.TID 0000.0001)                 7.105254027978149E+03,      /* J = 24 */
(PID.TID 0000.0001)                 7.162119334157175E+03,      /* J = 25 */
(PID.TID 0000.0001)                 7.218962823278620E+03,      /* J = 26 */
(PID.TID 0000.0001)                 7.275784322187360E+03,      /* J = 27 */
(PID.TID 0000.0001)                 7.332583657795253E+03,      /* J = 28 */
(PID.TID 0000.0001)      . . .
(PID.TID 0000.0001)                 8.463650136583461E+03,      /* J = 48 */
(PID.TID 0000.0001)                 8.519944183739159E+03,      /* J = 49 */
(PID.TID 0000.0001)                 8.576212277667308E+03,      /* J = 50 */
(PID.TID 0000.0001)                 8.632454246965530E+03,      /* J = 51 */
(PID.TID 0000.0001)                 8.688669920311038E+03,      /* J = 52 */
(PID.TID 0000.0001)                 8.744859126461139E+03,      /* J = 53 */
(PID.TID 0000.0001)      . . .
(PID.TID 0000.0001)                 9.862822156126382E+03,      /* J = 73 */
(PID.TID 0000.0001)                 9.918416141504455E+03,      /* J = 74 */
(PID.TID 0000.0001)                 9.973979913666863E+03,      /* J = 75 */
(PID.TID 0000.0001)                 1.002951330335672E+04,      /* J = 76 */
(PID.TID 0000.0001)                 1.008501614140969E+04,      /* J = 77 */
(PID.TID 0000.0001)                 1.014048825875450E+04,      /* J = 78 */
(PID.TID 0000.0001)      . . .
(PID.TID 0000.0001)                 1.124321973312895E+04,      /* J = 98 */
(PID.TID 0000.0001)                 1.129800783041847E+04,      /* J = 99 */
(PID.TID 0000.0001)                 1.135276151201679E+04       /* J =100 */
(PID.TID 0000.0001)     ;
(PID.TID 0000.0001) dyG =  /* dyG(:,1,:,1) ( units: m ) */
(PID.TID 0000.0001)    50 @  1.111774733520388E+04              /* I =  1: 50 */
(PID.TID 0000.0001)     ;
(PID.TID 0000.0001) dyG =  /* dyG(1,:,1,:) ( units: m ) */
(PID.TID 0000.0001)   100 @  1.111774733520388E+04              /* J =  1:100 */
(PID.TID 0000.0001)     ;
(PID.TID 0000.0001) dxC =  /* dxC(:,1,:,1) ( units: m ) */
(PID.TID 0000.0001)    50 @  5.820391490558872E+03              /* I =  1: 50 */
(PID.TID 0000.0001)     ;
(PID.TID 0000.0001) dxC =  /* dxC(1,:,1,:) ( units: m ) */
(PID.TID 0000.0001)                 5.820391490558872E+03,      /* J =  1 */
(PID.TID 0000.0001)                 5.877701765291692E+03,      /* J =  2 */
(PID.TID 0000.0001)                 5.934994135525598E+03,      /* J =  3 */
(PID.TID 0000.0001)      . . .
(PID.TID 0000.0001)                 7.076813247621209E+03,      /* J = 23 */
(PID.TID 0000.0001)                 7.133689397375063E+03,      /* J = 24 */
(PID.TID 0000.0001)                 7.190543816673855E+03,      /* J = 25 */
(PID.TID 0000.0001)                 7.247376332329164E+03,      /* J = 26 */
(PID.TID 0000.0001)                 7.304186771219292E+03,      /* J = 27 */
(PID.TID 0000.0001)                 7.360974960289787E+03,      /* J = 28 */
(PID.TID 0000.0001)      . . .
(PID.TID 0000.0001)                 8.491800393599013E+03,      /* J = 48 */
(PID.TID 0000.0001)                 8.548081485571185E+03,      /* J = 49 */
(PID.TID 0000.0001)                 8.604336538604706E+03,      /* J = 50 */
(PID.TID 0000.0001)                 8.660565381336924E+03,      /* J = 51 */
(PID.TID 0000.0001)                 8.716767842485036E+03,      /* J = 52 */
(PID.TID 0000.0001)                 8.772943750846600E+03,      /* J = 53 */
(PID.TID 0000.0001)      . . .
(PID.TID 0000.0001)                 9.890622914885218E+03,      /* J = 73 */
(PID.TID 0000.0001)                 9.946201814818334E+03,      /* J = 74 */
(PID.TID 0000.0001)                 1.000175041689580E+04,      /* J = 75 */
(PID.TID 0000.0001)                 1.005726855190695E+04,      /* J = 76 */
(PID.TID 0000.0001)                 1.011275605073392E+04,      /* J = 77 */
(PID.TID 0000.0001)                 1.016821274435215E+04,      /* J = 78 */
(PID.TID 0000.0001)      . . .
(PID.TID 0000.0001)                 1.127061807330668E+04,      /* J = 98 */
(PID.TID 0000.0001)                 1.132538898360582E+04,      /* J = 99 */
(PID.TID 0000.0001)                 1.138012539480601E+04       /* J =100 */
(PID.TID 0000.0001)     ;
(PID.TID 0000.0001) dyC =  /* dyC(:,1,:,1) ( units: m ) */
(PID.TID 0000.0001)    50 @  1.111774733520388E+04              /* I =  1: 50 */
(PID.TID 0000.0001)     ;
(PID.TID 0000.0001) dyC =  /* dyC(1,:,1,:) ( units: m ) */
(PID.TID 0000.0001)   100 @  1.111774733520388E+04              /* J =  1:100 */
(PID.TID 0000.0001)     ;
(PID.TID 0000.0001) dxV =  /* dxV(:,1,:,1) ( units: m ) */
(PID.TID 0000.0001)    50 @  5.791729693558576E+03              /* I =  1: 50 */
(PID.TID 0000.0001)     ;
(PID.TID 0000.0001) dxV =  /* dxV(1,:,1,:) ( units: m ) */
(PID.TID 0000.0001)                 5.791729693558576E+03,      /* J =  1 */
(PID.TID 0000.0001)                 5.849048855077854E+03,      /* J =  2 */
(PID.TID 0000.0001)                 5.906350199379949E+03,      /* J =  3 */
(PID.TID 0000.0001)      . . .
(PID.TID 0000.0001)                 7.048367077963129E+03,      /* J = 23 */
(PID.TID 0000.0001)                 7.105254027978149E+03,      /* J = 24 */
(PID.TID 0000.0001)                 7.162119334157175E+03,      /* J = 25 */
(PID.TID 0000.0001)                 7.218962823278620E+03,      /* J = 26 */
(PID.TID 0000.0001)                 7.275784322187360E+03,      /* J = 27 */
(PID.TID 0000.0001)                 7.332583657795253E+03,      /* J = 28 */
(PID.TID 0000.0001)      . . .
(PID.TID 0000.0001)                 8.463650136583461E+03,      /* J = 48 */
(PID.TID 0000.0001)                 8.519944183739159E+03,      /* J = 49 */
(PID.TID 0000.0001)                 8.576212277667308E+03,      /* J = 50 */
(PID.TID 0000.0001)                 8.632454246965530E+03,      /* J = 51 */
(PID.TID 0000.0001)                 8.688669920311038E+03,      /* J = 52 */
(PID.TID 0000.0001)                 8.744859126461139E+03,      /* J = 53 */
(PID.TID 0000.0001)      . . .
(PID.TID 0000.0001)                 9.862822156126382E+03,      /* J = 73 */
(PID.TID 0000.0001)                 9.918416141504455E+03,      /* J = 74 */
(PID.TID 0000.0001)                 9.973979913666863E+03,      /* J = 75 */
(PID.TID 0000.0001)                 1.002951330335672E+04,      /* J = 76 */
(PID.TID 0000.0001)                 1.008501614140969E+04,      /* J = 77 */
(PID.TID 0000.0001)                 1.014048825875450E+04,      /* J = 78 */
(PID.TID 0000.0001)      . . .
(PID.TID 0000.0001)                 1.124321973312895E+04,      /* J = 98 */
(PID.TID 0000.0001)                 1.129800783041847E+04,      /* J = 99 */
(PID.TID 0000.0001)                 1.135276151201679E+04       /* J =100 */
(PID.TID 0000.0001)     ;
(PID.TID 0000.0001) dyU =  /* dyU(:,1,:,1) ( units: m ) */
(PID.TID 0000.0001)    50 @  1.111774733520388E+04              /* I =  1: 50 */
(PID.TID 0000.0001)     ;
(PID.TID 0000.0001) dyU =  /* dyU(1,:,1,:) ( units: m ) */
(PID.TID 0000.0001)   100 @  1.111774733520388E+04              /* J =  1:100 */
(PID.TID 0000.0001)     ;
(PID.TID 0000.0001) rA  =  /* rA (:,1,:,1) ( units: m^2 ) */
(PID.TID 0000.0001)    50 @  6.470963377080289E+07              /* I =  1: 50 */
(PID.TID 0000.0001)     ;
(PID.TID 0000.0001) rA  =  /* rA (1,:,1,:) ( units: m^2 ) */
(PID.TID 0000.0001)                 6.470963377080289E+07,      /* J =  1 */
(PID.TID 0000.0001)                 6.534679484410104E+07,      /* J =  2 */
(PID.TID 0000.0001)                 6.598375685977945E+07,      /* J =  3 */
(PID.TID 0000.0001)      . . .
(PID.TID 0000.0001)                 7.867821163932665E+07,      /* J = 23 */
(PID.TID 0000.0001)                 7.931054622142966E+07,      /* J = 24 */
(PID.TID 0000.0001)                 7.994263920984067E+07,      /* J = 25 */
(PID.TID 0000.0001)                 8.057448867913349E+07,      /* J = 26 */
(PID.TID 0000.0001)                 8.120609270456599E+07,      /* J = 27 */
(PID.TID 0000.0001)                 8.183744936212724E+07,      /* J = 28 */
(PID.TID 0000.0001)      . . .
(PID.TID 0000.0001)                 9.440967921416211E+07,      /* J = 48 */
(PID.TID 0000.0001)                 9.503539809503193E+07,      /* J = 49 */
(PID.TID 0000.0001)                 9.566082748163140E+07,      /* J = 50 */
(PID.TID 0000.0001)                 9.628596546870193E+07,      /* J = 51 */
(PID.TID 0000.0001)                 9.691081015209354E+07,      /* J = 52 */
(PID.TID 0000.0001)                 9.753535962826957E+07,      /* J = 53 */
(PID.TID 0000.0001)      . . .
(PID.TID 0000.0001)                 1.099614325987181E+08,      /* J = 73 */
(PID.TID 0000.0001)                 1.105793446869293E+08,      /* J = 74 */
(PID.TID 0000.0001)                 1.111969199312560E+08,      /* J = 75 */
(PID.TID 0000.0001)                 1.118141564504991E+08,      /* J = 76 */
(PID.TID 0000.0001)                 1.124310523644033E+08,      /* J = 77 */
(PID.TID 0000.0001)                 1.130476057938687E+08,      /* J = 78 */
(PID.TID 0000.0001)      . . .
(PID.TID 0000.0001)                 1.253038681465364E+08,      /* J = 98 */
(PID.TID 0000.0001)                 1.259127972112936E+08,      /* J = 99 */
(PID.TID 0000.0001)                 1.265213427237870E+08       /* J =100 */
(PID.TID 0000.0001)     ;
(PID.TID 0000.0001) rAw =  /* rAw(:,1,:,1) ( units: m^2 ) */
(PID.TID 0000.0001)    50 @  6.470963377080289E+07              /* I =  1: 50 */
(PID.TID 0000.0001)     ;
(PID.TID 0000.0001) rAw =  /* rAw(1,:,1,:) ( units: m^2 ) */
(PID.TID 0000.0001)                 6.470963377080289E+07,      /* J =  1 */
(PID.TID 0000.0001)                 6.534679484410104E+07,      /* J =  2 */
(PID.TID 0000.0001)                 6.598375685977945E+07,      /* J =  3 */
(PID.TID 0000.0001)      . . .
(PID.TID 0000.0001)                 7.867821163932665E+07,      /* J = 23 */
(PID.TID 0000.0001)                 7.931054622142966E+07,      /* J = 24 */
(PID.TID 0000.0001)                 7.994263920984067E+07,      /* J = 25 */
(PID.TID 0000.0001)                 8.057448867913349E+07,      /* J = 26 */
(PID.TID 0000.0001)                 8.120609270456599E+07,      /* J = 27 */
(PID.TID 0000.0001)                 8.183744936212724E+07,      /* J = 28 */
(PID.TID 0000.0001)      . . .
(PID.TID 0000.0001)                 9.440967921416211E+07,      /* J = 48 */
(PID.TID 0000.0001)                 9.503539809503193E+07,      /* J = 49 */
(PID.TID 0000.0001)                 9.566082748163140E+07,      /* J = 50 */
(PID.TID 0000.0001)                 9.628596546870193E+07,      /* J = 51 */
(PID.TID 0000.0001)                 9.691081015209354E+07,      /* J = 52 */
(PID.TID 0000.0001)                 9.753535962826957E+07,      /* J = 53 */
(PID.TID 0000.0001)      . . .
(PID.TID 0000.0001)                 1.099614325987181E+08,      /* J = 73 */
(PID.TID 0000.0001)                 1.105793446869293E+08,      /* J = 74 */
(PID.TID 0000.0001)                 1.111969199312560E+08,      /* J = 75 */
(PID.TID 0000.0001)                 1.118141564504991E+08,      /* J = 76 */
(PID.TID 0000.0001)                 1.124310523644033E+08,      /* J = 77 */
(PID.TID 0000.0001)                 1.130476057938687E+08,      /* J = 78 */
(PID.TID 0000.0001)      . . .
(PID.TID 0000.0001)                 1.253038681465364E+08,      /* J = 98 */
(PID.TID 0000.0001)                 1.259127972112936E+08,      /* J = 99 */
(PID.TID 0000.0001)                 1.265213427237870E+08       /* J =100 */
(PID.TID 0000.0001)     ;
(PID.TID 0000.0001) rAs =  /* rAs(:,1,:,1) ( units: m^2 ) */
(PID.TID 0000.0001)    50 @  6.439097919401864E+07              /* I =  1: 50 */
(PID.TID 0000.0001)     ;
(PID.TID 0000.0001) rAs =  /* rAs(1,:,1,:) ( units: m^2 ) */
(PID.TID 0000.0001)                 6.439097919401864E+07,      /* J =  1 */
(PID.TID 0000.0001)                 6.502823906837179E+07,      /* J =  2 */
(PID.TID 0000.0001)                 6.566530085543716E+07,      /* J =  3 */
(PID.TID 0000.0001)      . . .
(PID.TID 0000.0001)                 7.836195435256335E+07,      /* J = 23 */
(PID.TID 0000.0001)                 7.899440900921808E+07,      /* J = 24 */
(PID.TID 0000.0001)                 7.962662303520055E+07,      /* J = 25 */
(PID.TID 0000.0001)                 8.025859450470714E+07,      /* J = 26 */
(PID.TID 0000.0001)                 8.089032149259475E+07,      /* J = 27 */
(PID.TID 0000.0001)                 8.152180207452223E+07,      /* J = 28 */
(PID.TID 0000.0001)      . . .
(PID.TID 0000.0001)                 9.409671180895932E+07,      /* J = 48 */
(PID.TID 0000.0001)                 9.472257472228888E+07,      /* J = 49 */
(PID.TID 0000.0001)                 9.534814909420149E+07,      /* J = 50 */
(PID.TID 0000.0001)                 9.597343301913190E+07,      /* J = 51 */
(PID.TID 0000.0001)                 9.659842459236403E+07,      /* J = 52 */
(PID.TID 0000.0001)                 9.722312190998378E+07,      /* J = 53 */
(PID.TID 0000.0001)      . . .
(PID.TID 0000.0001)                 1.096523508263446E+08,      /* J = 73 */
(PID.TID 0000.0001)                 1.102704306306916E+08,      /* J = 74 */
(PID.TID 0000.0001)                 1.108881745321664E+08,      /* J = 75 */
(PID.TID 0000.0001)                 1.115055806490511E+08,      /* J = 76 */
(PID.TID 0000.0001)                 1.121226471005947E+08,      /* J = 77 */
(PID.TID 0000.0001)                 1.127393720071080E+08,      /* J = 78 */
(PID.TID 0000.0001)      . . .
(PID.TID 0000.0001)                 1.249992603617116E+08,      /* J = 98 */
(PID.TID 0000.0001)                 1.256083805070198E+08,      /* J = 99 */
(PID.TID 0000.0001)                 1.262171180274426E+08       /* J =100 */
(PID.TID 0000.0001)     ;
(PID.TID 0000.0001) globalArea = /* Integrated horizontal Area (m^2) */
(PID.TID 0000.0001)                 4.603029058785420E+11
(PID.TID 0000.0001)     ;
(PID.TID 0000.0001) // =======================================================
(PID.TID 0000.0001) // End of Model config. summary
(PID.TID 0000.0001) // =======================================================
(PID.TID 0000.0001) 
(PID.TID 0000.0001) == Packages configuration : Check & print summary ==
(PID.TID 0000.0001) 
(PID.TID 0000.0001) OBCS_CHECK: #define ALLOW_OBCS
(PID.TID 0000.0001) OBCS_CHECK: start summary:
(PID.TID 0000.0001) useOBCSprescribe = /* prescribe OB values */
(PID.TID 0000.0001)                   T
(PID.TID 0000.0001)     ;
(PID.TID 0000.0001) useOBCSbalance = /* balance the flow through OB */
(PID.TID 0000.0001)                   T
(PID.TID 0000.0001)     ;
(PID.TID 0000.0001) OBCSbalanceSurf = /* include surf. flux in balance */
(PID.TID 0000.0001)                   T
(PID.TID 0000.0001)     ;
(PID.TID 0000.0001) OBCS_balanceFacN = /* Northern OB Factor for balancing OB flow [-] */
(PID.TID 0000.0001)                 1.000000000000000E+00
(PID.TID 0000.0001)     ;
(PID.TID 0000.0001) OBCS_balanceFacS = /* Southern OB Factor for balancing OB flow [-] */
(PID.TID 0000.0001)                 1.000000000000000E+00
(PID.TID 0000.0001)     ;
(PID.TID 0000.0001) OBCS_balanceFacE = /* Eastern  OB Factor for balancing OB flow [-] */
(PID.TID 0000.0001)                 1.000000000000000E+00
(PID.TID 0000.0001)     ;
(PID.TID 0000.0001) OBCS_balanceFacW = /* Western  OB Factor for balancing OB flow [-] */
(PID.TID 0000.0001)                 1.000000000000000E+00
(PID.TID 0000.0001)     ;
(PID.TID 0000.0001) OBCS_uvApplyFac = /* Factor to apply to U,V 2nd column/row */
(PID.TID 0000.0001)                 1.000000000000000E+00
(PID.TID 0000.0001)     ;
(PID.TID 0000.0001) OBCS_u1_adv_T = /* Temp uses upwind adv-scheme @ OB */
(PID.TID 0000.0001)                       0
(PID.TID 0000.0001)     ;
(PID.TID 0000.0001) OBCS_u1_adv_S = /* Salt uses upwind adv-scheme @ OB */
(PID.TID 0000.0001)                       0
(PID.TID 0000.0001)     ;
(PID.TID 0000.0001) OBCS_monitorFreq = /* monitor output frequency [s] */
(PID.TID 0000.0001)                 1.800000000000000E+03
(PID.TID 0000.0001)     ;
(PID.TID 0000.0001) OBCS_monSelect = /* select group of variables to monitor */
(PID.TID 0000.0001)                       1
(PID.TID 0000.0001)     ;
(PID.TID 0000.0001) useOBCStides = /* apply tidal forcing through OB */
(PID.TID 0000.0001)                   F
(PID.TID 0000.0001)     ;
(PID.TID 0000.0001) tidalPeriod = /* (s) */
(PID.TID 0000.0001)    10 @  0.000000000000000E+00              /* I =  1: 10 */
(PID.TID 0000.0001)     ;
(PID.TID 0000.0001) OB_indexNone = /* null value for OB index (i.e. no OB) */
(PID.TID 0000.0001)                     -99
(PID.TID 0000.0001)     ;
(PID.TID 0000.0001) ======== Tile bi=   1 , bj=   1 ========
(PID.TID 0000.0001)  OB_Jn = /* Northern OB local indices */
(PID.TID 0000.0001)    31 @      -99                            /* I = -2: 28 */
(PID.TID 0000.0001)  OB_Js = /* Southern OB local indices */
(PID.TID 0000.0001)    31 @      -99                            /* I = -2: 28 */
(PID.TID 0000.0001)  OB_Ie = /* Eastern OB local indices */
(PID.TID 0000.0001)    31 @      -99                            /* J = -2: 28 */
(PID.TID 0000.0001)  OB_Iw = /* Western OB local indices */
(PID.TID 0000.0001)    31 @      -99                            /* J = -2: 28 */
(PID.TID 0000.0001) ======== Tile bi=   2 , bj=   1 ========
(PID.TID 0000.0001)  OB_Jn = /* Northern OB local indices */
(PID.TID 0000.0001)    31 @      -99                            /* I = -2: 28 */
(PID.TID 0000.0001)  OB_Js = /* Southern OB local indices */
(PID.TID 0000.0001)    31 @      -99                            /* I = -2: 28 */
(PID.TID 0000.0001)  OB_Ie = /* Eastern OB local indices */
(PID.TID 0000.0001)    31 @      -99                            /* J = -2: 28 */
(PID.TID 0000.0001)  OB_Iw = /* Western OB local indices */
(PID.TID 0000.0001)    31 @      -99                            /* J = -2: 28 */
(PID.TID 0000.0001) ======== Tile bi=   1 , bj=   2 ========
(PID.TID 0000.0001)  OB_Jn = /* Northern OB local indices */
(PID.TID 0000.0001)    31 @      -99                            /* I = -2: 28 */
(PID.TID 0000.0001)  OB_Js = /* Southern OB local indices */
(PID.TID 0000.0001)    31 @      -99                            /* I = -2: 28 */
(PID.TID 0000.0001)  OB_Ie = /* Eastern OB local indices */
(PID.TID 0000.0001)    31 @      -99                            /* J = -2: 28 */
(PID.TID 0000.0001)  OB_Iw = /* Western OB local indices */
(PID.TID 0000.0001)    31 @      -99                            /* J = -2: 28 */
(PID.TID 0000.0001) ======== Tile bi=   2 , bj=   2 ========
(PID.TID 0000.0001)  OB_Jn = /* Northern OB local indices */
(PID.TID 0000.0001)    31 @      -99                            /* I = -2: 28 */
(PID.TID 0000.0001)  OB_Js = /* Southern OB local indices */
(PID.TID 0000.0001)    31 @      -99                            /* I = -2: 28 */
(PID.TID 0000.0001)  OB_Ie = /* Eastern OB local indices */
(PID.TID 0000.0001)    31 @      -99                            /* J = -2: 28 */
(PID.TID 0000.0001)  OB_Iw = /* Western OB local indices */
(PID.TID 0000.0001)    31 @      -99                            /* J = -2: 28 */
(PID.TID 0000.0001) ======== Tile bi=   1 , bj=   3 ========
(PID.TID 0000.0001)  OB_Jn = /* Northern OB local indices */
(PID.TID 0000.0001)    31 @      -99                            /* I = -2: 28 */
(PID.TID 0000.0001)  OB_Js = /* Southern OB local indices */
(PID.TID 0000.0001)    31 @      -99                            /* I = -2: 28 */
(PID.TID 0000.0001)  OB_Ie = /* Eastern OB local indices */
(PID.TID 0000.0001)    31 @      -99                            /* J = -2: 28 */
(PID.TID 0000.0001)  OB_Iw = /* Western OB local indices */
(PID.TID 0000.0001)    31 @      -99                            /* J = -2: 28 */
(PID.TID 0000.0001) ======== Tile bi=   2 , bj=   3 ========
(PID.TID 0000.0001)  OB_Jn = /* Northern OB local indices */
(PID.TID 0000.0001)    31 @      -99                            /* I = -2: 28 */
(PID.TID 0000.0001)  OB_Js = /* Southern OB local indices */
(PID.TID 0000.0001)    31 @      -99                            /* I = -2: 28 */
(PID.TID 0000.0001)  OB_Ie = /* Eastern OB local indices */
(PID.TID 0000.0001)    31 @      -99                            /* J = -2: 28 */
(PID.TID 0000.0001)  OB_Iw = /* Western OB local indices */
(PID.TID 0000.0001)    31 @      -99                            /* J = -2: 28 */
(PID.TID 0000.0001) ======== Tile bi=   1 , bj=   4 ========
(PID.TID 0000.0001)  OB_Jn = /* Northern OB local indices */
(PID.TID 0000.0001)    31 @       25                            /* I = -2: 28 */
(PID.TID 0000.0001)  OB_Js = /* Southern OB local indices */
(PID.TID 0000.0001)    31 @      -99                            /* I = -2: 28 */
(PID.TID 0000.0001)  OB_Ie = /* Eastern OB local indices */
(PID.TID 0000.0001)    31 @      -99                            /* J = -2: 28 */
(PID.TID 0000.0001)  OB_Iw = /* Western OB local indices */
(PID.TID 0000.0001)    31 @      -99                            /* J = -2: 28 */
(PID.TID 0000.0001) ======== Tile bi=   2 , bj=   4 ========
(PID.TID 0000.0001)  OB_Jn = /* Northern OB local indices */
(PID.TID 0000.0001)    31 @       25                            /* I = -2: 28 */
(PID.TID 0000.0001)  OB_Js = /* Southern OB local indices */
(PID.TID 0000.0001)    31 @      -99                            /* I = -2: 28 */
(PID.TID 0000.0001)  OB_Ie = /* Eastern OB local indices */
(PID.TID 0000.0001)    31 @      -99                            /* J = -2: 28 */
(PID.TID 0000.0001)  OB_Iw = /* Western OB local indices */
(PID.TID 0000.0001)    31 @      -99                            /* J = -2: 28 */
(PID.TID 0000.0001) OBCS_CHECK: end summary.
(PID.TID 0000.0001) OBCS_CHECK: #define ALLOW_ORLANSKI
(PID.TID 0000.0001) OBCS_CHECK: set-up OK
(PID.TID 0000.0001) OBCS_CHECK: check Inside Mask and OB locations: OK
(PID.TID 0000.0001) GGL90_CHECK: #define ALLOW_GGL90
(PID.TID 0000.0001) SHELFICE_CHECK: #define ALLOW_SHELFICE
(PID.TID 0000.0001) 
(PID.TID 0000.0001) SHELFICE_CHECK: start of SHELFICE config. summary
(PID.TID 0000.0001) SHELFICEisOn = /* package is turned on */
(PID.TID 0000.0001)                   T
(PID.TID 0000.0001)     ;
(PID.TID 0000.0001) useISOMIPTD = /* use simple isomip thermodynamics */
(PID.TID 0000.0001)                   F
(PID.TID 0000.0001)     ;
(PID.TID 0000.0001) SHELFICEconserve = /* use a conservative form of boundary conditions */
(PID.TID 0000.0001)                   T
(PID.TID 0000.0001)     ;
(PID.TID 0000.0001) SHELFICEboundaryLayer = /* use simple boundary layer scheme to suppress noise */
(PID.TID 0000.0001)                   T
(PID.TID 0000.0001)     ;
(PID.TID 0000.0001) SHI_withBL_realFWflux = /* use real FW Flux in boundary layer scheme */
(PID.TID 0000.0001)                   F
(PID.TID 0000.0001)     ;
(PID.TID 0000.0001) SHELFICEadvDiffHeatFlux = /* use adv.-diff. instead of just diff. heat flux into the ice shelf */
(PID.TID 0000.0001)                   T
(PID.TID 0000.0001)     ;
(PID.TID 0000.0001) SHELFICEMassStepping = /* step forward ice shelf mass/thickness */
(PID.TID 0000.0001)                   T
(PID.TID 0000.0001)     ;
(PID.TID 0000.0001) no_slip_shelfice = /* use no slip boundary conditions */
(PID.TID 0000.0001)                   F
(PID.TID 0000.0001)     ;
(PID.TID 0000.0001) SHELFICEdragLinear    = /* linear drag coefficient */
(PID.TID 0000.0001)                 0.000000000000000E+00
(PID.TID 0000.0001)     ;
(PID.TID 0000.0001) SHELFICEdragQuadratic = /* quadratic drag coefficient */
(PID.TID 0000.0001)                 1.500000000000000E-03
(PID.TID 0000.0001)     ;
(PID.TID 0000.0001) SHELFICEselectDragQuadr = /* select quadratic drag option */
(PID.TID 0000.0001)                       1
(PID.TID 0000.0001)     ;
(PID.TID 0000.0001) SHELFICElatentHeat      = /* latent heat of ice */
(PID.TID 0000.0001)                 3.340000000000000E+05
(PID.TID 0000.0001)     ;
(PID.TID 0000.0001) SHELFICEheatCapacity_Cp = /* heat capacity of ice shelf */
(PID.TID 0000.0001)                 2.000000000000000E+03
(PID.TID 0000.0001)     ;
(PID.TID 0000.0001) rhoShelfice   = /* density of ice shelf */
(PID.TID 0000.0001)                 9.170000000000000E+02
(PID.TID 0000.0001)     ;
(PID.TID 0000.0001) SHELFICEkappa = /* thermal conductivity of ice shelf */
(PID.TID 0000.0001)                 1.540000000000000E-06
(PID.TID 0000.0001)     ;
(PID.TID 0000.0001) SHELFICEthetaSurface = /* surface temperature above i.s. */
(PID.TID 0000.0001)                -2.000000000000000E+01
(PID.TID 0000.0001)     ;
(PID.TID 0000.0001) SHELFICEheatTransCoeff = /* heat transfer coefficient */
(PID.TID 0000.0001)                 1.000000000000000E-04
(PID.TID 0000.0001)     ;
(PID.TID 0000.0001) SHELFICEsaltTransCoeff = /* salt transfer coefficient */
(PID.TID 0000.0001)                 5.050000000000000E-07
(PID.TID 0000.0001)     ;
(PID.TID 0000.0001) SHELFICEuseGammaFrict = /* use velocity dependent exchange coefficients */
(PID.TID 0000.0001)                   T
(PID.TID 0000.0001)     ;
(PID.TID 0000.0001) SHI_withBL_uStarTopDz = /* compute uStar from top Dz averaged uVel,vVel */
(PID.TID 0000.0001)                   F
(PID.TID 0000.0001)     ;
(PID.TID 0000.0001) shiCdrag   = /* quadr. drag coefficient for uStar */
(PID.TID 0000.0001)                 1.500000000000000E-03
(PID.TID 0000.0001)     ;
(PID.TID 0000.0001) shiZetaN   = /* parameter for gammaTurb */
(PID.TID 0000.0001)                 5.200000000000000E-02
(PID.TID 0000.0001)     ;
(PID.TID 0000.0001) shiRc      = /* parameter for gammaTurb (not used) */
(PID.TID 0000.0001)                 2.000000000000000E-01
(PID.TID 0000.0001)     ;
(PID.TID 0000.0001) shiPrandtl = /* const. Prandtl No. for gammaTurb */
(PID.TID 0000.0001)                 1.380000000000000E+01
(PID.TID 0000.0001)     ;
(PID.TID 0000.0001) shiSchmidt = /* const. Schmidt No. for gammaTurb */
(PID.TID 0000.0001)                 2.432000000000000E+03
(PID.TID 0000.0001)     ;
(PID.TID 0000.0001) shiKinVisc = /* const. kin. viscosity for gammaTurb */
(PID.TID 0000.0001)                 1.950000000000000E-06
(PID.TID 0000.0001)     ;
(PID.TID 0000.0001) SHELFICEremeshFrequency = /* Frequency (in s) of Remeshing */
(PID.TID 0000.0001)                 0.000000000000000E+00
(PID.TID 0000.0001)     ;
(PID.TID 0000.0001) SHELFICEloadAnomalyFile = /* file name of loaded loadAnomaly field */
(PID.TID 0000.0001)               ''
(PID.TID 0000.0001)     ;
(PID.TID 0000.0001) SHELFICEmassFile = /* file name of loaded mass field */
(PID.TID 0000.0001)               'iceShelf_Mass.obcs'
(PID.TID 0000.0001)     ;
(PID.TID 0000.0001) SHELFICEtopoFile = /* file name of loaded under-ice topography */
(PID.TID 0000.0001)               'icetopo.obcs'
(PID.TID 0000.0001)     ;
(PID.TID 0000.0001) SHELFICEMassDynTendFile = /* file name of loaded dynamic mass tendency field */
(PID.TID 0000.0001)               'iceShelf_MassTend.obcs'
(PID.TID 0000.0001)     ;
(PID.TID 0000.0001) SHELFICEwriteState  = /* do simple standard output */
(PID.TID 0000.0001)                   T
(PID.TID 0000.0001)     ;
(PID.TID 0000.0001) SHELFICE_dump_mdsio = /* use mdsio for snapshots */
(PID.TID 0000.0001)                   T
(PID.TID 0000.0001)     ;
(PID.TID 0000.0001) SHELFICE_tave_mdsio = /* use mdsio for time averages */
(PID.TID 0000.0001)                   T
(PID.TID 0000.0001)     ;
(PID.TID 0000.0001) SHELFICE_dump_mnc   = /* use netcdf for snapshots */
(PID.TID 0000.0001)                   F
(PID.TID 0000.0001)     ;
(PID.TID 0000.0001) SHELFICE_tave_mnc   = /* use netcdf for time averages */
(PID.TID 0000.0001)                   F
(PID.TID 0000.0001)     ;
(PID.TID 0000.0001) SHELFICE_dumpFreq = /* analoguous to dumpFreq */
(PID.TID 0000.0001)                 0.000000000000000E+00
(PID.TID 0000.0001)     ;
(PID.TID 0000.0001) SHELFICE_taveFreq = /* analoguous to taveFreq */
(PID.TID 0000.0001)                 0.000000000000000E+00
(PID.TID 0000.0001)     ;
(PID.TID 0000.0001) SHELFICE_CHECK: end of SHELFICE config. summary
(PID.TID 0000.0001) GAD_CHECK: #define ALLOW_GENERIC_ADVDIFF
(PID.TID 0000.0001) // =======================================================
(PID.TID 0000.0001) // Check Model config. (CONFIG_CHECK):
(PID.TID 0000.0001) // CONFIG_CHECK : Normal End
(PID.TID 0000.0001) // =======================================================
(PID.TID 0000.0001) 
(PID.TID 0000.0001)  MDS_WRITE_FIELD: it,rec,kS,kL,kH=      -1     1   1   1   1 file=XC
(PID.TID 0000.0001)  MDS_WRITE_FIELD: it,rec,kS,kL,kH=      -1     1   1   1   1 file=YC
(PID.TID 0000.0001)  MDS_WRITE_FIELD: it,rec,kS,kL,kH=      -1     1   1   1   1 file=XG
(PID.TID 0000.0001)  MDS_WRITE_FIELD: it,rec,kS,kL,kH=      -1     1   1   1   1 file=YG
(PID.TID 0000.0001)  MDS_WRITE_FIELD: it,rec,kS,kL,kH=      -1     1   1   1   1 file=RAC
(PID.TID 0000.0001)  MDS_WRITE_FIELD: it,rec,kS,kL,kH=      -1     1   1   1   1 file=RAW
(PID.TID 0000.0001)  MDS_WRITE_FIELD: it,rec,kS,kL,kH=      -1     1   1   1   1 file=RAS
(PID.TID 0000.0001)  MDS_WRITE_FIELD: it,rec,kS,kL,kH=      -1     1   1   1   1 file=RAZ
(PID.TID 0000.0001)  MDS_WRITE_FIELD: it,rec,kS,kL,kH=      -1     1   1   1   1 file=DXG
(PID.TID 0000.0001)  MDS_WRITE_FIELD: it,rec,kS,kL,kH=      -1     1   1   1   1 file=DYG
(PID.TID 0000.0001)  MDS_WRITE_FIELD: it,rec,kS,kL,kH=      -1     1   1   1   1 file=DXC
(PID.TID 0000.0001)  MDS_WRITE_FIELD: it,rec,kS,kL,kH=      -1     1   1   1   1 file=DYC
(PID.TID 0000.0001)  MDS_WRITE_FIELD: it,rec,kS,kL,kH=      -1     1   1   1   1 file=DXF
(PID.TID 0000.0001)  MDS_WRITE_FIELD: it,rec,kS,kL,kH=      -1     1   1   1   1 file=DYF
(PID.TID 0000.0001)  MDS_WRITE_FIELD: it,rec,kS,kL,kH=      -1     1   1   1   1 file=DXV
(PID.TID 0000.0001)  MDS_WRITE_FIELD: it,rec,kS,kL,kH=      -1     1   1   1   1 file=DYU
(PID.TID 0000.0001)  MDS_WRITE_FIELD: it,rec,kS,kL,kH=      -1     1   1   1   1 file=Depth
(PID.TID 0000.0001)  MDS_WRITE_FIELD: it,rec,kS,kL,kH=      -1     1   1   1   1 file=rLowC
(PID.TID 0000.0001)  MDS_WRITE_FIELD: it,rec,kS,kL,kH=      -1     1   1   1   1 file=rLowW
(PID.TID 0000.0001)  MDS_WRITE_FIELD: it,rec,kS,kL,kH=      -1     1   1   1   1 file=rLowS
(PID.TID 0000.0001)  MDS_WRITE_FIELD: it,rec,kS,kL,kH=      -1     1   1   1   1 file=rSurfC
(PID.TID 0000.0001)  MDS_WRITE_FIELD: it,rec,kS,kL,kH=      -1     1   1   1   1 file=rSurfW
(PID.TID 0000.0001)  MDS_WRITE_FIELD: it,rec,kS,kL,kH=      -1     1   1   1   1 file=rSurfS
(PID.TID 0000.0001)  MDS_WRITE_FIELD: it,rec,kS,kL,kH=       0     1  30   1  30 file=hFacC
(PID.TID 0000.0001)  MDS_WRITE_FIELD: it,rec,kS,kL,kH=       0     1  30   1  30 file=hFacW
(PID.TID 0000.0001)  MDS_WRITE_FIELD: it,rec,kS,kL,kH=       0     1  30   1  30 file=hFacS
(PID.TID 0000.0001)  MDS_WRITE_FIELD: it,rec,kS,kL,kH=      -1     1   1   1   1 file=maskInC
(PID.TID 0000.0001)  MDS_WRITE_FIELD: it,rec,kS,kL,kH=      -1     1   1   1   1 file=maskInW
(PID.TID 0000.0001)  MDS_WRITE_FIELD: it,rec,kS,kL,kH=      -1     1   1   1   1 file=maskInS
(PID.TID 0000.0001)  MDS_WRITEVEC_LOC: open file: RC.data
(PID.TID 0000.0001)  MDS_WRITEVEC_LOC: open file: RF.data
(PID.TID 0000.0001)  MDS_WRITEVEC_LOC: open file: DRC.data
(PID.TID 0000.0001)  MDS_WRITEVEC_LOC: open file: DRF.data
(PID.TID 0000.0001)  MDS_WRITEVEC_LOC: open file: PHrefF.data
(PID.TID 0000.0001)  MDS_WRITEVEC_LOC: open file: PHrefC.data
(PID.TID 0000.0001) // =======================================================
(PID.TID 0000.0001) // Field Initial Temperature at iteration          1
(PID.TID 0000.0001) // CMIN =         -1.900000000000000E+00
(PID.TID 0000.0001) // CMAX =         -1.900000000000000E+00
(PID.TID 0000.0001) // CINT =          0.000000000000000E+00
(PID.TID 0000.0001) // SYMBOLS (CMIN->CMAX): -abcdefghijklmnopqrstuvwxyz+
(PID.TID 0000.0001) //                  0.0: .
(PID.TID 0000.0001) // RANGE I (Lo:Hi:Step):(     1:    50:     1)
(PID.TID 0000.0001) // RANGE J (Lo:Hi:Step):(   100:     1:    -1)
(PID.TID 0000.0001) // RANGE K (Lo:Hi:Step):(   1:   1:   1)
(PID.TID 0000.0001) // =======================================================
(PID.TID 0000.0001) // =======================================================
(PID.TID 0000.0001) // END OF FIELD                                          =
(PID.TID 0000.0001) // =======================================================
(PID.TID 0000.0001) 
(PID.TID 0000.0001) // =======================================================
(PID.TID 0000.0001) // Field Initial Salinity at iteration          1
(PID.TID 0000.0001) // CMIN =          3.440000000000000E+01
(PID.TID 0000.0001) // CMAX =          3.440000000000000E+01
(PID.TID 0000.0001) // CINT =          0.000000000000000E+00
(PID.TID 0000.0001) // SYMBOLS (CMIN->CMAX): -abcdefghijklmnopqrstuvwxyz+
(PID.TID 0000.0001) //                  0.0: .
(PID.TID 0000.0001) // RANGE I (Lo:Hi:Step):(     1:    50:     1)
(PID.TID 0000.0001) // RANGE J (Lo:Hi:Step):(   100:     1:    -1)
(PID.TID 0000.0001) // RANGE K (Lo:Hi:Step):(   1:   1:   1)
(PID.TID 0000.0001) // =======================================================
(PID.TID 0000.0001) // =======================================================
(PID.TID 0000.0001) // END OF FIELD                                          =
(PID.TID 0000.0001) // =======================================================
(PID.TID 0000.0001) 
(PID.TID 0000.0001) Start initial hydrostatic pressure computation
(PID.TID 0000.0001) Pressure is predetermined for buoyancyRelation OCEANIC
(PID.TID 0000.0001) 
(PID.TID 0000.0001)  write diagnostics summary to file ioUnit:      6
Iter.Nb:         0 ; Time(s):  0.0000000000000E+00
------------------------------------------------------------------------
2D/3D diagnostics: Number of lists:     1
------------------------------------------------------------------------
listId=    1 ; file name: dynDiag
 nFlds, nActive,       freq     &     phase        , nLev               
    9  |    9  |   5184000.000000         0.000000 |  30
 levels:   1   2   3   4   5   6   7   8   9  10  11  12  13  14  15  16  17  18  19  20  21  22  23  24  25
 levels:  26  27  28  29  30
 diag# | name   |   ipt  |  iMate | kLev|   count |   mate.C|           
    30 |UVEL    |      1 |     31 |  30 |       0 |       0 |
    31 |VVEL    |     31 |      1 |  30 |       0 |       0 |
    32 |WVEL    |     61 |      0 |  30 |       0 |
    71 |PHIHYD  |     91 |      0 |  30 |       0 |
    46 |VVELMASS|    121 |    151 |  30 |       0 |       0 |
    45 |UVELMASS|    151 |    121 |  30 |       0 |       0 |
    38 |WVELSQ  |    181 |      0 |  30 |       0 |
    26 |THETA   |    211 |      0 |  30 |       0 |
    27 |SALT    |    241 |      0 |  30 |       0 |
------------------------------------------------------------------------
Global & Regional Statistics diagnostics: Number of lists:     1
------------------------------------------------------------------------
listId=   1 ; file name: dynStDiag
 nFlds, nActive,       freq     &     phase        |                    
    6  |    6  |     86400.000000         0.000000 |
 Regions:   0  1  2
 diag# | name   |   ipt  |  iMate |    Volume   |   mate-Vol. |         
    23 |ETAN    |      1 |      0 | 0.00000E+00 |
    30 |UVEL    |      2 |      0 | 0.00000E+00 |
    31 |VVEL    |     32 |      0 | 0.00000E+00 |
    32 |WVEL    |     62 |      0 | 0.00000E+00 |
    26 |THETA   |     92 |      0 | 0.00000E+00 |
    27 |SALT    |    122 |      0 | 0.00000E+00 |
------------------------------------------------------------------------
(PID.TID 0000.0001)  OBCS_FIELDS_LOAD: Reading initial data:         0  0.000000000000E+00
(PID.TID 0000.0001) OBCS_balance (it=        0 ) correct for netFreshWaterFlux:  0.00000000E+00
(PID.TID 0000.0001) OBCS_balance (it=        0 ) correct for shelfIceNetMassFlux:  3.64192118E+08
(PID.TID 0000.0001) OBCS_balance (it=        0 ) correct for inFlow:  0.00000000E+00  0.00000000E+00
(PID.TID 0000.0001) OBCS_balance correction to OBEu,OBWu:  7.06241467E-04 -7.06241467E-04
(PID.TID 0000.0001) OBCS_balance correction to OBNv,OBSv:  7.06241467E-04 -7.06241467E-04
(PID.TID 0000.0001) // =======================================================
(PID.TID 0000.0001) // Model current state
(PID.TID 0000.0001) // =======================================================
(PID.TID 0000.0001) 
(PID.TID 0000.0001) // =======================================================
(PID.TID 0000.0001) // Begin MONITOR dynamic field statistics
(PID.TID 0000.0001) // =======================================================
(PID.TID 0000.0001) %MON time_tsnumber                =                     0
(PID.TID 0000.0001) %MON time_secondsf                =   0.0000000000000E+00
(PID.TID 0000.0001) %MON dynstat_eta_max              =   0.0000000000000E+00
(PID.TID 0000.0001) %MON dynstat_eta_min              =   0.0000000000000E+00
(PID.TID 0000.0001) %MON dynstat_eta_mean             =   0.0000000000000E+00
(PID.TID 0000.0001) %MON dynstat_eta_sd               =   0.0000000000000E+00
(PID.TID 0000.0001) %MON dynstat_eta_del2             =   0.0000000000000E+00
(PID.TID 0000.0001) %MON dynstat_uvel_max             =   0.0000000000000E+00
(PID.TID 0000.0001) %MON dynstat_uvel_min             =   0.0000000000000E+00
(PID.TID 0000.0001) %MON dynstat_uvel_mean            =   0.0000000000000E+00
(PID.TID 0000.0001) %MON dynstat_uvel_sd              =   0.0000000000000E+00
(PID.TID 0000.0001) %MON dynstat_uvel_del2            =   0.0000000000000E+00
(PID.TID 0000.0001) %MON dynstat_vvel_max             =   7.0624146672441E-04
(PID.TID 0000.0001) %MON dynstat_vvel_min             =   0.0000000000000E+00
(PID.TID 0000.0001) %MON dynstat_vvel_mean            =   1.1477303311954E-05
(PID.TID 0000.0001) %MON dynstat_vvel_sd              =   8.9297362972039E-05
(PID.TID 0000.0001) %MON dynstat_vvel_del2            =   2.3788474409353E-07
(PID.TID 0000.0001) %MON dynstat_wvel_max             =   0.0000000000000E+00
(PID.TID 0000.0001) %MON dynstat_wvel_min             =  -3.8116482626444E-20
(PID.TID 0000.0001) %MON dynstat_wvel_mean            =  -3.1068016339291E-22
(PID.TID 0000.0001) %MON dynstat_wvel_sd              =   2.7933051764077E-21
(PID.TID 0000.0001) %MON dynstat_wvel_del2            =   1.6988697427023E-23
(PID.TID 0000.0001) %MON dynstat_theta_max            =  -1.9000000000000E+00
(PID.TID 0000.0001) %MON dynstat_theta_min            =  -1.9000000000000E+00
(PID.TID 0000.0001) %MON dynstat_theta_mean           =  -1.9000000000001E+00
(PID.TID 0000.0001) %MON dynstat_theta_sd             =   1.1368683772162E-13
(PID.TID 0000.0001) %MON dynstat_theta_del2           =   0.0000000000000E+00
(PID.TID 0000.0001) %MON dynstat_salt_max             =   3.5273743990000E+01
(PID.TID 0000.0001) %MON dynstat_salt_min             =   3.4400000000000E+01
(PID.TID 0000.0001) %MON dynstat_salt_mean            =   3.4758300967351E+01
(PID.TID 0000.0001) %MON dynstat_salt_sd              =   2.9908761849888E-01
(PID.TID 0000.0001) %MON dynstat_salt_del2            =   0.0000000000000E+00
(PID.TID 0000.0001) %MON trAdv_CFL_u_max              =   0.0000000000000E+00
(PID.TID 0000.0001) %MON trAdv_CFL_v_max              =   0.0000000000000E+00
(PID.TID 0000.0001) %MON trAdv_CFL_w_max              =   0.0000000000000E+00
(PID.TID 0000.0001) %MON advcfl_uvel_max              =   0.0000000000000E+00
(PID.TID 0000.0001) %MON advcfl_vvel_max              =   1.1434282519433E-04
(PID.TID 0000.0001) %MON advcfl_wvel_max              =   4.5739779151732E-18
(PID.TID 0000.0001) %MON advcfl_W_hf_max              =   2.2107559923337E-18
(PID.TID 0000.0001) %MON pe_b_mean                    =   0.0000000000000E+00
(PID.TID 0000.0001) %MON ke_max                       =   1.2499564388917E-07
(PID.TID 0000.0001) %MON ke_mean                      =   2.0326669033501E-09
(PID.TID 0000.0001) %MON ke_vol                       =   3.4145786752861E+14
(PID.TID 0000.0001) %MON vort_r_min                   =  -6.2208789959684E-08
(PID.TID 0000.0001) %MON vort_r_max                   =   6.2208789959684E-08
(PID.TID 0000.0001) %MON vort_a_mean                  =  -1.3992981969631E-04
(PID.TID 0000.0001) %MON vort_a_sd                    =   1.7365072537249E-06
(PID.TID 0000.0001) %MON vort_p_mean                  =  -1.4746660593269E-04
(PID.TID 0000.0001) %MON vort_p_sd                    =   7.7973631916445E-05
(PID.TID 0000.0001) %MON surfExpan_theta_mean         =   9.7070810045309E-22
(PID.TID 0000.0001) %MON surfExpan_salt_mean          =  -1.7574925608203E-20
(PID.TID 0000.0001) // =======================================================
(PID.TID 0000.0001) // End MONITOR dynamic field statistics
(PID.TID 0000.0001) // =======================================================
(PID.TID 0000.0001)  MDS_WRITE_FIELD: it,rec,kS,kL,kH=       0     1  30   1  30 file=U.0000000000
(PID.TID 0000.0001)  MDS_WRITE_FIELD: it,rec,kS,kL,kH=       0     1  30   1  30 file=V.0000000000
(PID.TID 0000.0001)  MDS_WRITE_FIELD: it,rec,kS,kL,kH=       0     1  30   1  30 file=T.0000000000
(PID.TID 0000.0001)  MDS_WRITE_FIELD: it,rec,kS,kL,kH=       0     1  30   1  30 file=S.0000000000
(PID.TID 0000.0001)  MDS_WRITE_FIELD: it,rec,kS,kL,kH=       0     1   1   1   1 file=Eta.0000000000
(PID.TID 0000.0001)  MDS_WRITE_FIELD: it,rec,kS,kL,kH=       0     1  30   1  30 file=W.0000000000
(PID.TID 0000.0001) // =======================================================
(PID.TID 0000.0001) // Begin OBCS MONITOR field statistics
(PID.TID 0000.0001) // =======================================================
(PID.TID 0000.0001) %MON obc_time_tsnumber            =                     0
(PID.TID 0000.0001) %MON obc_time_secondsf            =   0.0000000000000E+00
(PID.TID 0000.0001) %MON obc_N_vVel_max               =   7.0624146672441E-04
(PID.TID 0000.0001) %MON obc_N_vVel_min               =   7.0624146672441E-04
(PID.TID 0000.0001) %MON obc_N_vVel_mean              =   7.0624146672440E-04
(PID.TID 0000.0001) %MON obc_N_vVel_sd                =  -5.3998350387462E-21
(PID.TID 0000.0001) %MON obc_N_vVel_Int               =   3.5358458052541E+05
(PID.TID 0000.0001) %MON obc_N_theta_max              =  -1.9000000000000E+00
(PID.TID 0000.0001) %MON obc_N_theta_min              =  -1.9000000000000E+00
(PID.TID 0000.0001) %MON obc_N_theta_mean             =  -1.9000000000000E+00
(PID.TID 0000.0001) %MON obc_N_theta_sd               =   1.1733186057228E-07
(PID.TID 0000.0001) // =======================================================
(PID.TID 0000.0001) // End OBCS MONITOR field statistics
(PID.TID 0000.0001) // =======================================================
(PID.TID 0000.0001) OBCS_balance (it=        1 ) correct for netFreshWaterFlux:  0.00000000E+00
(PID.TID 0000.0001) OBCS_balance (it=        1 ) correct for shelfIceNetMassFlux:  3.63969872E+08
(PID.TID 0000.0001) OBCS_balance (it=        1 ) correct for inFlow:  0.00000000E+00  0.00000000E+00
(PID.TID 0000.0001) OBCS_balance correction to OBEu,OBWu:  7.05810488E-04 -7.05810488E-04
(PID.TID 0000.0001) OBCS_balance correction to OBNv,OBSv:  7.05810488E-04 -7.05810488E-04
(PID.TID 0000.0001) SOLVE_FOR_PRESSURE: putPmEinXvector =    F
(PID.TID 0000.0001) SOLVE_FOR_PRESSURE: zeroPsNH=    F , zeroMeanPnh=    F
(PID.TID 0000.0001) SOLVE_FOR_PRESSURE: oldFreeSurfTerm =    F
 cg2d: Sum(rhs),rhsMax =   1.93045792961685E+01  8.80201897128457E-03
(PID.TID 0000.0001)      cg2d_init_res =   1.10554823376463E+01
(PID.TID 0000.0001)      cg2d_iters(min,last) =      -1     215
(PID.TID 0000.0001)      cg2d_last_res =   8.65052938967349E-14
(PID.TID 0000.0001) // =======================================================
(PID.TID 0000.0001) // Begin MONITOR dynamic field statistics
(PID.TID 0000.0001) // =======================================================
(PID.TID 0000.0001) %MON time_tsnumber                =                     1
(PID.TID 0000.0001) %MON time_secondsf                =   1.8000000000000E+03
(PID.TID 0000.0001) %MON dynstat_eta_max              =   3.4925783756777E-02
(PID.TID 0000.0001) %MON dynstat_eta_min              =  -7.8899542496324E-03
(PID.TID 0000.0001) %MON dynstat_eta_mean             =  -1.3818375820761E-03
(PID.TID 0000.0001) %MON dynstat_eta_sd               =   6.5475508197627E-03
(PID.TID 0000.0001) %MON dynstat_eta_del2             =   4.6543914699666E-06
(PID.TID 0000.0001) %MON dynstat_uvel_max             =   1.7014811824019E-05
(PID.TID 0000.0001) %MON dynstat_uvel_min             =  -8.5506233163708E-05
(PID.TID 0000.0001) %MON dynstat_uvel_mean            =  -6.3228509354950E-07
(PID.TID 0000.0001) %MON dynstat_uvel_sd              =   1.0373822655853E-05
(PID.TID 0000.0001) %MON dynstat_uvel_del2            =   6.3772481849952E-08
(PID.TID 0000.0001) %MON dynstat_vvel_max             =   7.0581048788336E-04
(PID.TID 0000.0001) %MON dynstat_vvel_min             =  -3.3581031884785E-03
(PID.TID 0000.0001) %MON dynstat_vvel_mean            =  -1.7115002149808E-04
(PID.TID 0000.0001) %MON dynstat_vvel_sd              =   8.5627961117127E-04
(PID.TID 0000.0001) %MON dynstat_vvel_del2            =   5.6703299731819E-08
(PID.TID 0000.0001) %MON dynstat_wvel_max             =   2.1682322914036E-18
(PID.TID 0000.0001) %MON dynstat_wvel_min             =  -3.5186360150350E-06
(PID.TID 0000.0001) %MON dynstat_wvel_mean            =  -1.8112759360699E-07
(PID.TID 0000.0001) %MON dynstat_wvel_sd              =   5.0622226074950E-07
(PID.TID 0000.0001) %MON dynstat_wvel_del2            =   7.5731320584613E-10
(PID.TID 0000.0001) %MON dynstat_theta_max            =  -1.9000000000000E+00
(PID.TID 0000.0001) %MON dynstat_theta_min            =  -1.9000120454613E+00
(PID.TID 0000.0001) %MON dynstat_theta_mean           =  -1.9000001060874E+00
(PID.TID 0000.0001) %MON dynstat_theta_sd             =   8.1090924869834E-07
(PID.TID 0000.0001) %MON dynstat_theta_del2           =   9.6450157977788E-10
(PID.TID 0000.0001) %MON dynstat_salt_max             =   3.5273739621717E+01
(PID.TID 0000.0001) %MON dynstat_salt_min             =   3.4399998474623E+01
(PID.TID 0000.0001) %MON dynstat_salt_mean            =   3.4758300927907E+01
(PID.TID 0000.0001) %MON dynstat_salt_sd              =   2.9908715555835E-01
(PID.TID 0000.0001) %MON dynstat_salt_del2            =   7.0589046279989E-09
(PID.TID 0000.0001) %MON trAdv_CFL_u_max              =   0.0000000000000E+00
(PID.TID 0000.0001) %MON trAdv_CFL_v_max              =   1.1461919689304E-04
(PID.TID 0000.0001) %MON trAdv_CFL_w_max              =   2.2107559923337E-18
(PID.TID 0000.0001) %MON advcfl_uvel_max              =   1.3589927897176E-05
(PID.TID 0000.0001) %MON advcfl_vvel_max              =   5.4368799335107E-04
(PID.TID 0000.0001) %MON advcfl_wvel_max              =   2.1111816090210E-04
(PID.TID 0000.0001) %MON advcfl_W_hf_max              =   5.2044067852977E-04
(PID.TID 0000.0001) %MON pe_b_mean                    =  -3.1794239374500E-07
(PID.TID 0000.0001) %MON ke_max                       =   5.6085950671390E-06
(PID.TID 0000.0001) %MON ke_mean                      =   3.8044838563956E-07
(PID.TID 0000.0001) %MON ke_vol                       =   3.4145786752861E+14
(PID.TID 0000.0001) %MON vort_r_min                   =  -5.2960786481450E-07
(PID.TID 0000.0001) %MON vort_r_max                   =   5.2960762044060E-07
(PID.TID 0000.0001) %MON vort_a_mean                  =  -1.3992981969631E-04
(PID.TID 0000.0001) %MON vort_a_sd                    =   1.7366951629507E-06
(PID.TID 0000.0001) %MON vort_p_mean                  =  -1.4746660593269E-04
(PID.TID 0000.0001) %MON vort_p_sd                    =   7.7973708272776E-05
(PID.TID 0000.0001) %MON surfExpan_theta_mean         =   1.4586055063115E-06
(PID.TID 0000.0001) %MON surfExpan_salt_mean          =  -2.6452313869819E-05
(PID.TID 0000.0001) // =======================================================
(PID.TID 0000.0001) // End MONITOR dynamic field statistics
(PID.TID 0000.0001) // =======================================================
(PID.TID 0000.0001) // =======================================================
(PID.TID 0000.0001) // Begin OBCS MONITOR field statistics
(PID.TID 0000.0001) // =======================================================
(PID.TID 0000.0001) %MON obc_time_tsnumber            =                     1
(PID.TID 0000.0001) %MON obc_time_secondsf            =   1.8000000000000E+03
(PID.TID 0000.0001) %MON obc_N_vVel_max               =   7.0581048788336E-04
(PID.TID 0000.0001) %MON obc_N_vVel_min               =   7.0581048788336E-04
(PID.TID 0000.0001) %MON obc_N_vVel_mean              =   7.0581048788335E-04
(PID.TID 0000.0001) %MON obc_N_vVel_sd                =  -1.3764285392882E-21
(PID.TID 0000.0001) %MON obc_N_vVel_Int               =   3.5336880804545E+05
(PID.TID 0000.0001) %MON obc_N_theta_max              =  -1.9000000000000E+00
(PID.TID 0000.0001) %MON obc_N_theta_min              =  -1.9000000000000E+00
(PID.TID 0000.0001) %MON obc_N_theta_mean             =  -1.9000000000000E+00
(PID.TID 0000.0001) %MON obc_N_theta_sd               =   1.1733186057228E-07
(PID.TID 0000.0001) // =======================================================
(PID.TID 0000.0001) // End OBCS MONITOR field statistics
(PID.TID 0000.0001) // =======================================================
(PID.TID 0000.0001) OBCS_balance (it=        2 ) correct for netFreshWaterFlux:  0.00000000E+00
(PID.TID 0000.0001) OBCS_balance (it=        2 ) correct for shelfIceNetMassFlux:  3.63823631E+08
(PID.TID 0000.0001) OBCS_balance (it=        2 ) correct for inFlow:  0.00000000E+00  0.00000000E+00
(PID.TID 0000.0001) OBCS_balance correction to OBEu,OBWu:  7.05526897E-04 -7.05526897E-04
(PID.TID 0000.0001) OBCS_balance correction to OBNv,OBSv:  7.05526897E-04 -7.05526897E-04
 cg2d: Sum(rhs),rhsMax =   1.46993233617767E+01  2.31146880222926E-02
(PID.TID 0000.0001)      cg2d_init_res =   6.04841546085647E+00
(PID.TID 0000.0001)      cg2d_iters(min,last) =      -1     218
(PID.TID 0000.0001)      cg2d_last_res =   9.53548571897131E-14
(PID.TID 0000.0001) // =======================================================
(PID.TID 0000.0001) // Begin MONITOR dynamic field statistics
(PID.TID 0000.0001) // =======================================================
(PID.TID 0000.0001) %MON time_tsnumber                =                     2
(PID.TID 0000.0001) %MON time_secondsf                =   3.6000000000000E+03
(PID.TID 0000.0001) %MON dynstat_eta_max              =   6.4613348439686E-02
(PID.TID 0000.0001) %MON dynstat_eta_min              =  -1.7890600431565E-02
(PID.TID 0000.0001) %MON dynstat_eta_mean             =  -2.7631199484407E-03
(PID.TID 0000.0001) %MON dynstat_eta_sd               =   1.2864829988712E-02
(PID.TID 0000.0001) %MON dynstat_eta_del2             =   1.0888425343025E-05
(PID.TID 0000.0001) %MON dynstat_uvel_max             =   9.5053885322123E-04
(PID.TID 0000.0001) %MON dynstat_uvel_min             =  -5.6056198185445E-04
(PID.TID 0000.0001) %MON dynstat_uvel_mean            =   2.6639876233233E-05
(PID.TID 0000.0001) %MON dynstat_uvel_sd              =   1.7859761012137E-04
(PID.TID 0000.0001) %MON dynstat_uvel_del2            =   1.4296073927019E-07
(PID.TID 0000.0001) %MON dynstat_vvel_max             =   7.5569353070363E-04
(PID.TID 0000.0001) %MON dynstat_vvel_min             =  -3.5556996213307E-03
(PID.TID 0000.0001) %MON dynstat_vvel_mean            =  -1.6594416086965E-04
(PID.TID 0000.0001) %MON dynstat_vvel_sd              =   1.0079967931081E-03
(PID.TID 0000.0001) %MON dynstat_vvel_del2            =   4.8406740762515E-08
(PID.TID 0000.0001) %MON dynstat_wvel_max             =   2.9925186734239E-08
(PID.TID 0000.0001) %MON dynstat_wvel_min             =  -4.3188903866910E-06
(PID.TID 0000.0001) %MON dynstat_wvel_mean            =  -2.2834238561998E-07
(PID.TID 0000.0001) %MON dynstat_wvel_sd              =   5.9045581630661E-07
(PID.TID 0000.0001) %MON dynstat_wvel_del2            =   1.4135018379998E-09
(PID.TID 0000.0001) %MON dynstat_theta_max            =  -1.9000000000000E+00
(PID.TID 0000.0001) %MON dynstat_theta_min            =  -1.9000466753859E+00
(PID.TID 0000.0001) %MON dynstat_theta_mean           =  -1.9000003239046E+00
(PID.TID 0000.0001) %MON dynstat_theta_sd             =   2.8008791538371E-06
(PID.TID 0000.0001) %MON dynstat_theta_del2           =   3.4700218365892E-09
(PID.TID 0000.0001) %MON dynstat_salt_max             =   3.5273735263639E+01
(PID.TID 0000.0001) %MON dynstat_salt_min             =   3.4399996964882E+01
(PID.TID 0000.0001) %MON dynstat_salt_mean            =   3.4758300666624E+01
(PID.TID 0000.0001) %MON dynstat_salt_sd              =   2.9908657157980E-01
(PID.TID 0000.0001) %MON dynstat_salt_del2            =   1.4603829799827E-08
(PID.TID 0000.0001) %MON trAdv_CFL_u_max              =   1.3589929622062E-05
(PID.TID 0000.0001) %MON trAdv_CFL_v_max              =   5.4125830567095E-04
(PID.TID 0000.0001) %MON trAdv_CFL_w_max              =   5.2044067852977E-04
(PID.TID 0000.0001) %MON advcfl_uvel_max              =   2.7005189582975E-04
(PID.TID 0000.0001) %MON advcfl_vvel_max              =   5.7567950821558E-04
(PID.TID 0000.0001) %MON advcfl_wvel_max              =   2.5913342320146E-04
(PID.TID 0000.0001) %MON advcfl_W_hf_max              =   7.2156015562871E-04
(PID.TID 0000.0001) %MON pe_b_mean                    =  -1.4041611492085E-06
(PID.TID 0000.0001) %MON ke_max                       =   6.4191385579873E-06
(PID.TID 0000.0001) %MON ke_mean                      =   5.3734376444007E-07
(PID.TID 0000.0001) %MON ke_vol                       =   3.4145723146476E+14
(PID.TID 0000.0001) %MON vort_r_min                   =  -5.4406444321414E-07
(PID.TID 0000.0001) %MON vort_r_max                   =   5.5102487631526E-07
(PID.TID 0000.0001) %MON vort_a_mean                  =  -1.3992981969631E-04
(PID.TID 0000.0001) %MON vort_a_sd                    =   1.7367874689100E-06
(PID.TID 0000.0001) %MON vort_p_mean                  =  -1.4746688607077E-04
(PID.TID 0000.0001) %MON vort_p_sd                    =   7.7975484531799E-05
(PID.TID 0000.0001) %MON surfExpan_theta_mean         =   1.4580169409162E-06
(PID.TID 0000.0001) %MON surfExpan_salt_mean          =  -2.6396411068911E-05
(PID.TID 0000.0001) // =======================================================
(PID.TID 0000.0001) // End MONITOR dynamic field statistics
(PID.TID 0000.0001) // =======================================================
(PID.TID 0000.0001) // =======================================================
(PID.TID 0000.0001) // Begin OBCS MONITOR field statistics
(PID.TID 0000.0001) // =======================================================
(PID.TID 0000.0001) %MON obc_time_tsnumber            =                     2
(PID.TID 0000.0001) %MON obc_time_secondsf            =   3.6000000000000E+03
(PID.TID 0000.0001) %MON obc_N_vVel_max               =   7.0552689661531E-04
(PID.TID 0000.0001) %MON obc_N_vVel_min               =   7.0552689661531E-04
(PID.TID 0000.0001) %MON obc_N_vVel_mean              =   7.0552689661530E-04
(PID.TID 0000.0001) %MON obc_N_vVel_sd                =  -5.2939559203394E-21
(PID.TID 0000.0001) %MON obc_N_vVel_Int               =   3.5322682615358E+05
(PID.TID 0000.0001) %MON obc_N_theta_max              =  -1.9000000000000E+00
(PID.TID 0000.0001) %MON obc_N_theta_min              =  -1.9000000000000E+00
(PID.TID 0000.0001) %MON obc_N_theta_mean             =  -1.9000000000000E+00
(PID.TID 0000.0001) %MON obc_N_theta_sd               =   1.1733186057228E-07
(PID.TID 0000.0001) // =======================================================
(PID.TID 0000.0001) // End OBCS MONITOR field statistics
(PID.TID 0000.0001) // =======================================================
(PID.TID 0000.0001) OBCS_balance (it=        3 ) correct for netFreshWaterFlux:  0.00000000E+00
(PID.TID 0000.0001) OBCS_balance (it=        3 ) correct for shelfIceNetMassFlux:  3.63796230E+08
(PID.TID 0000.0001) OBCS_balance (it=        3 ) correct for inFlow:  0.00000000E+00  0.00000000E+00
(PID.TID 0000.0001) OBCS_balance correction to OBEu,OBWu:  7.05473760E-04 -7.05473760E-04
(PID.TID 0000.0001) OBCS_balance correction to OBNv,OBSv:  7.05473760E-04 -7.05473760E-04
 cg2d: Sum(rhs),rhsMax =   1.59775152127124E+01  3.18953526281116E-02
(PID.TID 0000.0001)      cg2d_init_res =   2.69554619610688E+00
(PID.TID 0000.0001)      cg2d_iters(min,last) =      -1     214
(PID.TID 0000.0001)      cg2d_last_res =   8.46965450680783E-14
(PID.TID 0000.0001) // =======================================================
(PID.TID 0000.0001) // Begin MONITOR dynamic field statistics
(PID.TID 0000.0001) // =======================================================
(PID.TID 0000.0001) %MON time_tsnumber                =                     3
(PID.TID 0000.0001) %MON time_secondsf                =   5.4000000000000E+03
(PID.TID 0000.0001) %MON dynstat_eta_max              =   7.8716639698742E-02
(PID.TID 0000.0001) %MON dynstat_eta_min              =  -2.3241774162246E-02
(PID.TID 0000.0001) %MON dynstat_eta_mean             =  -4.1442982840411E-03
(PID.TID 0000.0001) %MON dynstat_eta_sd               =   1.6557748398911E-02
(PID.TID 0000.0001) %MON dynstat_eta_del2             =   1.4965247599042E-05
(PID.TID 0000.0001) %MON dynstat_uvel_max             =   1.0156613149965E-03
(PID.TID 0000.0001) %MON dynstat_uvel_min             =  -1.1518401606346E-03
(PID.TID 0000.0001) %MON dynstat_uvel_mean            =   5.3005115892663E-06
(PID.TID 0000.0001) %MON dynstat_uvel_sd              =   2.0129844384922E-04
(PID.TID 0000.0001) %MON dynstat_uvel_del2            =   2.0889354619782E-07
(PID.TID 0000.0001) %MON dynstat_vvel_max             =   8.0130326793155E-04
(PID.TID 0000.0001) %MON dynstat_vvel_min             =  -2.6555190507876E-03
(PID.TID 0000.0001) %MON dynstat_vvel_mean            =  -2.9259629475105E-05
(PID.TID 0000.0001) %MON dynstat_vvel_sd              =   7.6291146704013E-04
(PID.TID 0000.0001) %MON dynstat_vvel_del2            =   3.7091273615273E-08
(PID.TID 0000.0001) %MON dynstat_wvel_max             =   1.0987244444288E-06
(PID.TID 0000.0001) %MON dynstat_wvel_min             =  -8.4680680369359E-06
(PID.TID 0000.0001) %MON dynstat_wvel_mean            =  -1.6743054404761E-07
(PID.TID 0000.0001) %MON dynstat_wvel_sd              =   4.5530437663571E-07
(PID.TID 0000.0001) %MON dynstat_wvel_del2            =   1.8919650184444E-09
(PID.TID 0000.0001) %MON dynstat_theta_max            =  -1.9000000000000E+00
(PID.TID 0000.0001) %MON dynstat_theta_min            =  -1.9000747554545E+00
(PID.TID 0000.0001) %MON dynstat_theta_mean           =  -1.9000005207468E+00
(PID.TID 0000.0001) %MON dynstat_theta_sd             =   4.5031927105843E-06
(PID.TID 0000.0001) %MON dynstat_theta_del2           =   5.5355143265203E-09
(PID.TID 0000.0001) %MON dynstat_salt_max             =   3.5273730917038E+01
(PID.TID 0000.0001) %MON dynstat_salt_min             =   3.4399995475621E+01
(PID.TID 0000.0001) %MON dynstat_salt_mean            =   3.4758300625303E+01
(PID.TID 0000.0001) %MON dynstat_salt_sd              =   2.9908610330120E-01
(PID.TID 0000.0001) %MON dynstat_salt_del2            =   2.2449391161112E-08
(PID.TID 0000.0001) %MON trAdv_CFL_u_max              =   2.7005193010572E-04
(PID.TID 0000.0001) %MON trAdv_CFL_v_max              =   5.7317785692421E-04
(PID.TID 0000.0001) %MON trAdv_CFL_w_max              =   7.2156015562871E-04
(PID.TID 0000.0001) %MON advcfl_uvel_max              =   3.5274200222022E-04
(PID.TID 0000.0001) %MON advcfl_vvel_max              =   4.2993730180234E-04
(PID.TID 0000.0001) %MON advcfl_wvel_max              =   5.0808408221615E-04
(PID.TID 0000.0001) %MON advcfl_W_hf_max              =   6.6770347585207E-04
(PID.TID 0000.0001) %MON pe_b_mean                    =  -2.9379203331260E-06
(PID.TID 0000.0001) %MON ke_max                       =   3.5170377360384E-06
(PID.TID 0000.0001) %MON ke_mean                      =   3.1017352483166E-07
(PID.TID 0000.0001) %MON ke_vol                       =   3.4145659565647E+14
(PID.TID 0000.0001) %MON vort_r_min                   =  -3.8933773166105E-07
(PID.TID 0000.0001) %MON vort_r_max                   =   3.7233333131533E-07
(PID.TID 0000.0001) %MON vort_a_mean                  =  -1.3992981969631E-04
(PID.TID 0000.0001) %MON vort_a_sd                    =   1.7366223558897E-06
(PID.TID 0000.0001) %MON vort_p_mean                  =  -1.4746716694491E-04
(PID.TID 0000.0001) %MON vort_p_sd                    =   7.7971057117129E-05
(PID.TID 0000.0001) %MON surfExpan_theta_mean         =   1.4579071042125E-06
(PID.TID 0000.0001) %MON surfExpan_salt_mean          =  -2.6461736163639E-05
(PID.TID 0000.0001) // =======================================================
(PID.TID 0000.0001) // End MONITOR dynamic field statistics
(PID.TID 0000.0001) // =======================================================
(PID.TID 0000.0001) // =======================================================
(PID.TID 0000.0001) // Begin OBCS MONITOR field statistics
(PID.TID 0000.0001) // =======================================================
(PID.TID 0000.0001) %MON obc_time_tsnumber            =                     3
(PID.TID 0000.0001) %MON obc_time_secondsf            =   5.4000000000000E+03
(PID.TID 0000.0001) %MON obc_N_vVel_max               =   7.0547376012122E-04
(PID.TID 0000.0001) %MON obc_N_vVel_min               =   7.0547376012122E-04
(PID.TID 0000.0001) %MON obc_N_vVel_mean              =   7.0547376012120E-04
(PID.TID 0000.0001) %MON obc_N_vVel_sd                =   1.0840932682732E-10
(PID.TID 0000.0001) %MON obc_N_vVel_Int               =   3.5320022300741E+05
(PID.TID 0000.0001) %MON obc_N_theta_max              =  -1.9000000000000E+00
(PID.TID 0000.0001) %MON obc_N_theta_min              =  -1.9000000000000E+00
(PID.TID 0000.0001) %MON obc_N_theta_mean             =  -1.9000000000000E+00
(PID.TID 0000.0001) %MON obc_N_theta_sd               =   1.1733186057228E-07
(PID.TID 0000.0001) // =======================================================
(PID.TID 0000.0001) // End OBCS MONITOR field statistics
(PID.TID 0000.0001) // =======================================================
(PID.TID 0000.0001) OBCS_balance (it=        4 ) correct for netFreshWaterFlux:  0.00000000E+00
(PID.TID 0000.0001) OBCS_balance (it=        4 ) correct for shelfIceNetMassFlux:  3.63906443E+08
(PID.TID 0000.0001) OBCS_balance (it=        4 ) correct for inFlow:  0.00000000E+00  0.00000000E+00
(PID.TID 0000.0001) OBCS_balance correction to OBEu,OBWu:  7.05687485E-04 -7.05687485E-04
(PID.TID 0000.0001) OBCS_balance correction to OBNv,OBSv:  7.05687485E-04 -7.05687485E-04
 cg2d: Sum(rhs),rhsMax =   1.68410198901553E+01  4.03478024125270E-02
(PID.TID 0000.0001)      cg2d_init_res =   2.11068231819448E+00
(PID.TID 0000.0001)      cg2d_iters(min,last) =      -1     215
(PID.TID 0000.0001)      cg2d_last_res =   9.52796997596696E-14
(PID.TID 0000.0001) // =======================================================
(PID.TID 0000.0001) // Begin MONITOR dynamic field statistics
(PID.TID 0000.0001) // =======================================================
(PID.TID 0000.0001) %MON time_tsnumber                =                     4
(PID.TID 0000.0001) %MON time_secondsf                =   7.2000000000000E+03
(PID.TID 0000.0001) %MON dynstat_eta_max              =   7.8569108601224E-02
(PID.TID 0000.0001) %MON dynstat_eta_min              =  -2.3529011040041E-02
(PID.TID 0000.0001) %MON dynstat_eta_mean             =  -5.5258950513068E-03
(PID.TID 0000.0001) %MON dynstat_eta_sd               =   1.7543478827969E-02
(PID.TID 0000.0001) %MON dynstat_eta_del2             =   1.9041364020567E-05
(PID.TID 0000.0001) %MON dynstat_uvel_max             =   5.7467471614906E-04
(PID.TID 0000.0001) %MON dynstat_uvel_min             =  -1.9084172956242E-03
(PID.TID 0000.0001) %MON dynstat_uvel_mean            =  -3.8023371554425E-05
(PID.TID 0000.0001) %MON dynstat_uvel_sd              =   1.5880860018022E-04
(PID.TID 0000.0001) %MON dynstat_uvel_del2            =   2.3274996962156E-07
(PID.TID 0000.0001) %MON dynstat_vvel_max             =   8.3290778121446E-04
(PID.TID 0000.0001) %MON dynstat_vvel_min             =  -1.6286759282397E-03
(PID.TID 0000.0001) %MON dynstat_vvel_mean            =   1.9524776318466E-04
(PID.TID 0000.0001) %MON dynstat_vvel_sd              =   4.5333185199406E-04
(PID.TID 0000.0001) %MON dynstat_vvel_del2            =   4.9796362229800E-08
(PID.TID 0000.0001) %MON dynstat_wvel_max             =   5.8732056638687E-06
(PID.TID 0000.0001) %MON dynstat_wvel_min             =  -1.0927531521864E-05
(PID.TID 0000.0001) %MON dynstat_wvel_mean            =  -4.6355468146049E-08
(PID.TID 0000.0001) %MON dynstat_wvel_sd              =   3.2702015476910E-07
(PID.TID 0000.0001) %MON dynstat_wvel_del2            =   2.0242229375783E-09
(PID.TID 0000.0001) %MON dynstat_theta_max            =  -1.8999999999994E+00
(PID.TID 0000.0001) %MON dynstat_theta_min            =  -1.9000881825373E+00
(PID.TID 0000.0001) %MON dynstat_theta_mean           =  -1.9000006255434E+00
(PID.TID 0000.0001) %MON dynstat_theta_sd             =   5.2522975807427E-06
(PID.TID 0000.0001) %MON dynstat_theta_del2           =   6.3594098607884E-09
(PID.TID 0000.0001) %MON dynstat_salt_max             =   3.5273726573531E+01
(PID.TID 0000.0001) %MON dynstat_salt_min             =   3.4399993517290E+01
(PID.TID 0000.0001) %MON dynstat_salt_mean            =   3.4758300782114E+01
(PID.TID 0000.0001) %MON dynstat_salt_sd              =   2.9908568577350E-01
(PID.TID 0000.0001) %MON dynstat_salt_del2            =   3.0311181753101E-08
(PID.TID 0000.0001) %MON trAdv_CFL_u_max              =   3.5274190643674E-04
(PID.TID 0000.0001) %MON trAdv_CFL_v_max              =   4.2814971547290E-04
(PID.TID 0000.0001) %MON trAdv_CFL_w_max              =   6.6770347585207E-04
(PID.TID 0000.0001) %MON advcfl_uvel_max              =   5.8443780737709E-04
(PID.TID 0000.0001) %MON advcfl_vvel_max              =   2.6368801002958E-04
(PID.TID 0000.0001) %MON advcfl_wvel_max              =   6.5565189131185E-04
(PID.TID 0000.0001) %MON advcfl_W_hf_max              =   6.5565793830408E-04
(PID.TID 0000.0001) %MON pe_b_mean                    =  -3.2796006265133E-06
(PID.TID 0000.0001) %MON ke_max                       =   1.8202447752623E-06
(PID.TID 0000.0001) %MON ke_mean                      =   1.3322158992064E-07
(PID.TID 0000.0001) %MON ke_vol                       =   3.4145595989607E+14
(PID.TID 0000.0001) %MON vort_r_min                   =  -2.2325941917731E-07
(PID.TID 0000.0001) %MON vort_r_max                   =   2.1294290601751E-07
(PID.TID 0000.0001) %MON vort_a_mean                  =  -1.3992981969631E-04
(PID.TID 0000.0001) %MON vort_a_sd                    =   1.7364363996242E-06
(PID.TID 0000.0001) %MON vort_p_mean                  =  -1.4746744234984E-04
(PID.TID 0000.0001) %MON vort_p_sd                    =   7.7966033899153E-05
(PID.TID 0000.0001) %MON surfExpan_theta_mean         =   1.4583511424144E-06
(PID.TID 0000.0001) %MON surfExpan_salt_mean          =  -2.6592044490563E-05
(PID.TID 0000.0001) // =======================================================
(PID.TID 0000.0001) // End MONITOR dynamic field statistics
(PID.TID 0000.0001) // =======================================================
(PID.TID 0000.0001) // =======================================================
(PID.TID 0000.0001) // Begin OBCS MONITOR field statistics
(PID.TID 0000.0001) // =======================================================
(PID.TID 0000.0001) %MON obc_time_tsnumber            =                     4
(PID.TID 0000.0001) %MON obc_time_secondsf            =   7.2000000000000E+03
(PID.TID 0000.0001) %MON obc_N_vVel_max               =   7.0568748528086E-04
(PID.TID 0000.0001) %MON obc_N_vVel_min               =   7.0568748528086E-04
(PID.TID 0000.0001) %MON obc_N_vVel_mean              =   7.0568748528084E-04
(PID.TID 0000.0001) %MON obc_N_vVel_sd                =   1.1177538177971E-10
(PID.TID 0000.0001) %MON obc_N_vVel_Int               =   3.5330722595821E+05
(PID.TID 0000.0001) %MON obc_N_theta_max              =  -1.9000000000000E+00
(PID.TID 0000.0001) %MON obc_N_theta_min              =  -1.9000000000000E+00
(PID.TID 0000.0001) %MON obc_N_theta_mean             =  -1.9000000000000E+00
(PID.TID 0000.0001) %MON obc_N_theta_sd               =   1.1733186057228E-07
(PID.TID 0000.0001) // =======================================================
(PID.TID 0000.0001) // End OBCS MONITOR field statistics
(PID.TID 0000.0001) // =======================================================
(PID.TID 0000.0001) OBCS_balance (it=        5 ) correct for netFreshWaterFlux:  0.00000000E+00
(PID.TID 0000.0001) OBCS_balance (it=        5 ) correct for shelfIceNetMassFlux:  3.63964336E+08
(PID.TID 0000.0001) OBCS_balance (it=        5 ) correct for inFlow:  0.00000000E+00  0.00000000E+00
(PID.TID 0000.0001) OBCS_balance correction to OBEu,OBWu:  7.05799753E-04 -7.05799753E-04
(PID.TID 0000.0001) OBCS_balance correction to OBNv,OBSv:  7.05799753E-04 -7.05799753E-04
 cg2d: Sum(rhs),rhsMax =   1.72857774120176E+01  4.91395215568869E-02
(PID.TID 0000.0001)      cg2d_init_res =   1.73737921241027E+00
(PID.TID 0000.0001)      cg2d_iters(min,last) =      -1     213
(PID.TID 0000.0001)      cg2d_last_res =   9.68641051097680E-14
(PID.TID 0000.0001) // =======================================================
(PID.TID 0000.0001) // Begin MONITOR dynamic field statistics
(PID.TID 0000.0001) // =======================================================
(PID.TID 0000.0001) %MON time_tsnumber                =                     5
(PID.TID 0000.0001) %MON time_secondsf                =   9.0000000000000E+03
(PID.TID 0000.0001) %MON dynstat_eta_max              =   6.9458343938943E-02
(PID.TID 0000.0001) %MON dynstat_eta_min              =  -2.1183002056381E-02
(PID.TID 0000.0001) %MON dynstat_eta_mean             =  -6.9077116163372E-03
(PID.TID 0000.0001) %MON dynstat_eta_sd               =   1.6601661628817E-02
(PID.TID 0000.0001) %MON dynstat_eta_del2             =   2.3138530330956E-05
(PID.TID 0000.0001) %MON dynstat_uvel_max             =   2.7236731052269E-04
(PID.TID 0000.0001) %MON dynstat_uvel_min             =  -2.1861938023773E-03
(PID.TID 0000.0001) %MON dynstat_uvel_mean            =  -7.3237966814128E-05
(PID.TID 0000.0001) %MON dynstat_uvel_sd              =   1.4443484966887E-04
(PID.TID 0000.0001) %MON dynstat_uvel_del2            =   2.2806146893554E-07
(PID.TID 0000.0001) %MON dynstat_vvel_max             =   1.4641807941209E-03
(PID.TID 0000.0001) %MON dynstat_vvel_min             =  -6.4857366932167E-04
(PID.TID 0000.0001) %MON dynstat_vvel_mean            =   4.8456348384508E-04
(PID.TID 0000.0001) %MON dynstat_vvel_sd              =   3.2152442794623E-04
(PID.TID 0000.0001) %MON dynstat_vvel_del2            =   8.0512511165935E-08
(PID.TID 0000.0001) %MON dynstat_wvel_max             =   1.2263513213694E-05
(PID.TID 0000.0001) %MON dynstat_wvel_min             =  -8.3653353921624E-06
(PID.TID 0000.0001) %MON dynstat_wvel_mean            =   9.6659728249348E-08
(PID.TID 0000.0001) %MON dynstat_wvel_sd              =   5.0742955830150E-07
(PID.TID 0000.0001) %MON dynstat_wvel_del2            =   3.3188866128959E-09
(PID.TID 0000.0001) %MON dynstat_theta_max            =  -1.8999999999980E+00
(PID.TID 0000.0001) %MON dynstat_theta_min            =  -1.9000934512875E+00
(PID.TID 0000.0001) %MON dynstat_theta_mean           =  -1.9000007176964E+00
(PID.TID 0000.0001) %MON dynstat_theta_sd             =   5.8948807090068E-06
(PID.TID 0000.0001) %MON dynstat_theta_del2           =   7.0607692184801E-09
(PID.TID 0000.0001) %MON dynstat_salt_max             =   3.5273722629686E+01
(PID.TID 0000.0001) %MON dynstat_salt_min             =   3.4399986639141E+01
(PID.TID 0000.0001) %MON dynstat_salt_mean            =   3.4758301023584E+01
(PID.TID 0000.0001) %MON dynstat_salt_sd              =   2.9908525990592E-01
(PID.TID 0000.0001) %MON dynstat_salt_del2            =   3.7587163974113E-08
(PID.TID 0000.0001) %MON trAdv_CFL_u_max              =   5.8443746834904E-04
(PID.TID 0000.0001) %MON trAdv_CFL_v_max              =   2.5964070802798E-04
(PID.TID 0000.0001) %MON trAdv_CFL_w_max              =   6.5565793830408E-04
(PID.TID 0000.0001) %MON advcfl_uvel_max              =   6.6950468081188E-04
(PID.TID 0000.0001) %MON advcfl_vvel_max              =   2.3705570471748E-04
(PID.TID 0000.0001) %MON advcfl_wvel_max              =   7.3581079282163E-04
(PID.TID 0000.0001) %MON advcfl_W_hf_max              =   7.3581841363208E-04
(PID.TID 0000.0001) %MON pe_b_mean                    =  -6.2924735456349E-07
(PID.TID 0000.0001) %MON ke_max                       =   2.3953038484908E-06
(PID.TID 0000.0001) %MON ke_mean                      =   1.8042454132865E-07
(PID.TID 0000.0001) %MON ke_vol                       =   3.4145532394307E+14
(PID.TID 0000.0001) %MON vort_r_min                   =  -2.0389633421188E-07
(PID.TID 0000.0001) %MON vort_r_max                   =   2.2111463987118E-07
(PID.TID 0000.0001) %MON vort_a_mean                  =  -1.3992981969631E-04
(PID.TID 0000.0001) %MON vort_a_sd                    =   1.7363525661777E-06
(PID.TID 0000.0001) %MON vort_p_mean                  =  -1.4746771373985E-04
(PID.TID 0000.0001) %MON vort_p_sd                    =   7.7965267992820E-05
(PID.TID 0000.0001) %MON surfExpan_theta_mean         =   1.4585860819468E-06
(PID.TID 0000.0001) %MON surfExpan_salt_mean          =  -2.6731982343968E-05
(PID.TID 0000.0001) // =======================================================
(PID.TID 0000.0001) // End MONITOR dynamic field statistics
(PID.TID 0000.0001) // =======================================================
(PID.TID 0000.0001) // =======================================================
(PID.TID 0000.0001) // Begin OBCS MONITOR field statistics
(PID.TID 0000.0001) // =======================================================
(PID.TID 0000.0001) %MON obc_time_tsnumber            =                     5
(PID.TID 0000.0001) %MON obc_time_secondsf            =   9.0000000000000E+03
(PID.TID 0000.0001) %MON obc_N_vVel_max               =   7.0579975286541E-04
(PID.TID 0000.0001) %MON obc_N_vVel_min               =   7.0579975286541E-04
(PID.TID 0000.0001) %MON obc_N_vVel_mean              =   7.0579975286540E-04
(PID.TID 0000.0001) %MON obc_N_vVel_sd                =   1.1082408463501E-10
(PID.TID 0000.0001) %MON obc_N_vVel_Int               =   3.5336343348590E+05
(PID.TID 0000.0001) %MON obc_N_theta_max              =  -1.9000000000000E+00
(PID.TID 0000.0001) %MON obc_N_theta_min              =  -1.9000000000000E+00
(PID.TID 0000.0001) %MON obc_N_theta_mean             =  -1.9000000000000E+00
(PID.TID 0000.0001) %MON obc_N_theta_sd               =   1.1733186057228E-07
(PID.TID 0000.0001) // =======================================================
(PID.TID 0000.0001) // End OBCS MONITOR field statistics
(PID.TID 0000.0001) // =======================================================
(PID.TID 0000.0001) OBCS_balance (it=        6 ) correct for netFreshWaterFlux:  0.00000000E+00
(PID.TID 0000.0001) OBCS_balance (it=        6 ) correct for shelfIceNetMassFlux:  3.63961636E+08
(PID.TID 0000.0001) OBCS_balance (it=        6 ) correct for inFlow:  0.00000000E+00  0.00000000E+00
(PID.TID 0000.0001) OBCS_balance correction to OBEu,OBWu:  7.05794516E-04 -7.05794516E-04
(PID.TID 0000.0001) OBCS_balance correction to OBNv,OBSv:  7.05794516E-04 -7.05794516E-04
 cg2d: Sum(rhs),rhsMax =   1.75736729765060E+01  5.80032564213151E-02
(PID.TID 0000.0001)      cg2d_init_res =   1.47428204986039E+00
(PID.TID 0000.0001)      cg2d_iters(min,last) =      -1     211
(PID.TID 0000.0001)      cg2d_last_res =   9.78036607937475E-14
(PID.TID 0000.0001) // =======================================================
(PID.TID 0000.0001) // Begin MONITOR dynamic field statistics
(PID.TID 0000.0001) // =======================================================
(PID.TID 0000.0001) %MON time_tsnumber                =                     6
(PID.TID 0000.0001) %MON time_secondsf                =   1.0800000000000E+04
(PID.TID 0000.0001) %MON dynstat_eta_max              =   6.0753027715432E-02
(PID.TID 0000.0001) %MON dynstat_eta_min              =  -2.3428108622218E-02
(PID.TID 0000.0001) %MON dynstat_eta_mean             =  -8.2895179293060E-03
(PID.TID 0000.0001) %MON dynstat_eta_sd               =   1.4581927484246E-02
(PID.TID 0000.0001) %MON dynstat_eta_del2             =   2.7245170290913E-05
(PID.TID 0000.0001) %MON dynstat_uvel_max             =   2.6509636553532E-04
(PID.TID 0000.0001) %MON dynstat_uvel_min             =  -1.8986330467286E-03
(PID.TID 0000.0001) %MON dynstat_uvel_mean            =  -8.8770332353299E-05
(PID.TID 0000.0001) %MON dynstat_uvel_sd              =   1.3329364014969E-04
(PID.TID 0000.0001) %MON dynstat_uvel_del2            =   2.0941051759156E-07
(PID.TID 0000.0001) %MON dynstat_vvel_max             =   2.3283848788600E-03
(PID.TID 0000.0001) %MON dynstat_vvel_min             =  -2.4208559133511E-04
(PID.TID 0000.0001) %MON dynstat_vvel_mean            =   8.0850698777446E-04
(PID.TID 0000.0001) %MON dynstat_vvel_sd              =   4.2320387998455E-04
(PID.TID 0000.0001) %MON dynstat_vvel_del2            =   1.2359368927470E-07
(PID.TID 0000.0001) %MON dynstat_wvel_max             =   1.8953636368620E-05
(PID.TID 0000.0001) %MON dynstat_wvel_min             =  -1.1387155944158E-06
(PID.TID 0000.0001) %MON dynstat_wvel_mean            =   2.3272630835715E-07
(PID.TID 0000.0001) %MON dynstat_wvel_sd              =   9.3958109353265E-07
(PID.TID 0000.0001) %MON dynstat_wvel_del2            =   6.1472755871658E-09
(PID.TID 0000.0001) %MON dynstat_theta_max            =  -1.8999999999996E+00
(PID.TID 0000.0001) %MON dynstat_theta_min            =  -1.9001043558668E+00
(PID.TID 0000.0001) %MON dynstat_theta_mean           =  -1.9000008284986E+00
(PID.TID 0000.0001) %MON dynstat_theta_sd             =   6.7386193806029E-06
(PID.TID 0000.0001) %MON dynstat_theta_del2           =   8.0141623881710E-09
(PID.TID 0000.0001) %MON dynstat_salt_max             =   3.5273719106035E+01
(PID.TID 0000.0001) %MON dynstat_salt_min             =   3.4399983856096E+01
(PID.TID 0000.0001) %MON dynstat_salt_mean            =   3.4758301277719E+01
(PID.TID 0000.0001) %MON dynstat_salt_sd              =   2.9908481399609E-01
(PID.TID 0000.0001) %MON dynstat_salt_del2            =   4.4763529369175E-08
(PID.TID 0000.0001) %MON trAdv_CFL_u_max              =   6.6950433784909E-04
(PID.TID 0000.0001) %MON trAdv_CFL_v_max              =   2.3799226704874E-04
(PID.TID 0000.0001) %MON trAdv_CFL_w_max              =   7.3581841363208E-04
(PID.TID 0000.0001) %MON advcfl_uvel_max              =   5.8144145800190E-04
(PID.TID 0000.0001) %MON advcfl_vvel_max              =   3.7697319929885E-04
(PID.TID 0000.0001) %MON advcfl_wvel_max              =   1.1372181821172E-03
(PID.TID 0000.0001) %MON advcfl_W_hf_max              =   1.1372315397380E-03
(PID.TID 0000.0001) %MON pe_b_mean                    =   5.9296422263594E-06
(PID.TID 0000.0001) %MON ke_max                       =   2.7062531993518E-06
(PID.TID 0000.0001) %MON ke_mean                      =   4.2820447354531E-07
(PID.TID 0000.0001) %MON ke_vol                       =   3.4145468788889E+14
(PID.TID 0000.0001) %MON vort_r_min                   =  -3.2878919213823E-07
(PID.TID 0000.0001) %MON vort_r_max                   =   2.8269177102333E-07
(PID.TID 0000.0001) %MON vort_a_mean                  =  -1.3992981969631E-04
(PID.TID 0000.0001) %MON vort_a_sd                    =   1.7363844384288E-06
(PID.TID 0000.0001) %MON vort_p_mean                  =  -1.4746798283018E-04
(PID.TID 0000.0001) %MON vort_p_sd                    =   7.7969793593768E-05
(PID.TID 0000.0001) %MON surfExpan_theta_mean         =   1.4585782979671E-06
(PID.TID 0000.0001) %MON surfExpan_salt_mean          =  -2.6854514001091E-05
(PID.TID 0000.0001) // =======================================================
(PID.TID 0000.0001) // End MONITOR dynamic field statistics
(PID.TID 0000.0001) // =======================================================
(PID.TID 0000.0001) // =======================================================
(PID.TID 0000.0001) // Begin OBCS MONITOR field statistics
(PID.TID 0000.0001) // =======================================================
(PID.TID 0000.0001) %MON obc_time_tsnumber            =                     6
(PID.TID 0000.0001) %MON obc_time_secondsf            =   1.0800000000000E+04
(PID.TID 0000.0001) %MON obc_N_vVel_max               =   7.0579451635088E-04
(PID.TID 0000.0001) %MON obc_N_vVel_min               =   7.0579451635088E-04
(PID.TID 0000.0001) %MON obc_N_vVel_mean              =   7.0579451635086E-04
(PID.TID 0000.0001) %MON obc_N_vVel_sd                =   1.3376685318399E-10
(PID.TID 0000.0001) %MON obc_N_vVel_Int               =   3.5336081178937E+05
(PID.TID 0000.0001) %MON obc_N_theta_max              =  -1.9000000000000E+00
(PID.TID 0000.0001) %MON obc_N_theta_min              =  -1.9000000000000E+00
(PID.TID 0000.0001) %MON obc_N_theta_mean             =  -1.9000000000000E+00
(PID.TID 0000.0001) %MON obc_N_theta_sd               =   1.1733186057228E-07
(PID.TID 0000.0001) // =======================================================
(PID.TID 0000.0001) // End OBCS MONITOR field statistics
(PID.TID 0000.0001) // =======================================================
(PID.TID 0000.0001) OBCS_balance (it=        7 ) correct for netFreshWaterFlux:  0.00000000E+00
(PID.TID 0000.0001) OBCS_balance (it=        7 ) correct for shelfIceNetMassFlux:  3.63930281E+08
(PID.TID 0000.0001) OBCS_balance (it=        7 ) correct for inFlow:  0.00000000E+00  0.00000000E+00
(PID.TID 0000.0001) OBCS_balance correction to OBEu,OBWu:  7.05733713E-04 -7.05733713E-04
(PID.TID 0000.0001) OBCS_balance correction to OBNv,OBSv:  7.05733713E-04 -7.05733713E-04
 cg2d: Sum(rhs),rhsMax =   1.75390904968848E+01  6.78046019640395E-02
(PID.TID 0000.0001)      cg2d_init_res =   1.26214593352657E+00
(PID.TID 0000.0001)      cg2d_iters(min,last) =      -1     211
(PID.TID 0000.0001)      cg2d_last_res =   9.15388680389787E-14
(PID.TID 0000.0001) // =======================================================
(PID.TID 0000.0001) // Begin MONITOR dynamic field statistics
(PID.TID 0000.0001) // =======================================================
(PID.TID 0000.0001) %MON time_tsnumber                =                     7
(PID.TID 0000.0001) %MON time_secondsf                =   1.2600000000000E+04
(PID.TID 0000.0001) %MON dynstat_eta_max              =   5.1135222872163E-02
(PID.TID 0000.0001) %MON dynstat_eta_min              =  -2.8774910612965E-02
(PID.TID 0000.0001) %MON dynstat_eta_mean             =  -9.6712052003997E-03
(PID.TID 0000.0001) %MON dynstat_eta_sd               =   1.2277582146886E-02
(PID.TID 0000.0001) %MON dynstat_eta_del2             =   3.1356995077677E-05
(PID.TID 0000.0001) %MON dynstat_uvel_max             =   4.3005308242319E-04
(PID.TID 0000.0001) %MON dynstat_uvel_min             =  -1.2891989408332E-03
(PID.TID 0000.0001) %MON dynstat_uvel_mean            =  -8.6901958201847E-05
(PID.TID 0000.0001) %MON dynstat_uvel_sd              =   1.2340092611705E-04
(PID.TID 0000.0001) %MON dynstat_uvel_del2            =   1.8982786686111E-07
(PID.TID 0000.0001) %MON dynstat_vvel_max             =   2.9127399366223E-03
(PID.TID 0000.0001) %MON dynstat_vvel_min             =  -2.0463117701631E-05
(PID.TID 0000.0001) %MON dynstat_vvel_mean            =   1.1213703385820E-03
(PID.TID 0000.0001) %MON dynstat_vvel_sd              =   5.4247244140458E-04
(PID.TID 0000.0001) %MON dynstat_vvel_del2            =   1.6941546126777E-07
(PID.TID 0000.0001) %MON dynstat_wvel_max             =   2.4686799570703E-05
(PID.TID 0000.0001) %MON dynstat_wvel_min             =  -1.3290615727282E-06
(PID.TID 0000.0001) %MON dynstat_wvel_mean            =   3.4291392003214E-07
(PID.TID 0000.0001) %MON dynstat_wvel_sd              =   1.3984115704513E-06
(PID.TID 0000.0001) %MON dynstat_wvel_del2            =   9.2265523381985E-09
(PID.TID 0000.0001) %MON dynstat_theta_max            =  -1.8999999999785E+00
(PID.TID 0000.0001) %MON dynstat_theta_min            =  -1.9001238880267E+00
(PID.TID 0000.0001) %MON dynstat_theta_mean           =  -1.9000009624706E+00
(PID.TID 0000.0001) %MON dynstat_theta_sd             =   7.7325851990283E-06
(PID.TID 0000.0001) %MON dynstat_theta_del2           =   9.1901345958611E-09
(PID.TID 0000.0001) %MON dynstat_salt_max             =   3.5273715985411E+01
(PID.TID 0000.0001) %MON dynstat_salt_min             =   3.4399988608836E+01
(PID.TID 0000.0001) %MON dynstat_salt_mean            =   3.4758301504381E+01
(PID.TID 0000.0001) %MON dynstat_salt_sd              =   2.9908435755440E-01
(PID.TID 0000.0001) %MON dynstat_salt_del2            =   5.4761886551267E-08
(PID.TID 0000.0001) %MON trAdv_CFL_u_max              =   5.8144140138316E-04
(PID.TID 0000.0001) %MON trAdv_CFL_v_max              =   3.7847493202183E-04
(PID.TID 0000.0001) %MON trAdv_CFL_w_max              =   1.1372315397380E-03
(PID.TID 0000.0001) %MON advcfl_uvel_max              =   3.9480704978991E-04
(PID.TID 0000.0001) %MON advcfl_vvel_max              =   4.7158221246120E-04
(PID.TID 0000.0001) %MON advcfl_wvel_max              =   1.4812079742422E-03
(PID.TID 0000.0001) %MON advcfl_W_hf_max              =   1.4812255686854E-03
(PID.TID 0000.0001) %MON pe_b_mean                    =   1.6250289446074E-05
(PID.TID 0000.0001) %MON ke_max                       =   4.2410567220866E-06
(PID.TID 0000.0001) %MON ke_mean                      =   7.8738678997355E-07
(PID.TID 0000.0001) %MON ke_vol                       =   3.4145405183943E+14
(PID.TID 0000.0001) %MON vort_r_min                   =  -4.1429931079634E-07
(PID.TID 0000.0001) %MON vort_r_max                   =   3.0745883509363E-07
(PID.TID 0000.0001) %MON vort_a_mean                  =  -1.3992981969631E-04
(PID.TID 0000.0001) %MON vort_a_sd                    =   1.7364992878701E-06
(PID.TID 0000.0001) %MON vort_p_mean                  =  -1.4746825109325E-04
(PID.TID 0000.0001) %MON vort_p_sd                    =   7.7977955163592E-05
(PID.TID 0000.0001) %MON surfExpan_theta_mean         =   1.4584555303333E-06
(PID.TID 0000.0001) %MON surfExpan_salt_mean          =  -2.6947578451520E-05
(PID.TID 0000.0001) // =======================================================
(PID.TID 0000.0001) // End MONITOR dynamic field statistics
(PID.TID 0000.0001) // =======================================================
(PID.TID 0000.0001) // =======================================================
(PID.TID 0000.0001) // Begin OBCS MONITOR field statistics
(PID.TID 0000.0001) // =======================================================
(PID.TID 0000.0001) %MON obc_time_tsnumber            =                     7
(PID.TID 0000.0001) %MON obc_time_secondsf            =   1.2600000000000E+04
(PID.TID 0000.0001) %MON obc_N_vVel_max               =   7.0573371253060E-04
(PID.TID 0000.0001) %MON obc_N_vVel_min               =   7.0573371253060E-04
(PID.TID 0000.0001) %MON obc_N_vVel_mean              =   7.0573371253059E-04
(PID.TID 0000.0001) %MON obc_N_vVel_sd                =   1.1955618338219E-10
(PID.TID 0000.0001) %MON obc_N_vVel_Int               =   3.5333036994434E+05
(PID.TID 0000.0001) %MON obc_N_theta_max              =  -1.9000000000000E+00
(PID.TID 0000.0001) %MON obc_N_theta_min              =  -1.9000000000000E+00
(PID.TID 0000.0001) %MON obc_N_theta_mean             =  -1.9000000000000E+00
(PID.TID 0000.0001) %MON obc_N_theta_sd               =   1.1733186057228E-07
(PID.TID 0000.0001) // =======================================================
(PID.TID 0000.0001) // End OBCS MONITOR field statistics
(PID.TID 0000.0001) // =======================================================
(PID.TID 0000.0001) OBCS_balance (it=        8 ) correct for netFreshWaterFlux:  0.00000000E+00
(PID.TID 0000.0001) OBCS_balance (it=        8 ) correct for shelfIceNetMassFlux:  3.63872269E+08
(PID.TID 0000.0001) OBCS_balance (it=        8 ) correct for inFlow:  0.00000000E+00  0.00000000E+00
(PID.TID 0000.0001) OBCS_balance correction to OBEu,OBWu:  7.05621217E-04 -7.05621217E-04
(PID.TID 0000.0001) OBCS_balance correction to OBNv,OBSv:  7.05621217E-04 -7.05621217E-04
 cg2d: Sum(rhs),rhsMax =   1.75611480770929E+01  7.73927052683209E-02
(PID.TID 0000.0001)      cg2d_init_res =   1.10598111005996E+00
(PID.TID 0000.0001)      cg2d_iters(min,last) =      -1     210
(PID.TID 0000.0001)      cg2d_last_res =   9.43328410800391E-14
(PID.TID 0000.0001) // =======================================================
(PID.TID 0000.0001) // Begin MONITOR dynamic field statistics
(PID.TID 0000.0001) // =======================================================
(PID.TID 0000.0001) %MON time_tsnumber                =                     8
(PID.TID 0000.0001) %MON time_secondsf                =   1.4400000000000E+04
(PID.TID 0000.0001) %MON dynstat_eta_max              =   3.9095265138503E-02
(PID.TID 0000.0001) %MON dynstat_eta_min              =  -3.4791158207139E-02
(PID.TID 0000.0001) %MON dynstat_eta_mean             =  -1.1052672226519E-02
(PID.TID 0000.0001) %MON dynstat_eta_sd               =   1.0695540539198E-02
(PID.TID 0000.0001) %MON dynstat_eta_del2             =   3.5471749498600E-05
(PID.TID 0000.0001) %MON dynstat_uvel_max             =   7.7913086614164E-04
(PID.TID 0000.0001) %MON dynstat_uvel_min             =  -6.6377288649535E-04
(PID.TID 0000.0001) %MON dynstat_uvel_mean            =  -7.3559588954482E-05
(PID.TID 0000.0001) %MON dynstat_uvel_sd              =   1.3227032725027E-04
(PID.TID 0000.0001) %MON dynstat_uvel_del2            =   1.8114193807295E-07
(PID.TID 0000.0001) %MON dynstat_vvel_max             =   3.2619949864798E-03
(PID.TID 0000.0001) %MON dynstat_vvel_min             =   1.5782001839429E-04
(PID.TID 0000.0001) %MON dynstat_vvel_mean            =   1.3717288095665E-03
(PID.TID 0000.0001) %MON dynstat_vvel_sd              =   6.1020934797776E-04
(PID.TID 0000.0001) %MON dynstat_vvel_del2            =   2.0817787281886E-07
(PID.TID 0000.0001) %MON dynstat_wvel_max             =   2.8905459050619E-05
(PID.TID 0000.0001) %MON dynstat_wvel_min             =  -1.5620534800450E-06
(PID.TID 0000.0001) %MON dynstat_wvel_mean            =   4.1707169566091E-07
(PID.TID 0000.0001) %MON dynstat_wvel_sd              =   1.7582875659149E-06
(PID.TID 0000.0001) %MON dynstat_wvel_del2            =   1.1607024056616E-08
(PID.TID 0000.0001) %MON dynstat_theta_max            =  -1.8999999999341E+00
(PID.TID 0000.0001) %MON dynstat_theta_min            =  -1.9001341199086E+00
(PID.TID 0000.0001) %MON dynstat_theta_mean           =  -1.9000011317619E+00
(PID.TID 0000.0001) %MON dynstat_theta_sd             =   8.9557161669463E-06
(PID.TID 0000.0001) %MON dynstat_theta_del2           =   1.0661568884872E-08
(PID.TID 0000.0001) %MON dynstat_salt_max             =   3.5273712982039E+01
(PID.TID 0000.0001) %MON dynstat_salt_min             =   3.4399985516866E+01
(PID.TID 0000.0001) %MON dynstat_salt_mean            =   3.4758301678096E+01
(PID.TID 0000.0001) %MON dynstat_salt_sd              =   2.9908390059807E-01
(PID.TID 0000.0001) %MON dynstat_salt_del2            =   7.0343670686056E-08
(PID.TID 0000.0001) %MON trAdv_CFL_u_max              =   3.9480717809954E-04
(PID.TID 0000.0001) %MON trAdv_CFL_v_max              =   4.7347679446279E-04
(PID.TID 0000.0001) %MON trAdv_CFL_w_max              =   1.4812255686854E-03
(PID.TID 0000.0001) %MON advcfl_uvel_max              =   2.0327523297405E-04
(PID.TID 0000.0001) %MON advcfl_vvel_max              =   5.2812775813599E-04
(PID.TID 0000.0001) %MON advcfl_wvel_max              =   1.7343275430371E-03
(PID.TID 0000.0001) %MON advcfl_W_hf_max              =   1.7343470831553E-03
(PID.TID 0000.0001) %MON pe_b_mean                    =   2.9441111833367E-05
(PID.TID 0000.0001) %MON ke_max                       =   5.3189450240048E-06
(PID.TID 0000.0001) %MON ke_mean                      =   1.1396528095117E-06
(PID.TID 0000.0001) %MON ke_vol                       =   3.4145341584476E+14
(PID.TID 0000.0001) %MON vort_r_min                   =  -4.6675229510020E-07
(PID.TID 0000.0001) %MON vort_r_max                   =   3.0025169928798E-07
(PID.TID 0000.0001) %MON vort_a_mean                  =  -1.3992981969631E-04
(PID.TID 0000.0001) %MON vort_a_sd                    =   1.7366507010945E-06
(PID.TID 0000.0001) %MON vort_p_mean                  =  -1.4746851954104E-04
(PID.TID 0000.0001) %MON vort_p_sd                    =   7.7987497528919E-05
(PID.TID 0000.0001) %MON surfExpan_theta_mean         =   1.4582256262151E-06
(PID.TID 0000.0001) %MON surfExpan_salt_mean          =  -2.7005130513012E-05
(PID.TID 0000.0001) // =======================================================
(PID.TID 0000.0001) // End MONITOR dynamic field statistics
(PID.TID 0000.0001) // =======================================================
(PID.TID 0000.0001) // =======================================================
(PID.TID 0000.0001) // Begin OBCS MONITOR field statistics
(PID.TID 0000.0001) // =======================================================
(PID.TID 0000.0001) %MON obc_time_tsnumber            =                     8
(PID.TID 0000.0001) %MON obc_time_secondsf            =   1.4400000000000E+04
(PID.TID 0000.0001) %MON obc_N_vVel_max               =   7.0562121652174E-04
(PID.TID 0000.0001) %MON obc_N_vVel_min               =   7.0562121652174E-04
(PID.TID 0000.0001) %MON obc_N_vVel_mean              =   7.0562121652173E-04
(PID.TID 0000.0001) %MON obc_N_vVel_sd                =  -2.6469779601697E-21
(PID.TID 0000.0001) %MON obc_N_vVel_Int               =   3.5327404805448E+05
(PID.TID 0000.0001) %MON obc_N_theta_max              =  -1.9000000000000E+00
(PID.TID 0000.0001) %MON obc_N_theta_min              =  -1.9000000000000E+00
(PID.TID 0000.0001) %MON obc_N_theta_mean             =  -1.9000000000000E+00
(PID.TID 0000.0001) %MON obc_N_theta_sd               =   1.1733186057228E-07
(PID.TID 0000.0001) // =======================================================
(PID.TID 0000.0001) // End OBCS MONITOR field statistics
(PID.TID 0000.0001) // =======================================================
(PID.TID 0000.0001) OBCS_balance (it=        9 ) correct for netFreshWaterFlux:  0.00000000E+00
(PID.TID 0000.0001) OBCS_balance (it=        9 ) correct for shelfIceNetMassFlux:  3.63826532E+08
(PID.TID 0000.0001) OBCS_balance (it=        9 ) correct for inFlow:  0.00000000E+00  0.00000000E+00
(PID.TID 0000.0001) OBCS_balance correction to OBEu,OBWu:  7.05532523E-04 -7.05532523E-04
(PID.TID 0000.0001) OBCS_balance correction to OBNv,OBSv:  7.05532523E-04 -7.05532523E-04
 cg2d: Sum(rhs),rhsMax =   1.76499798883755E+01  8.66265639917825E-02
(PID.TID 0000.0001)      cg2d_init_res =   9.87878677549485E-01
(PID.TID 0000.0001)      cg2d_iters(min,last) =      -1     210
(PID.TID 0000.0001)      cg2d_last_res =   7.91718356734052E-14
(PID.TID 0000.0001) // =======================================================
(PID.TID 0000.0001) // Begin MONITOR dynamic field statistics
(PID.TID 0000.0001) // =======================================================
(PID.TID 0000.0001) %MON time_tsnumber                =                     9
(PID.TID 0000.0001) %MON time_secondsf                =   1.6200000000000E+04
(PID.TID 0000.0001) %MON dynstat_eta_max              =   2.6061302022184E-02
(PID.TID 0000.0001) %MON dynstat_eta_min              =  -4.1344837306970E-02
(PID.TID 0000.0001) %MON dynstat_eta_mean             =  -1.2433965608121E-02
(PID.TID 0000.0001) %MON dynstat_eta_sd               =   1.0947711669221E-02
(PID.TID 0000.0001) %MON dynstat_eta_del2             =   3.9588427692387E-05
(PID.TID 0000.0001) %MON dynstat_uvel_max             =   1.1588935855740E-03
(PID.TID 0000.0001) %MON dynstat_uvel_min             =  -3.6030075625854E-04
(PID.TID 0000.0001) %MON dynstat_uvel_mean            =  -5.2917565301780E-05
(PID.TID 0000.0001) %MON dynstat_uvel_sd              =   1.4977387494392E-04
(PID.TID 0000.0001) %MON dynstat_uvel_del2            =   1.9357780521530E-07
(PID.TID 0000.0001) %MON dynstat_vvel_max             =   3.4252405008634E-03
(PID.TID 0000.0001) %MON dynstat_vvel_min             =   3.0357178801450E-04
(PID.TID 0000.0001) %MON dynstat_vvel_mean            =   1.5196633774376E-03
(PID.TID 0000.0001) %MON dynstat_vvel_sd              =   6.2732361256915E-04
(PID.TID 0000.0001) %MON dynstat_vvel_del2            =   2.3510412256923E-07
(PID.TID 0000.0001) %MON dynstat_wvel_max             =   3.5433146524373E-05
(PID.TID 0000.0001) %MON dynstat_wvel_min             =  -1.8752592327317E-06
(PID.TID 0000.0001) %MON dynstat_wvel_mean            =   4.5209442160196E-07
(PID.TID 0000.0001) %MON dynstat_wvel_sd              =   1.9528454897968E-06
(PID.TID 0000.0001) %MON dynstat_wvel_del2            =   1.2791145056824E-08
(PID.TID 0000.0001) %MON dynstat_theta_max            =  -1.8999999998619E+00
(PID.TID 0000.0001) %MON dynstat_theta_min            =  -1.9001467021776E+00
(PID.TID 0000.0001) %MON dynstat_theta_mean           =  -1.9000013193665E+00
(PID.TID 0000.0001) %MON dynstat_theta_sd             =   1.0296090649154E-05
(PID.TID 0000.0001) %MON dynstat_theta_del2           =   1.2262411362611E-08
(PID.TID 0000.0001) %MON dynstat_salt_max             =   3.5273709993170E+01
(PID.TID 0000.0001) %MON dynstat_salt_min             =   3.4399982235704E+01
(PID.TID 0000.0001) %MON dynstat_salt_mean            =   3.4758301796144E+01
(PID.TID 0000.0001) %MON dynstat_salt_sd              =   2.9908344423458E-01
(PID.TID 0000.0001) %MON dynstat_salt_del2            =   9.0841871042267E-08
(PID.TID 0000.0001) %MON trAdv_CFL_u_max              =   2.0327533131530E-04
(PID.TID 0000.0001) %MON trAdv_CFL_v_max              =   5.3026743707236E-04
(PID.TID 0000.0001) %MON trAdv_CFL_w_max              =   1.7343470831553E-03
(PID.TID 0000.0001) %MON advcfl_uvel_max              =   2.7854753768879E-04
(PID.TID 0000.0001) %MON advcfl_vvel_max              =   5.5455774588720E-04
(PID.TID 0000.0001) %MON advcfl_wvel_max              =   2.1259887914624E-03
(PID.TID 0000.0001) %MON advcfl_W_hf_max              =   2.1259935785962E-03
(PID.TID 0000.0001) %MON pe_b_mean                    =   4.4242192014210E-05
(PID.TID 0000.0001) %MON ke_max                       =   5.8622977053462E-06
(PID.TID 0000.0001) %MON ke_mean                      =   1.3659408864309E-06
(PID.TID 0000.0001) %MON ke_vol                       =   3.4145277995147E+14
(PID.TID 0000.0001) %MON vort_r_min                   =  -4.9346439817418E-07
(PID.TID 0000.0001) %MON vort_r_max                   =   2.7081133990176E-07
(PID.TID 0000.0001) %MON vort_a_mean                  =  -1.3992981969631E-04
(PID.TID 0000.0001) %MON vort_a_sd                    =   1.7367959846940E-06
(PID.TID 0000.0001) %MON vort_p_mean                  =  -1.4746878867396E-04
(PID.TID 0000.0001) %MON vort_p_sd                    =   7.7996748617383E-05
(PID.TID 0000.0001) %MON surfExpan_theta_mean         =   1.4580443691077E-06
(PID.TID 0000.0001) %MON surfExpan_salt_mean          =  -2.7029289702176E-05
(PID.TID 0000.0001) // =======================================================
(PID.TID 0000.0001) // End MONITOR dynamic field statistics
(PID.TID 0000.0001) // =======================================================
(PID.TID 0000.0001) // =======================================================
(PID.TID 0000.0001) // Begin OBCS MONITOR field statistics
(PID.TID 0000.0001) // =======================================================
(PID.TID 0000.0001) %MON obc_time_tsnumber            =                     9
(PID.TID 0000.0001) %MON obc_time_secondsf            =   1.6200000000000E+04
(PID.TID 0000.0001) %MON obc_N_vVel_max               =   7.0553252294221E-04
(PID.TID 0000.0001) %MON obc_N_vVel_min               =   7.0553252294221E-04
(PID.TID 0000.0001) %MON obc_N_vVel_mean              =   7.0553252294220E-04
(PID.TID 0000.0001) %MON obc_N_vVel_sd                =   1.0134236273868E-10
(PID.TID 0000.0001) %MON obc_N_vVel_Int               =   3.5322964301231E+05
(PID.TID 0000.0001) %MON obc_N_theta_max              =  -1.9000000000000E+00
(PID.TID 0000.0001) %MON obc_N_theta_min              =  -1.9000000000000E+00
(PID.TID 0000.0001) %MON obc_N_theta_mean             =  -1.9000000000000E+00
(PID.TID 0000.0001) %MON obc_N_theta_sd               =   1.1733186057228E-07
(PID.TID 0000.0001) // =======================================================
(PID.TID 0000.0001) // End OBCS MONITOR field statistics
(PID.TID 0000.0001) // =======================================================
(PID.TID 0000.0001) OBCS_balance (it=       10 ) correct for netFreshWaterFlux:  0.00000000E+00
(PID.TID 0000.0001) OBCS_balance (it=       10 ) correct for shelfIceNetMassFlux:  3.63805586E+08
(PID.TID 0000.0001) OBCS_balance (it=       10 ) correct for inFlow:  0.00000000E+00  0.00000000E+00
(PID.TID 0000.0001) OBCS_balance correction to OBEu,OBWu:  7.05491904E-04 -7.05491904E-04
(PID.TID 0000.0001) OBCS_balance correction to OBNv,OBSv:  7.05491904E-04 -7.05491904E-04
 cg2d: Sum(rhs),rhsMax =   1.77818151069982E+01  9.55357863275391E-02
(PID.TID 0000.0001)      cg2d_init_res =   8.95134294511014E-01
(PID.TID 0000.0001)      cg2d_iters(min,last) =      -1     209
(PID.TID 0000.0001)      cg2d_last_res =   8.42640274995922E-14
(PID.TID 0000.0001) // =======================================================
(PID.TID 0000.0001) // Begin MONITOR dynamic field statistics
(PID.TID 0000.0001) // =======================================================
(PID.TID 0000.0001) %MON time_tsnumber                =                    10
(PID.TID 0000.0001) %MON time_secondsf                =   1.8000000000000E+04
(PID.TID 0000.0001) %MON dynstat_eta_max              =   1.3337664754038E-02
(PID.TID 0000.0001) %MON dynstat_eta_min              =  -4.7824728186600E-02
(PID.TID 0000.0001) %MON dynstat_eta_mean             =  -1.3815179466823E-02
(PID.TID 0000.0001) %MON dynstat_eta_sd               =   1.3066705357060E-02
(PID.TID 0000.0001) %MON dynstat_eta_del2             =   4.3706519032430E-05
(PID.TID 0000.0001) %MON dynstat_uvel_max             =   1.5259235471379E-03
(PID.TID 0000.0001) %MON dynstat_uvel_min             =  -3.6565542710394E-04
(PID.TID 0000.0001) %MON dynstat_uvel_mean            =  -2.7837033340259E-05
(PID.TID 0000.0001) %MON dynstat_uvel_sd              =   1.6766348878698E-04
(PID.TID 0000.0001) %MON dynstat_uvel_del2            =   2.2981924500968E-07
(PID.TID 0000.0001) %MON dynstat_vvel_max             =   3.4392672260663E-03
(PID.TID 0000.0001) %MON dynstat_vvel_min             =   2.6773327235982E-04
(PID.TID 0000.0001) %MON dynstat_vvel_mean            =   1.5493398904083E-03
(PID.TID 0000.0001) %MON dynstat_vvel_sd              =   6.0405104829020E-04
(PID.TID 0000.0001) %MON dynstat_vvel_del2            =   2.5187554019826E-07
(PID.TID 0000.0001) %MON dynstat_wvel_max             =   4.3762556039645E-05
(PID.TID 0000.0001) %MON dynstat_wvel_min             =  -2.2356030610798E-06
(PID.TID 0000.0001) %MON dynstat_wvel_mean            =   4.5047079612621E-07
(PID.TID 0000.0001) %MON dynstat_wvel_sd              =   1.9694347880038E-06
(PID.TID 0000.0001) %MON dynstat_wvel_del2            =   1.2710222175404E-08
(PID.TID 0000.0001) %MON dynstat_theta_max            =  -1.8999999997589E+00
(PID.TID 0000.0001) %MON dynstat_theta_min            =  -1.9001672792100E+00
(PID.TID 0000.0001) %MON dynstat_theta_mean           =  -1.9000015098687E+00
(PID.TID 0000.0001) %MON dynstat_theta_sd             =   1.1663797350459E-05
(PID.TID 0000.0001) %MON dynstat_theta_del2           =   1.3911985487968E-08
(PID.TID 0000.0001) %MON dynstat_salt_max             =   3.5273706837509E+01
(PID.TID 0000.0001) %MON dynstat_salt_min             =   3.4399978950847E+01
(PID.TID 0000.0001) %MON dynstat_salt_mean            =   3.4758301863179E+01
(PID.TID 0000.0001) %MON dynstat_salt_sd              =   2.9908298742674E-01
(PID.TID 0000.0001) %MON dynstat_salt_del2            =   1.1305746835647E-07
(PID.TID 0000.0001) %MON trAdv_CFL_u_max              =   2.7854748234368E-04
(PID.TID 0000.0001) %MON trAdv_CFL_v_max              =   5.5682385164115E-04
(PID.TID 0000.0001) %MON trAdv_CFL_w_max              =   2.1259935785962E-03
(PID.TID 0000.0001) %MON advcfl_uvel_max              =   3.7898713395025E-04
(PID.TID 0000.0001) %MON advcfl_vvel_max              =   5.5682871900829E-04
(PID.TID 0000.0001) %MON advcfl_wvel_max              =   2.6257533623787E-03
(PID.TID 0000.0001) %MON advcfl_W_hf_max              =   2.6257544523033E-03
(PID.TID 0000.0001) %MON pe_b_mean                    =   5.9307332711497E-05
(PID.TID 0000.0001) %MON ke_max                       =   5.8941141895804E-06
(PID.TID 0000.0001) %MON ke_mean                      =   1.3990366134654E-06
(PID.TID 0000.0001) %MON ke_vol                       =   3.4145214413811E+14
(PID.TID 0000.0001) %MON vort_r_min                   =  -4.9815768268027E-07
(PID.TID 0000.0001) %MON vort_r_max                   =   2.8601782892789E-07
(PID.TID 0000.0001) %MON vort_a_mean                  =  -1.3992981969631E-04
(PID.TID 0000.0001) %MON vort_a_sd                    =   1.7369069688909E-06
(PID.TID 0000.0001) %MON vort_p_mean                  =  -1.4746905857889E-04
(PID.TID 0000.0001) %MON vort_p_sd                    =   7.8004785512773E-05
(PID.TID 0000.0001) %MON surfExpan_theta_mean         =   1.4579616607467E-06
(PID.TID 0000.0001) %MON surfExpan_salt_mean          =  -2.7024210501547E-05
(PID.TID 0000.0001) // =======================================================
(PID.TID 0000.0001) // End MONITOR dynamic field statistics
(PID.TID 0000.0001) // =======================================================
(PID.TID 0000.0001) // =======================================================
(PID.TID 0000.0001) // Begin OBCS MONITOR field statistics
(PID.TID 0000.0001) // =======================================================
(PID.TID 0000.0001) %MON obc_time_tsnumber            =                    10
(PID.TID 0000.0001) %MON obc_time_secondsf            =   1.8000000000000E+04
(PID.TID 0000.0001) %MON obc_N_vVel_max               =   7.0549190449522E-04
(PID.TID 0000.0001) %MON obc_N_vVel_min               =   7.0549190449522E-04
(PID.TID 0000.0001) %MON obc_N_vVel_mean              =   7.0549190449521E-04
(PID.TID 0000.0001) %MON obc_N_vVel_sd                =   6.7474455103334E-11
(PID.TID 0000.0001) %MON obc_N_vVel_Int               =   3.5320930711132E+05
(PID.TID 0000.0001) %MON obc_N_theta_max              =  -1.9000000000000E+00
(PID.TID 0000.0001) %MON obc_N_theta_min              =  -1.9000000000000E+00
(PID.TID 0000.0001) %MON obc_N_theta_mean             =  -1.9000000000000E+00
(PID.TID 0000.0001) %MON obc_N_theta_sd               =   1.1733186057228E-07
(PID.TID 0000.0001) // =======================================================
(PID.TID 0000.0001) // End OBCS MONITOR field statistics
(PID.TID 0000.0001) // =======================================================
(PID.TID 0000.0001) OBCS_balance (it=       11 ) correct for netFreshWaterFlux:  0.00000000E+00
(PID.TID 0000.0001) OBCS_balance (it=       11 ) correct for shelfIceNetMassFlux:  3.63806580E+08
(PID.TID 0000.0001) OBCS_balance (it=       11 ) correct for inFlow:  0.00000000E+00  0.00000000E+00
(PID.TID 0000.0001) OBCS_balance correction to OBEu,OBWu:  7.05493832E-04 -7.05493832E-04
(PID.TID 0000.0001) OBCS_balance correction to OBNv,OBSv:  7.05493832E-04 -7.05493832E-04
 cg2d: Sum(rhs),rhsMax =   1.79318271263622E+01  1.04208161041800E-01
(PID.TID 0000.0001)      cg2d_init_res =   8.19787314537129E-01
(PID.TID 0000.0001)      cg2d_iters(min,last) =      -1     208
(PID.TID 0000.0001)      cg2d_last_res =   7.89543428542986E-14
(PID.TID 0000.0001) // =======================================================
(PID.TID 0000.0001) // Begin MONITOR dynamic field statistics
(PID.TID 0000.0001) // =======================================================
(PID.TID 0000.0001) %MON time_tsnumber                =                    11
(PID.TID 0000.0001) %MON time_secondsf                =   1.9800000000000E+04
(PID.TID 0000.0001) %MON dynstat_eta_max              =   1.7428807111081E-03
(PID.TID 0000.0001) %MON dynstat_eta_min              =  -5.3993932070992E-02
(PID.TID 0000.0001) %MON dynstat_eta_mean             =  -1.5196397099374E-02
(PID.TID 0000.0001) %MON dynstat_eta_sd               =   1.6013357657741E-02
(PID.TID 0000.0001) %MON dynstat_eta_del2             =   4.7825718616544E-05
(PID.TID 0000.0001) %MON dynstat_uvel_max             =   1.8885074402906E-03
(PID.TID 0000.0001) %MON dynstat_uvel_min             =  -4.0868957237555E-04
(PID.TID 0000.0001) %MON dynstat_uvel_mean            =  -1.9034022610024E-06
(PID.TID 0000.0001) %MON dynstat_uvel_sd              =   1.8828772582559E-04
(PID.TID 0000.0001) %MON dynstat_uvel_del2            =   2.8241996871914E-07
(PID.TID 0000.0001) %MON dynstat_vvel_max             =   3.4346936176687E-03
(PID.TID 0000.0001) %MON dynstat_vvel_min             =   1.6347176890638E-04
(PID.TID 0000.0001) %MON dynstat_vvel_mean            =   1.4712751792743E-03
(PID.TID 0000.0001) %MON dynstat_vvel_sd              =   5.5146398755407E-04
(PID.TID 0000.0001) %MON dynstat_vvel_del2            =   2.6529650287316E-07
(PID.TID 0000.0001) %MON dynstat_wvel_max             =   4.8933246864132E-05
(PID.TID 0000.0001) %MON dynstat_wvel_min             =  -2.6647817628826E-06
(PID.TID 0000.0001) %MON dynstat_wvel_mean            =   4.1891207743276E-07
(PID.TID 0000.0001) %MON dynstat_wvel_sd              =   1.8399804810699E-06
(PID.TID 0000.0001) %MON dynstat_wvel_del2            =   1.1657805464955E-08
(PID.TID 0000.0001) %MON dynstat_theta_max            =  -1.8999999996291E+00
(PID.TID 0000.0001) %MON dynstat_theta_min            =  -1.9001891383591E+00
(PID.TID 0000.0001) %MON dynstat_theta_mean           =  -1.9000016936136E+00
(PID.TID 0000.0001) %MON dynstat_theta_sd             =   1.2994835667798E-05
(PID.TID 0000.0001) %MON dynstat_theta_del2           =   1.5483700443735E-08
(PID.TID 0000.0001) %MON dynstat_salt_max             =   3.5273703476669E+01
(PID.TID 0000.0001) %MON dynstat_salt_min             =   3.4399975821662E+01
(PID.TID 0000.0001) %MON dynstat_salt_mean            =   3.4758301887501E+01
(PID.TID 0000.0001) %MON dynstat_salt_sd              =   2.9908252939045E-01
(PID.TID 0000.0001) %MON dynstat_salt_del2            =   1.3358490500779E-07
(PID.TID 0000.0001) %MON trAdv_CFL_u_max              =   3.7898705278791E-04
(PID.TID 0000.0001) %MON trAdv_CFL_v_max              =   5.5910425441799E-04
(PID.TID 0000.0001) %MON trAdv_CFL_w_max              =   2.6257544523033E-03
(PID.TID 0000.0001) %MON advcfl_uvel_max              =   4.6904055159375E-04
(PID.TID 0000.0001) %MON advcfl_vvel_max              =   5.5608823670845E-04
(PID.TID 0000.0001) %MON advcfl_wvel_max              =   2.9359948118479E-03
(PID.TID 0000.0001) %MON advcfl_W_hf_max              =   2.9359945359447E-03
(PID.TID 0000.0001) %MON pe_b_mean                    =   7.3422279144758E-05
(PID.TID 0000.0001) %MON ke_max                       =   5.5304560673683E-06
(PID.TID 0000.0001) %MON ke_mean                      =   1.2535143938147E-06
(PID.TID 0000.0001) %MON ke_vol                       =   3.4145150836136E+14
(PID.TID 0000.0001) %MON vort_r_min                   =  -4.8898175623705E-07
(PID.TID 0000.0001) %MON vort_r_max                   =   2.9817341806007E-07
(PID.TID 0000.0001) %MON vort_a_mean                  =  -1.3992981969631E-04
(PID.TID 0000.0001) %MON vort_a_sd                    =   1.7369726661190E-06
(PID.TID 0000.0001) %MON vort_p_mean                  =  -1.4746932904861E-04
(PID.TID 0000.0001) %MON vort_p_sd                    =   7.8011264144048E-05
(PID.TID 0000.0001) %MON surfExpan_theta_mean         =   1.4579659311151E-06
(PID.TID 0000.0001) %MON surfExpan_salt_mean          =  -2.6995841021458E-05
(PID.TID 0000.0001) // =======================================================
(PID.TID 0000.0001) // End MONITOR dynamic field statistics
(PID.TID 0000.0001) // =======================================================
(PID.TID 0000.0001) // =======================================================
(PID.TID 0000.0001) // Begin OBCS MONITOR field statistics
(PID.TID 0000.0001) // =======================================================
(PID.TID 0000.0001) %MON obc_time_tsnumber            =                    11
(PID.TID 0000.0001) %MON obc_time_secondsf            =   1.9800000000000E+04
(PID.TID 0000.0001) %MON obc_N_vVel_max               =   7.0549383208936E-04
(PID.TID 0000.0001) %MON obc_N_vVel_min               =   7.0549383208936E-04
(PID.TID 0000.0001) %MON obc_N_vVel_mean              =   7.0549383208934E-04
(PID.TID 0000.0001) %MON obc_N_vVel_sd                =   1.5740302953625E-10
(PID.TID 0000.0001) %MON obc_N_vVel_Int               =   3.5321027217440E+05
(PID.TID 0000.0001) %MON obc_N_theta_max              =  -1.9000000000000E+00
(PID.TID 0000.0001) %MON obc_N_theta_min              =  -1.9000000000000E+00
(PID.TID 0000.0001) %MON obc_N_theta_mean             =  -1.9000000000000E+00
(PID.TID 0000.0001) %MON obc_N_theta_sd               =   1.1733186057228E-07
(PID.TID 0000.0001) // =======================================================
(PID.TID 0000.0001) // End OBCS MONITOR field statistics
(PID.TID 0000.0001) // =======================================================
(PID.TID 0000.0001) OBCS_balance (it=       12 ) correct for netFreshWaterFlux:  0.00000000E+00
(PID.TID 0000.0001) OBCS_balance (it=       12 ) correct for shelfIceNetMassFlux:  3.63822463E+08
(PID.TID 0000.0001) OBCS_balance (it=       12 ) correct for inFlow:  0.00000000E+00  0.00000000E+00
(PID.TID 0000.0001) OBCS_balance correction to OBEu,OBWu:  7.05524632E-04 -7.05524632E-04
(PID.TID 0000.0001) OBCS_balance correction to OBNv,OBSv:  7.05524632E-04 -7.05524632E-04
 cg2d: Sum(rhs),rhsMax =   1.80819341960821E+01  1.12736456298327E-01
(PID.TID 0000.0001)      cg2d_init_res =   7.56930469760583E-01
(PID.TID 0000.0001)      cg2d_iters(min,last) =      -1     208
(PID.TID 0000.0001)      cg2d_last_res =   9.91536356615835E-14
(PID.TID 0000.0001) // =======================================================
(PID.TID 0000.0001) // Begin MONITOR dynamic field statistics
(PID.TID 0000.0001) // =======================================================
(PID.TID 0000.0001) %MON time_tsnumber                =                    12
(PID.TID 0000.0001) %MON time_secondsf                =   2.1600000000000E+04
(PID.TID 0000.0001) %MON dynstat_eta_max              =   1.0690903378689E-03
(PID.TID 0000.0001) %MON dynstat_eta_min              =  -5.9257149468679E-02
(PID.TID 0000.0001) %MON dynstat_eta_mean             =  -1.6577675032645E-02
(PID.TID 0000.0001) %MON dynstat_eta_sd               =   1.8902524967697E-02
(PID.TID 0000.0001) %MON dynstat_eta_del2             =   5.1945755204997E-05
(PID.TID 0000.0001) %MON dynstat_uvel_max             =   2.1871163792536E-03
(PID.TID 0000.0001) %MON dynstat_uvel_min             =  -4.8490411668834E-04
(PID.TID 0000.0001) %MON dynstat_uvel_mean            =   2.0254443617597E-05
(PID.TID 0000.0001) %MON dynstat_uvel_sd              =   2.1208066549202E-04
(PID.TID 0000.0001) %MON dynstat_uvel_del2            =   3.4094644689724E-07
(PID.TID 0000.0001) %MON dynstat_vvel_max             =   3.4188660740902E-03
(PID.TID 0000.0001) %MON dynstat_vvel_min             =  -9.1096294698757E-07
(PID.TID 0000.0001) %MON dynstat_vvel_mean            =   1.3157782190033E-03
(PID.TID 0000.0001) %MON dynstat_vvel_sd              =   4.8261297333297E-04
(PID.TID 0000.0001) %MON dynstat_vvel_del2            =   2.8356900739679E-07
(PID.TID 0000.0001) %MON dynstat_wvel_max             =   5.1291940834321E-05
(PID.TID 0000.0001) %MON dynstat_wvel_min             =  -7.0381749410681E-06
(PID.TID 0000.0001) %MON dynstat_wvel_mean            =   3.6687399575997E-07
(PID.TID 0000.0001) %MON dynstat_wvel_sd              =   1.6270923931612E-06
(PID.TID 0000.0001) %MON dynstat_wvel_del2            =   1.0192263814598E-08
(PID.TID 0000.0001) %MON dynstat_theta_max            =  -1.8999999993679E+00
(PID.TID 0000.0001) %MON dynstat_theta_min            =  -1.9002109052019E+00
(PID.TID 0000.0001) %MON dynstat_theta_mean           =  -1.9000018655155E+00
(PID.TID 0000.0001) %MON dynstat_theta_sd             =   1.4261200034635E-05
(PID.TID 0000.0001) %MON dynstat_theta_del2           =   1.6955165366581E-08
(PID.TID 0000.0001) %MON dynstat_salt_max             =   3.5273701613151E+01
(PID.TID 0000.0001) %MON dynstat_salt_min             =   3.4399972980816E+01
(PID.TID 0000.0001) %MON dynstat_salt_mean            =   3.4758301879959E+01
(PID.TID 0000.0001) %MON dynstat_salt_sd              =   2.9908206888257E-01
(PID.TID 0000.0001) %MON dynstat_salt_del2            =   1.5002803270825E-07
(PID.TID 0000.0001) %MON trAdv_CFL_u_max              =   4.6904045060837E-04
(PID.TID 0000.0001) %MON trAdv_CFL_v_max              =   5.5826806434009E-04
(PID.TID 0000.0001) %MON trAdv_CFL_w_max              =   2.9359945359447E-03
(PID.TID 0000.0001) %MON advcfl_uvel_max              =   5.4643290662571E-04
(PID.TID 0000.0001) %MON advcfl_vvel_max              =   5.5352570514677E-04
(PID.TID 0000.0001) %MON advcfl_wvel_max              =   3.0775164500593E-03
(PID.TID 0000.0001) %MON advcfl_W_hf_max              =   3.0775175489682E-03
(PID.TID 0000.0001) %MON pe_b_mean                    =   8.5686865276114E-05
(PID.TID 0000.0001) %MON ke_max                       =   5.2424181917254E-06
(PID.TID 0000.0001) %MON ke_mean                      =   1.0053157336481E-06
(PID.TID 0000.0001) %MON ke_vol                       =   3.4145087258287E+14
(PID.TID 0000.0001) %MON vort_r_min                   =  -4.7032811928276E-07
(PID.TID 0000.0001) %MON vort_r_max                   =   2.9658115191886E-07
(PID.TID 0000.0001) %MON vort_a_mean                  =  -1.3992981969631E-04
(PID.TID 0000.0001) %MON vort_a_sd                    =   1.7369950936080E-06
(PID.TID 0000.0001) %MON vort_p_mean                  =  -1.4746959975408E-04
(PID.TID 0000.0001) %MON vort_p_sd                    =   7.8016116377324E-05
(PID.TID 0000.0001) %MON surfExpan_theta_mean         =   1.4580289719577E-06
(PID.TID 0000.0001) %MON surfExpan_salt_mean          =  -2.6951689795969E-05
(PID.TID 0000.0001) // =======================================================
(PID.TID 0000.0001) // End MONITOR dynamic field statistics
(PID.TID 0000.0001) // =======================================================
(PID.TID 0000.0001)  MDS_WRITE_FIELD: it,rec,kS,kL,kH=      12     1  30   1  30 file=U.0000000012
(PID.TID 0000.0001)  MDS_WRITE_FIELD: it,rec,kS,kL,kH=      12     1  30   1  30 file=V.0000000012
(PID.TID 0000.0001)  MDS_WRITE_FIELD: it,rec,kS,kL,kH=      12     1  30   1  30 file=T.0000000012
(PID.TID 0000.0001)  MDS_WRITE_FIELD: it,rec,kS,kL,kH=      12     1  30   1  30 file=S.0000000012
(PID.TID 0000.0001)  MDS_WRITE_FIELD: it,rec,kS,kL,kH=      12     1   1   1   1 file=Eta.0000000012
(PID.TID 0000.0001)  MDS_WRITE_FIELD: it,rec,kS,kL,kH=      12     1  30   1  30 file=W.0000000012
(PID.TID 0000.0001)  MDS_WRITE_FIELD: it,rec,kS,kL,kH=      12     1  30   1  30 file=PH.0000000012
(PID.TID 0000.0001)  MDS_WRITE_FIELD: it,rec,kS,kL,kH=      12     1   1   1   1 file=PHL.0000000012
(PID.TID 0000.0001) // =======================================================
(PID.TID 0000.0001) // Begin OBCS MONITOR field statistics
(PID.TID 0000.0001) // =======================================================
(PID.TID 0000.0001) %MON obc_time_tsnumber            =                    12
(PID.TID 0000.0001) %MON obc_time_secondsf            =   2.1600000000000E+04
(PID.TID 0000.0001) %MON obc_N_vVel_max               =   7.0552463229414E-04
(PID.TID 0000.0001) %MON obc_N_vVel_min               =   7.0552463229414E-04
(PID.TID 0000.0001) %MON obc_N_vVel_mean              =   7.0552463229411E-04
(PID.TID 0000.0001) %MON obc_N_vVel_sd                =   1.7733047726439E-10
(PID.TID 0000.0001) %MON obc_N_vVel_Int               =   3.5322569250583E+05
(PID.TID 0000.0001) %MON obc_N_theta_max              =  -1.9000000000000E+00
(PID.TID 0000.0001) %MON obc_N_theta_min              =  -1.9000000000000E+00
(PID.TID 0000.0001) %MON obc_N_theta_mean             =  -1.9000000000000E+00
(PID.TID 0000.0001) %MON obc_N_theta_sd               =   1.1733186057228E-07
(PID.TID 0000.0001) // =======================================================
(PID.TID 0000.0001) // End OBCS MONITOR field statistics
(PID.TID 0000.0001) // =======================================================
(PID.TID 0000.0001) DIAGSTATS_CLOSE_IO: close file: dynStDiag.0000000000.txt , unit=     9
(PID.TID 0000.0001)  MDS_WRITE_FIELD: it,rec,kS,kL,kH=      12     1  30   1  30 file=pickup_ggl90.ckptA
(PID.TID 0000.0001)  MDS_WRITE_FIELD: it,rec,kS,kL,kH=      12    -1   1   1   1 file=pickup_shelfice.ckptA
(PID.TID 0000.0001)  MDS_WRITE_FIELD: it,rec,kS,kL,kH=      12    -1  30   1  30 file=pickup.ckptA
(PID.TID 0000.0001)  MDS_WRITE_FIELD: it,rec,kS,kL,kH=      12    -2  30   1  30 file=pickup.ckptA
(PID.TID 0000.0001)  MDS_WRITE_FIELD: it,rec,kS,kL,kH=      12    -3  30   1  30 file=pickup.ckptA
(PID.TID 0000.0001)  MDS_WRITE_FIELD: it,rec,kS,kL,kH=      12    -4  30   1  30 file=pickup.ckptA
(PID.TID 0000.0001)  MDS_WRITE_FIELD: it,rec,kS,kL,kH=      12    -5  30   1  30 file=pickup.ckptA
(PID.TID 0000.0001)  MDS_WRITE_FIELD: it,rec,kS,kL,kH=      12    -6  30   1  30 file=pickup.ckptA
(PID.TID 0000.0001)  MDS_WRITE_FIELD: it,rec,kS,kL,kH=      12    -7  30   1  30 file=pickup.ckptA
(PID.TID 0000.0001)  MDS_WRITE_FIELD: it,rec,kS,kL,kH=      12    -8  30   1  30 file=pickup.ckptA
(PID.TID 0000.0001)  MDS_WRITE_FIELD: it,rec,kS,kL,kH=      12  -241   1   1   1 file=pickup.ckptA
(PID.TID 0000.0001)  MDS_WRITE_FIELD: it,rec,kS,kL,kH=      12  -242   1   1   1 file=pickup.ckptA
(PID.TID 0000.0001)  MDS_WRITE_FIELD: it,rec,kS,kL,kH=      12  -243   1   1   1 file=pickup.ckptA
(PID.TID 0000.0001) %CHECKPOINT        12 ckptA
(PID.TID 0000.0001)   Seconds in section "ALL                    [THE_MODEL_MAIN]":
(PID.TID 0000.0001)           User time:   22.305881379637867
(PID.TID 0000.0001)         System time:  0.27640899270772934
(PID.TID 0000.0001)     Wall clock time:   22.588723897933960
(PID.TID 0000.0001)          No. starts:           1
(PID.TID 0000.0001)           No. stops:           1
(PID.TID 0000.0001)   Seconds in section "INITIALISE_FIXED       [THE_MODEL_MAIN]":
(PID.TID 0000.0001)           User time:  0.17155500175431371
(PID.TID 0000.0001)         System time:   7.0135999470949173E-002
(PID.TID 0000.0001)     Wall clock time:  0.24349212646484375
(PID.TID 0000.0001)          No. starts:           1
(PID.TID 0000.0001)           No. stops:           1
(PID.TID 0000.0001)   Seconds in section "THE_MAIN_LOOP          [THE_MODEL_MAIN]":
(PID.TID 0000.0001)           User time:   22.134298652410507
(PID.TID 0000.0001)         System time:  0.20619299262762070
(PID.TID 0000.0001)     Wall clock time:   22.345144987106323
(PID.TID 0000.0001)          No. starts:           1
(PID.TID 0000.0001)           No. stops:           1
(PID.TID 0000.0001)   Seconds in section "INITIALISE_VARIA    [THE_MAIN_LOOP]":
(PID.TID 0000.0001)           User time:  0.45652697980403900
(PID.TID 0000.0001)         System time:   9.5386005938053131E-002
(PID.TID 0000.0001)     Wall clock time:  0.55198383331298828
(PID.TID 0000.0001)          No. starts:           1
(PID.TID 0000.0001)           No. stops:           1
(PID.TID 0000.0001)   Seconds in section "MAIN LOOP           [THE_MAIN_LOOP]":
(PID.TID 0000.0001)           User time:   21.677749931812286
(PID.TID 0000.0001)         System time:  0.11080199480056763
(PID.TID 0000.0001)     Wall clock time:   21.793135166168213
(PID.TID 0000.0001)          No. starts:           1
(PID.TID 0000.0001)           No. stops:           1
(PID.TID 0000.0001)   Seconds in section "MAIN_DO_LOOP        [THE_MAIN_LOOP]":
(PID.TID 0000.0001)           User time:   21.677628457546234
(PID.TID 0000.0001)         System time:  0.11079800128936768
(PID.TID 0000.0001)     Wall clock time:   21.793015003204346
(PID.TID 0000.0001)          No. starts:          12
(PID.TID 0000.0001)           No. stops:          12
(PID.TID 0000.0001)   Seconds in section "FORWARD_STEP        [MAIN_DO_LOOP]":
(PID.TID 0000.0001)           User time:   21.677403509616852
(PID.TID 0000.0001)         System time:  0.11079399287700653
(PID.TID 0000.0001)     Wall clock time:   21.792782545089722
(PID.TID 0000.0001)          No. starts:          12
(PID.TID 0000.0001)           No. stops:          12
(PID.TID 0000.0001)   Seconds in section "DO_STATEVARS_DIAGS  [FORWARD_STEP]":
(PID.TID 0000.0001)           User time:   1.9276812076568604
(PID.TID 0000.0001)         System time:   3.7799924612045288E-003
(PID.TID 0000.0001)     Wall clock time:   1.9317488670349121
(PID.TID 0000.0001)          No. starts:          24
(PID.TID 0000.0001)           No. stops:          24
(PID.TID 0000.0001)   Seconds in section "LOAD_FIELDS_DRIVER  [FORWARD_STEP]":
(PID.TID 0000.0001)           User time:   3.7568807601928711E-004
(PID.TID 0000.0001)         System time:   1.2993812561035156E-005
(PID.TID 0000.0001)     Wall clock time:   3.8766860961914062E-004
(PID.TID 0000.0001)          No. starts:          12
(PID.TID 0000.0001)           No. stops:          12
(PID.TID 0000.0001)   Seconds in section "EXTERNAL_FLDS_LOAD [LOAD_FLDS_DRIVER]":
(PID.TID 0000.0001)           User time:   1.4370679855346680E-004
(PID.TID 0000.0001)         System time:   9.9986791610717773E-006
(PID.TID 0000.0001)     Wall clock time:   1.5425682067871094E-004
(PID.TID 0000.0001)          No. starts:          12
(PID.TID 0000.0001)           No. stops:          12
(PID.TID 0000.0001)   Seconds in section "DO_ATMOSPHERIC_PHYS [FORWARD_STEP]":
(PID.TID 0000.0001)           User time:   1.2481212615966797E-004
(PID.TID 0000.0001)         System time:   1.9967555999755859E-006
(PID.TID 0000.0001)     Wall clock time:   1.2469291687011719E-004
(PID.TID 0000.0001)          No. starts:          12
(PID.TID 0000.0001)           No. stops:          12
(PID.TID 0000.0001)   Seconds in section "DO_OCEANIC_PHYS     [FORWARD_STEP]":
(PID.TID 0000.0001)           User time:   2.7018725275993347
(PID.TID 0000.0001)         System time:   2.0191997289657593E-002
(PID.TID 0000.0001)     Wall clock time:   2.7221992015838623
(PID.TID 0000.0001)          No. starts:          12
(PID.TID 0000.0001)           No. stops:          12
(PID.TID 0000.0001)   Seconds in section "SHELFICE_THERMODYNAMICS [DO_OCEANIC_PHYS]":
(PID.TID 0000.0001)           User time:   4.9598932266235352E-002
(PID.TID 0000.0001)         System time:   3.3770054578781128E-003
(PID.TID 0000.0001)     Wall clock time:   5.2994012832641602E-002
(PID.TID 0000.0001)          No. starts:          12
(PID.TID 0000.0001)           No. stops:          12
(PID.TID 0000.0001)   Seconds in section "GGL90_CALC [DO_OCEANIC_PHYS]":
(PID.TID 0000.0001)           User time:   1.9516119360923767
(PID.TID 0000.0001)         System time:   1.2575000524520874E-002
(PID.TID 0000.0001)     Wall clock time:   1.9643447399139404
(PID.TID 0000.0001)          No. starts:          96
(PID.TID 0000.0001)           No. stops:          96
(PID.TID 0000.0001)   Seconds in section "THERMODYNAMICS      [FORWARD_STEP]":
(PID.TID 0000.0001)           User time:   3.9831710457801819
(PID.TID 0000.0001)         System time:   7.3620080947875977E-003
(PID.TID 0000.0001)     Wall clock time:   3.9909987449645996
(PID.TID 0000.0001)          No. starts:          12
(PID.TID 0000.0001)           No. stops:          12
(PID.TID 0000.0001)   Seconds in section "DYNAMICS            [FORWARD_STEP]":
(PID.TID 0000.0001)           User time:   5.8568824529647827
(PID.TID 0000.0001)         System time:   7.6609998941421509E-003
(PID.TID 0000.0001)     Wall clock time:   5.8676676750183105
(PID.TID 0000.0001)          No. starts:          12
(PID.TID 0000.0001)           No. stops:          12
(PID.TID 0000.0001)   Seconds in section "UPDATE_R_STAR       [FORWARD_STEP]":
(PID.TID 0000.0001)           User time:  0.35596692562103271
(PID.TID 0000.0001)         System time:   4.3004751205444336E-005
(PID.TID 0000.0001)     Wall clock time:  0.35605692863464355
(PID.TID 0000.0001)          No. starts:          12
(PID.TID 0000.0001)           No. stops:          12
(PID.TID 0000.0001)   Seconds in section "UPDATE_CG2D         [FORWARD_STEP]":
(PID.TID 0000.0001)           User time:  0.12523150444030762
(PID.TID 0000.0001)         System time:   1.0800361633300781E-004
(PID.TID 0000.0001)     Wall clock time:  0.12535667419433594
(PID.TID 0000.0001)          No. starts:          12
(PID.TID 0000.0001)           No. stops:          12
(PID.TID 0000.0001)   Seconds in section "SOLVE_FOR_PRESSURE  [FORWARD_STEP]":
(PID.TID 0000.0001)           User time:   3.6023436784744263
(PID.TID 0000.0001)         System time:   7.6739937067031860E-003
(PID.TID 0000.0001)     Wall clock time:   3.6103491783142090
(PID.TID 0000.0001)          No. starts:          12
(PID.TID 0000.0001)           No. stops:          12
(PID.TID 0000.0001)   Seconds in section "MOM_CORRECTION_STEP [FORWARD_STEP]":
(PID.TID 0000.0001)           User time:  0.21998977661132812
(PID.TID 0000.0001)         System time:   7.0035457611083984E-006
(PID.TID 0000.0001)     Wall clock time:  0.22003459930419922
(PID.TID 0000.0001)          No. starts:          12
(PID.TID 0000.0001)           No. stops:          12
(PID.TID 0000.0001)   Seconds in section "INTEGR_CONTINUITY   [FORWARD_STEP]":
(PID.TID 0000.0001)           User time:  0.42021584510803223
(PID.TID 0000.0001)         System time:   2.8599798679351807E-004
(PID.TID 0000.0001)     Wall clock time:  0.42053937911987305
(PID.TID 0000.0001)          No. starts:          12
(PID.TID 0000.0001)           No. stops:          12
(PID.TID 0000.0001)   Seconds in section "CALC_R_STAR         [FORWARD_STEP]":
(PID.TID 0000.0001)           User time:   2.8564214706420898E-002
(PID.TID 0000.0001)         System time:   1.9967555999755859E-006
(PID.TID 0000.0001)     Wall clock time:   2.8612375259399414E-002
(PID.TID 0000.0001)          No. starts:          12
(PID.TID 0000.0001)           No. stops:          12
(PID.TID 0000.0001)   Seconds in section "TRC_CORRECTION_STEP [FORWARD_STEP]":
(PID.TID 0000.0001)           User time:   1.1229515075683594E-004
(PID.TID 0000.0001)         System time:   0.0000000000000000
(PID.TID 0000.0001)     Wall clock time:   1.0800361633300781E-004
(PID.TID 0000.0001)          No. starts:          12
(PID.TID 0000.0001)           No. stops:          12
(PID.TID 0000.0001)   Seconds in section "BLOCKING_EXCHANGES  [FORWARD_STEP]":
(PID.TID 0000.0001)           User time:  0.19509172439575195
(PID.TID 0000.0001)         System time:   1.1890009045600891E-002
(PID.TID 0000.0001)     Wall clock time:  0.20701670646667480
(PID.TID 0000.0001)          No. starts:          12
(PID.TID 0000.0001)           No. stops:          12
(PID.TID 0000.0001)   Seconds in section "MONITOR             [FORWARD_STEP]":
(PID.TID 0000.0001)           User time:   2.1648280620574951
(PID.TID 0000.0001)         System time:   3.7450045347213745E-003
(PID.TID 0000.0001)     Wall clock time:   2.1689815521240234
(PID.TID 0000.0001)          No. starts:          12
(PID.TID 0000.0001)           No. stops:          12
(PID.TID 0000.0001)   Seconds in section "DO_THE_MODEL_IO     [FORWARD_STEP]":
(PID.TID 0000.0001)           User time:   4.6464443206787109E-002
(PID.TID 0000.0001)         System time:   8.0250054597854614E-003
(PID.TID 0000.0001)     Wall clock time:   5.4497718811035156E-002
(PID.TID 0000.0001)          No. starts:          12
(PID.TID 0000.0001)           No. stops:          12
(PID.TID 0000.0001)   Seconds in section "DO_WRITE_PICKUP     [FORWARD_STEP]":
(PID.TID 0000.0001)           User time:   4.5903205871582031E-002
(PID.TID 0000.0001)         System time:   3.9974987506866455E-002
(PID.TID 0000.0001)     Wall clock time:   8.5878849029541016E-002
(PID.TID 0000.0001)          No. starts:          12
(PID.TID 0000.0001)           No. stops:          12
(PID.TID 0000.0001) // ======================================================
(PID.TID 0000.0001) // Tile <-> Tile communication statistics
(PID.TID 0000.0001) // ======================================================
(PID.TID 0000.0001) // o Tile number: 000001
(PID.TID 0000.0001) //         No. X exchanges =              0
(PID.TID 0000.0001) //            Max. X spins =              0
(PID.TID 0000.0001) //            Min. X spins =     1000000000
(PID.TID 0000.0001) //          Total. X spins =              0
(PID.TID 0000.0001) //            Avg. X spins =       0.00E+00
(PID.TID 0000.0001) //         No. Y exchanges =              0
(PID.TID 0000.0001) //            Max. Y spins =              0
(PID.TID 0000.0001) //            Min. Y spins =     1000000000
(PID.TID 0000.0001) //          Total. Y spins =              0
(PID.TID 0000.0001) //            Avg. Y spins =       0.00E+00
(PID.TID 0000.0001) // o Tile number: 000002
(PID.TID 0000.0001) //         No. X exchanges =              0
(PID.TID 0000.0001) //            Max. X spins =              0
(PID.TID 0000.0001) //            Min. X spins =     1000000000
(PID.TID 0000.0001) //          Total. X spins =              0
(PID.TID 0000.0001) //            Avg. X spins =       0.00E+00
(PID.TID 0000.0001) //         No. Y exchanges =              0
(PID.TID 0000.0001) //            Max. Y spins =              0
(PID.TID 0000.0001) //            Min. Y spins =     1000000000
(PID.TID 0000.0001) //          Total. Y spins =              0
(PID.TID 0000.0001) //            Avg. Y spins =       0.00E+00
(PID.TID 0000.0001) // o Tile number: 000003
(PID.TID 0000.0001) //         No. X exchanges =              0
(PID.TID 0000.0001) //            Max. X spins =              0
(PID.TID 0000.0001) //            Min. X spins =     1000000000
(PID.TID 0000.0001) //          Total. X spins =              0
(PID.TID 0000.0001) //            Avg. X spins =       0.00E+00
(PID.TID 0000.0001) //         No. Y exchanges =              0
(PID.TID 0000.0001) //            Max. Y spins =              0
(PID.TID 0000.0001) //            Min. Y spins =     1000000000
(PID.TID 0000.0001) //          Total. Y spins =              0
(PID.TID 0000.0001) //            Avg. Y spins =       0.00E+00
(PID.TID 0000.0001) // o Tile number: 000004
(PID.TID 0000.0001) //         No. X exchanges =              0
(PID.TID 0000.0001) //            Max. X spins =              0
(PID.TID 0000.0001) //            Min. X spins =     1000000000
(PID.TID 0000.0001) //          Total. X spins =              0
(PID.TID 0000.0001) //            Avg. X spins =       0.00E+00
(PID.TID 0000.0001) //         No. Y exchanges =              0
(PID.TID 0000.0001) //            Max. Y spins =              0
(PID.TID 0000.0001) //            Min. Y spins =     1000000000
(PID.TID 0000.0001) //          Total. Y spins =              0
(PID.TID 0000.0001) //            Avg. Y spins =       0.00E+00
(PID.TID 0000.0001) // o Tile number: 000005
(PID.TID 0000.0001) //         No. X exchanges =              0
(PID.TID 0000.0001) //            Max. X spins =              0
(PID.TID 0000.0001) //            Min. X spins =     1000000000
(PID.TID 0000.0001) //          Total. X spins =              0
(PID.TID 0000.0001) //            Avg. X spins =       0.00E+00
(PID.TID 0000.0001) //         No. Y exchanges =              0
(PID.TID 0000.0001) //            Max. Y spins =              0
(PID.TID 0000.0001) //            Min. Y spins =     1000000000
(PID.TID 0000.0001) //          Total. Y spins =              0
(PID.TID 0000.0001) //            Avg. Y spins =       0.00E+00
(PID.TID 0000.0001) // o Tile number: 000006
(PID.TID 0000.0001) //         No. X exchanges =              0
(PID.TID 0000.0001) //            Max. X spins =              0
(PID.TID 0000.0001) //            Min. X spins =     1000000000
(PID.TID 0000.0001) //          Total. X spins =              0
(PID.TID 0000.0001) //            Avg. X spins =       0.00E+00
(PID.TID 0000.0001) //         No. Y exchanges =              0
(PID.TID 0000.0001) //            Max. Y spins =              0
(PID.TID 0000.0001) //            Min. Y spins =     1000000000
(PID.TID 0000.0001) //          Total. Y spins =              0
(PID.TID 0000.0001) //            Avg. Y spins =       0.00E+00
(PID.TID 0000.0001) // o Tile number: 000007
(PID.TID 0000.0001) //         No. X exchanges =              0
(PID.TID 0000.0001) //            Max. X spins =              0
(PID.TID 0000.0001) //            Min. X spins =     1000000000
(PID.TID 0000.0001) //          Total. X spins =              0
(PID.TID 0000.0001) //            Avg. X spins =       0.00E+00
(PID.TID 0000.0001) //         No. Y exchanges =              0
(PID.TID 0000.0001) //            Max. Y spins =              0
(PID.TID 0000.0001) //            Min. Y spins =     1000000000
(PID.TID 0000.0001) //          Total. Y spins =              0
(PID.TID 0000.0001) //            Avg. Y spins =       0.00E+00
(PID.TID 0000.0001) // o Tile number: 000008
(PID.TID 0000.0001) //         No. X exchanges =              0
(PID.TID 0000.0001) //            Max. X spins =              0
(PID.TID 0000.0001) //            Min. X spins =     1000000000
(PID.TID 0000.0001) //          Total. X spins =              0
(PID.TID 0000.0001) //            Avg. X spins =       0.00E+00
(PID.TID 0000.0001) //         No. Y exchanges =              0
(PID.TID 0000.0001) //            Max. Y spins =              0
(PID.TID 0000.0001) //            Min. Y spins =     1000000000
(PID.TID 0000.0001) //          Total. Y spins =              0
(PID.TID 0000.0001) //            Avg. Y spins =       0.00E+00
(PID.TID 0000.0001) // o Thread number: 000001
(PID.TID 0000.0001) //            No. barriers =          19656
(PID.TID 0000.0001) //      Max. barrier spins =              1
(PID.TID 0000.0001) //      Min. barrier spins =              1
(PID.TID 0000.0001) //     Total barrier spins =          19656
(PID.TID 0000.0001) //      Avg. barrier spins =       1.00E+00
PROGRAM MAIN: Execution ended Normally
