(PID.TID 0000.0001) 
(PID.TID 0000.0001) // ======================================================
(PID.TID 0000.0001) //                      MITgcm UV
(PID.TID 0000.0001) //                      =========
(PID.TID 0000.0001) // ======================================================
(PID.TID 0000.0001) // execution environment starting up...
(PID.TID 0000.0001) 
(PID.TID 0000.0001) // MITgcmUV version:  checkpoint67n
(PID.TID 0000.0001) // Build user:        jm_c
(PID.TID 0000.0001) // Build host:        villon
(PID.TID 0000.0001) // Build date:        Wed Dec 11 11:19:22 EST 2019
(PID.TID 0000.0001) 
(PID.TID 0000.0001) // =======================================================
(PID.TID 0000.0001) // Execution Environment parameter file "eedata"
(PID.TID 0000.0001) // =======================================================
(PID.TID 0000.0001) ># Example "eedata" file
(PID.TID 0000.0001) ># Lines beginning "#" are comments
(PID.TID 0000.0001) ># nTx - No. threads per process in X
(PID.TID 0000.0001) ># nTy - No. threads per process in Y
(PID.TID 0000.0001) > &EEPARMS
(PID.TID 0000.0001) > /
(PID.TID 0000.0001) ># Note: Some systems use & as the
(PID.TID 0000.0001) ># namelist terminator. Other systems
(PID.TID 0000.0001) ># use a / character (as shown here).
(PID.TID 0000.0001) 
(PID.TID 0000.0001) // =======================================================
(PID.TID 0000.0001) // Computational Grid Specification ( see files "SIZE.h" )
(PID.TID 0000.0001) //                                  ( and "eedata"       )
(PID.TID 0000.0001) // =======================================================
(PID.TID 0000.0001)      nPx =    1 ; /* No. processes in X */
(PID.TID 0000.0001)      nPy =    1 ; /* No. processes in Y */
(PID.TID 0000.0001)      nSx =    2 ; /* No. tiles in X per process */
(PID.TID 0000.0001)      nSy =    4 ; /* No. tiles in Y per process */
(PID.TID 0000.0001)      sNx =   25 ; /* Tile size in X */
(PID.TID 0000.0001)      sNy =   25 ; /* Tile size in Y */
(PID.TID 0000.0001)      OLx =    3 ; /* Tile overlap distance in X */
(PID.TID 0000.0001)      OLy =    3 ; /* Tile overlap distance in Y */
(PID.TID 0000.0001)      nTx =    1 ; /* No. threads in X per process */
(PID.TID 0000.0001)      nTy =    1 ; /* No. threads in Y per process */
(PID.TID 0000.0001)       Nr =   30 ; /* No. levels in the vertical   */
(PID.TID 0000.0001)       Nx =   50 ; /* Total domain size in X ( = nPx*nSx*sNx ) */
(PID.TID 0000.0001)       Ny =  100 ; /* Total domain size in Y ( = nPy*nSy*sNy ) */
(PID.TID 0000.0001)   nTiles =    8 ; /* Total no. tiles per process ( = nSx*nSy ) */
(PID.TID 0000.0001)   nProcs =    1 ; /* Total no. processes ( = nPx*nPy ) */
(PID.TID 0000.0001) nThreads =    1 ; /* Total no. threads per process ( = nTx*nTy ) */
(PID.TID 0000.0001) usingMPI =    F ; /* Flag used to control whether MPI is in use */
(PID.TID 0000.0001)                   /*  note: To execute a program with MPI calls */
(PID.TID 0000.0001)                   /*  it must be launched appropriately e.g     */
(PID.TID 0000.0001)                   /*  "mpirun -np 64 ......"                    */
(PID.TID 0000.0001) useCoupler=    F ;/* Flag used to control communications with   */
(PID.TID 0000.0001)                   /*  other model components, through a coupler */
(PID.TID 0000.0001) useNest2W_parent =    F ;/* Control 2-W Nesting comm */
(PID.TID 0000.0001) useNest2W_child  =    F ;/* Control 2-W Nesting comm */
(PID.TID 0000.0001) debugMode =    F ; /* print debug msg. (sequence of S/R calls)  */
(PID.TID 0000.0001) printMapIncludesZeros=    F ; /* print zeros in Std.Output maps */
(PID.TID 0000.0001) maxLengthPrt1D=   65 /* maxLength of 1D array printed to StdOut */
(PID.TID 0000.0001) 
(PID.TID 0000.0001) // ======================================================
(PID.TID 0000.0001) // Mapping of tiles to threads
(PID.TID 0000.0001) // ======================================================
(PID.TID 0000.0001) // -o- Thread   1, tiles (   1:   2,   1:   4)
(PID.TID 0000.0001) 
(PID.TID 0000.0001) // ======================================================
(PID.TID 0000.0001) // Tile <-> Tile connectvity table
(PID.TID 0000.0001) // ======================================================
(PID.TID 0000.0001) // Tile number: 000001 (process no. = 000000)
(PID.TID 0000.0001) //        WEST: Tile = 000002, Process = 000000, Comm = put
(PID.TID 0000.0001) //                bi = 000002, bj = 000001
(PID.TID 0000.0001) //        EAST: Tile = 000002, Process = 000000, Comm = put
(PID.TID 0000.0001) //                bi = 000002, bj = 000001
(PID.TID 0000.0001) //       SOUTH: Tile = 000007, Process = 000000, Comm = put
(PID.TID 0000.0001) //                bi = 000001, bj = 000004
(PID.TID 0000.0001) //       NORTH: Tile = 000003, Process = 000000, Comm = put
(PID.TID 0000.0001) //                bi = 000001, bj = 000002
(PID.TID 0000.0001) // Tile number: 000002 (process no. = 000000)
(PID.TID 0000.0001) //        WEST: Tile = 000001, Process = 000000, Comm = put
(PID.TID 0000.0001) //                bi = 000001, bj = 000001
(PID.TID 0000.0001) //        EAST: Tile = 000001, Process = 000000, Comm = put
(PID.TID 0000.0001) //                bi = 000001, bj = 000001
(PID.TID 0000.0001) //       SOUTH: Tile = 000008, Process = 000000, Comm = put
(PID.TID 0000.0001) //                bi = 000002, bj = 000004
(PID.TID 0000.0001) //       NORTH: Tile = 000004, Process = 000000, Comm = put
(PID.TID 0000.0001) //                bi = 000002, bj = 000002
(PID.TID 0000.0001) // Tile number: 000003 (process no. = 000000)
(PID.TID 0000.0001) //        WEST: Tile = 000004, Process = 000000, Comm = put
(PID.TID 0000.0001) //                bi = 000002, bj = 000002
(PID.TID 0000.0001) //        EAST: Tile = 000004, Process = 000000, Comm = put
(PID.TID 0000.0001) //                bi = 000002, bj = 000002
(PID.TID 0000.0001) //       SOUTH: Tile = 000001, Process = 000000, Comm = put
(PID.TID 0000.0001) //                bi = 000001, bj = 000001
(PID.TID 0000.0001) //       NORTH: Tile = 000005, Process = 000000, Comm = put
(PID.TID 0000.0001) //                bi = 000001, bj = 000003
(PID.TID 0000.0001) // Tile number: 000004 (process no. = 000000)
(PID.TID 0000.0001) //        WEST: Tile = 000003, Process = 000000, Comm = put
(PID.TID 0000.0001) //                bi = 000001, bj = 000002
(PID.TID 0000.0001) //        EAST: Tile = 000003, Process = 000000, Comm = put
(PID.TID 0000.0001) //                bi = 000001, bj = 000002
(PID.TID 0000.0001) //       SOUTH: Tile = 000002, Process = 000000, Comm = put
(PID.TID 0000.0001) //                bi = 000002, bj = 000001
(PID.TID 0000.0001) //       NORTH: Tile = 000006, Process = 000000, Comm = put
(PID.TID 0000.0001) //                bi = 000002, bj = 000003
(PID.TID 0000.0001) // Tile number: 000005 (process no. = 000000)
(PID.TID 0000.0001) //        WEST: Tile = 000006, Process = 000000, Comm = put
(PID.TID 0000.0001) //                bi = 000002, bj = 000003
(PID.TID 0000.0001) //        EAST: Tile = 000006, Process = 000000, Comm = put
(PID.TID 0000.0001) //                bi = 000002, bj = 000003
(PID.TID 0000.0001) //       SOUTH: Tile = 000003, Process = 000000, Comm = put
(PID.TID 0000.0001) //                bi = 000001, bj = 000002
(PID.TID 0000.0001) //       NORTH: Tile = 000007, Process = 000000, Comm = put
(PID.TID 0000.0001) //                bi = 000001, bj = 000004
(PID.TID 0000.0001) // Tile number: 000006 (process no. = 000000)
(PID.TID 0000.0001) //        WEST: Tile = 000005, Process = 000000, Comm = put
(PID.TID 0000.0001) //                bi = 000001, bj = 000003
(PID.TID 0000.0001) //        EAST: Tile = 000005, Process = 000000, Comm = put
(PID.TID 0000.0001) //                bi = 000001, bj = 000003
(PID.TID 0000.0001) //       SOUTH: Tile = 000004, Process = 000000, Comm = put
(PID.TID 0000.0001) //                bi = 000002, bj = 000002
(PID.TID 0000.0001) //       NORTH: Tile = 000008, Process = 000000, Comm = put
(PID.TID 0000.0001) //                bi = 000002, bj = 000004
(PID.TID 0000.0001) // Tile number: 000007 (process no. = 000000)
(PID.TID 0000.0001) //        WEST: Tile = 000008, Process = 000000, Comm = put
(PID.TID 0000.0001) //                bi = 000002, bj = 000004
(PID.TID 0000.0001) //        EAST: Tile = 000008, Process = 000000, Comm = put
(PID.TID 0000.0001) //                bi = 000002, bj = 000004
(PID.TID 0000.0001) //       SOUTH: Tile = 000005, Process = 000000, Comm = put
(PID.TID 0000.0001) //                bi = 000001, bj = 000003
(PID.TID 0000.0001) //       NORTH: Tile = 000001, Process = 000000, Comm = put
(PID.TID 0000.0001) //                bi = 000001, bj = 000001
(PID.TID 0000.0001) // Tile number: 000008 (process no. = 000000)
(PID.TID 0000.0001) //        WEST: Tile = 000007, Process = 000000, Comm = put
(PID.TID 0000.0001) //                bi = 000001, bj = 000004
(PID.TID 0000.0001) //        EAST: Tile = 000007, Process = 000000, Comm = put
(PID.TID 0000.0001) //                bi = 000001, bj = 000004
(PID.TID 0000.0001) //       SOUTH: Tile = 000006, Process = 000000, Comm = put
(PID.TID 0000.0001) //                bi = 000002, bj = 000003
(PID.TID 0000.0001) //       NORTH: Tile = 000002, Process = 000000, Comm = put
(PID.TID 0000.0001) //                bi = 000002, bj = 000001
(PID.TID 0000.0001) 
(PID.TID 0000.0001)  INI_PARMS: opening model parameter file "data"
(PID.TID 0000.0001)  OPEN_COPY_DATA_FILE: opening file data
(PID.TID 0000.0001) // =======================================================
(PID.TID 0000.0001) // Parameter file "data"
(PID.TID 0000.0001) // =======================================================
(PID.TID 0000.0001) ># ====================
(PID.TID 0000.0001) ># | Model parameters |
(PID.TID 0000.0001) ># ====================
(PID.TID 0000.0001) >#
(PID.TID 0000.0001) ># Continuous equation parameters
(PID.TID 0000.0001) > &PARM01
(PID.TID 0000.0001) > Tref = 30*-1.9,
(PID.TID 0000.0001) > Sref = 30*34.4,
(PID.TID 0000.0001) > viscAz=1.E-3,
(PID.TID 0000.0001) > viscAh=600.0,
(PID.TID 0000.0001) > no_slip_sides=.FALSE.,
(PID.TID 0000.0001) > no_slip_bottom=.FALSE.,
(PID.TID 0000.0001) > diffKhT=100.0,
(PID.TID 0000.0001) > diffKzT=5.E-5,
(PID.TID 0000.0001) > diffKhS=100.0,
(PID.TID 0000.0001) > diffKzS=5.E-5,
(PID.TID 0000.0001) > bottomDragQuadratic=2.5E-3,
(PID.TID 0000.0001) > eosType='JMD95Z',
(PID.TID 0000.0001) > HeatCapacity_cp = 3974.0,
(PID.TID 0000.0001) > rhoConst=1030.,
(PID.TID 0000.0001) > rhoConst=1030.,
(PID.TID 0000.0001) > gravity=9.81,
(PID.TID 0000.0001) > convertFW2Salt = 33.4,
(PID.TID 0000.0001) > rigidLid=.FALSE.,
(PID.TID 0000.0001) > implicitFreeSurface=.TRUE.,
(PID.TID 0000.0001) > exactConserv=.TRUE.,
(PID.TID 0000.0001) > hFacMin=0.05,
(PID.TID 0000.0001) > nonHydrostatic=.FALSE.,
(PID.TID 0000.0001) > readBinaryPrec=64,
(PID.TID 0000.0001) > useCDScheme = .TRUE.,
(PID.TID 0000.0001) > /
(PID.TID 0000.0001) >
(PID.TID 0000.0001) ># Elliptic solver parameters
(PID.TID 0000.0001) > &PARM02
(PID.TID 0000.0001) > cg2dMaxIters=1000,
(PID.TID 0000.0001) > cg2dTargetResidual=1.E-13,
(PID.TID 0000.0001) > cg3dMaxIters=400,
(PID.TID 0000.0001) > cg3dTargetResidual=1.E-13,
(PID.TID 0000.0001) > /
(PID.TID 0000.0001) >
(PID.TID 0000.0001) ># Time stepping parameters
(PID.TID 0000.0001) > &PARM03
(PID.TID 0000.0001) > nIter0=0,
(PID.TID 0000.0001) > nTimeSteps=20,
(PID.TID 0000.0001) > deltaT=1800.0,
(PID.TID 0000.0001) > abEps=0.1,
(PID.TID 0000.0001) > cAdjFreq = -1.,
(PID.TID 0000.0001) > tauCD = 400000.,
(PID.TID 0000.0001) > pChkptFreq=0.0,
(PID.TID 0000.0001) > chkptFreq=0.0,
(PID.TID 0000.0001) > dumpFreq=0.0,
(PID.TID 0000.0001) > taveFreq=0.0,
(PID.TID 0000.0001) > monitorFreq=1.,
(PID.TID 0000.0001) > monitorSelect=2,
(PID.TID 0000.0001) > /
(PID.TID 0000.0001) >
(PID.TID 0000.0001) ># Gridding parameters
(PID.TID 0000.0001) > &PARM04
(PID.TID 0000.0001) > usingSphericalPolarGrid=.TRUE.,
(PID.TID 0000.0001) > ygOrigin = -80.0,
(PID.TID 0000.0001) > delX=50*0.3,
(PID.TID 0000.0001) > delY=100*0.1,
(PID.TID 0000.0001) > delZ=30*30.0,
(PID.TID 0000.0001) > /
(PID.TID 0000.0001) >
(PID.TID 0000.0001) ># Input datasets
(PID.TID 0000.0001) > &PARM05
(PID.TID 0000.0001) > bathyFile='bathy.box',
(PID.TID 0000.0001) > /
(PID.TID 0000.0001) 
(PID.TID 0000.0001)  INI_PARMS ; starts to read PARM01
(PID.TID 0000.0001)  INI_PARMS ; read PARM01 : OK
(PID.TID 0000.0001)  INI_PARMS ; starts to read PARM02
(PID.TID 0000.0001)  INI_PARMS ; read PARM02 : OK
(PID.TID 0000.0001)  INI_PARMS ; starts to read PARM03
(PID.TID 0000.0001)  INI_PARMS ; read PARM03 : OK
(PID.TID 0000.0001)  INI_PARMS ; starts to read PARM04
(PID.TID 0000.0001)  INI_PARMS ; read PARM04 : OK
(PID.TID 0000.0001)  INI_PARMS ; starts to read PARM05
(PID.TID 0000.0001)  INI_PARMS ; read PARM05 : OK
(PID.TID 0000.0001)  INI_PARMS: finished reading file "data"
(PID.TID 0000.0001)  PACKAGES_BOOT: opening data.pkg
(PID.TID 0000.0001)  OPEN_COPY_DATA_FILE: opening file data.pkg
(PID.TID 0000.0001) // =======================================================
(PID.TID 0000.0001) // Parameter file "data.pkg"
(PID.TID 0000.0001) // =======================================================
(PID.TID 0000.0001) ># Packages
(PID.TID 0000.0001) > &PACKAGES
(PID.TID 0000.0001) > useDiagnostics = .TRUE.,
(PID.TID 0000.0001) > useShelfIce=.true.,
(PID.TID 0000.0001) > useIcefront=.true.,
(PID.TID 0000.0001) > /
(PID.TID 0000.0001) 
(PID.TID 0000.0001)  PACKAGES_BOOT: finished reading data.pkg
(PID.TID 0000.0001)  PACKAGES_BOOT: On/Off package Summary
 --------  pkgs with a standard "usePKG" On/Off switch in "data.pkg":  --------
 pkg/obcs                 compiled but not used ( useOBCS                  = F )
 pkg/shelfice             compiled   and   used ( useShelfIce              = T )
 pkg/icefront             compiled   and   used ( useICEFRONT              = T )
 pkg/diagnostics          compiled   and   used ( useDiagnostics           = T )
 pkg/mnc                  compiled but not used ( useMNC                   = F )
 -------- pkgs without standard "usePKG" On/Off switch in "data.pkg":  --------
 pkg/generic_advdiff      compiled   and   used ( useGAD                   = T )
 pkg/mom_common           compiled   and   used ( momStepping              = T )
 pkg/mom_vecinv           compiled but not used ( +vectorInvariantMomentum = F )
 pkg/mom_fluxform         compiled   and   used ( & not vectorInvariantMom = T )
 pkg/cd_code              compiled   and   used ( useCDscheme              = T )
 pkg/monitor              compiled   and   used ( monitorFreq > 0.         = T )
 pkg/debug                compiled but not used ( debugMode                = F )
 pkg/rw                   compiled   and   used
 pkg/mdsio                compiled   and   used
(PID.TID 0000.0001)  PACKAGES_BOOT: End of package Summary
(PID.TID 0000.0001) 
(PID.TID 0000.0001)  SHELFICE_READPARMS: opening data.shelfice
(PID.TID 0000.0001)  OPEN_COPY_DATA_FILE: opening file data.shelfice
(PID.TID 0000.0001) // =======================================================
(PID.TID 0000.0001) // Parameter file "data.shelfice"
(PID.TID 0000.0001) // =======================================================
(PID.TID 0000.0001) ># ===================================
(PID.TID 0000.0001) ># | Parameters for SHELFICE package |
(PID.TID 0000.0001) ># ===================================
(PID.TID 0000.0001) > &SHELFICE_PARM01
(PID.TID 0000.0001) > SHELFICEboundaryLayer = .TRUE.,
(PID.TID 0000.0001) > SHELFICEtopoFile='icetopo.exp1',
(PID.TID 0000.0001) > SHELFICEloadAnomalyFile = 'phi0surf.exp1.jmd95z',
(PID.TID 0000.0001) > SHELFICEconserve = .true.,
(PID.TID 0000.0001) > useISOMIPTD = .FALSE.,
(PID.TID 0000.0001) > no_slip_shelfice = .false.,
(PID.TID 0000.0001) > SHELFICEwriteState = .TRUE.,
(PID.TID 0000.0001) > /
(PID.TID 0000.0001) 
(PID.TID 0000.0001)  SHELFICE_READPARMS: finished reading data.shelfice
(PID.TID 0000.0001)  ICEFRONT_READPARMS: opening data.icefront
(PID.TID 0000.0001)  OPEN_COPY_DATA_FILE: opening file data.icefront
(PID.TID 0000.0001) // =======================================================
(PID.TID 0000.0001) // Parameter file "data.icefront"
(PID.TID 0000.0001) // =======================================================
(PID.TID 0000.0001) ># ===================================
(PID.TID 0000.0001) ># | Parameters for ICEFRONT package |
(PID.TID 0000.0001) ># ===================================
(PID.TID 0000.0001) > &ICEFRONT_PARM01
(PID.TID 0000.0001) > ICEFRONTdepthFile  = 'frontdepth.xuyun',
(PID.TID 0000.0001) > ICEFRONTlengthFile = 'frontcircum.xuyun',
(PID.TID 0000.0001) > applyIcefrontTendT = .TRUE.,
(PID.TID 0000.0001) > applyIcefrontTendS = .TRUE.,
(PID.TID 0000.0001) > /
(PID.TID 0000.0001) >
(PID.TID 0000.0001) ># &ICEFRONT_EXF_PARM02
(PID.TID 0000.0001) >#  SGRunOffstartdate1 = 19920101,
(PID.TID 0000.0001) >#  SGRunOffstartdate2 = 000000,
(PID.TID 0000.0001) >#  SGRunOffperiod     = -12.,
(PID.TID 0000.0001) >#  SGRunOffconst      = 0.,
(PID.TID 0000.0001) >#  SGRunOff_inscal    = 1.,
(PID.TID 0000.0001) >#  SGRunOffFile       = 'subglacial_runoff.150',
(PID.TID 0000.0001) >#&
(PID.TID 0000.0001) 
(PID.TID 0000.0001)  ICEFRONT_READPARMS: reading ICEFRONT_PARM01
(PID.TID 0000.0001)  ICEFRONT_READPARMS: finished reading data.icefront
(PID.TID 0000.0001)  DIAGNOSTICS_READPARMS: opening data.diagnostics
(PID.TID 0000.0001)  OPEN_COPY_DATA_FILE: opening file data.diagnostics
(PID.TID 0000.0001) // =======================================================
(PID.TID 0000.0001) // Parameter file "data.diagnostics"
(PID.TID 0000.0001) // =======================================================
(PID.TID 0000.0001) ># Diagnostic Package Choices
(PID.TID 0000.0001) >#--------------------
(PID.TID 0000.0001) >#  dumpAtLast (logical): always write output at the end of simulation (default=F)
(PID.TID 0000.0001) >#  diag_mnc   (logical): write to NetCDF files (default=useMNC)
(PID.TID 0000.0001) >#--for each output-stream:
(PID.TID 0000.0001) >#  fileName(n) : prefix of the output file name (max 80c long) for outp.stream n
(PID.TID 0000.0001) >#  frequency(n):< 0 : write snap-shot output every |frequency| seconds
(PID.TID 0000.0001) >#               > 0 : write time-average output every frequency seconds
(PID.TID 0000.0001) >#  timePhase(n)     : write at time = timePhase + multiple of |frequency|
(PID.TID 0000.0001) >#    averagingFreq  : frequency (in s) for periodic averaging interval
(PID.TID 0000.0001) >#    averagingPhase : phase     (in s) for periodic averaging interval
(PID.TID 0000.0001) >#    repeatCycle    : number of averaging intervals in 1 cycle
(PID.TID 0000.0001) >#  levels(:,n) : list of levels to write to file (Notes: declared as REAL)
(PID.TID 0000.0001) >#                when this entry is missing, select all common levels of this list
(PID.TID 0000.0001) >#  fields(:,n) : list of selected diagnostics fields (8.c) in outp.stream n
(PID.TID 0000.0001) >#                (see "available_diagnostics.log" file for the full list of diags)
(PID.TID 0000.0001) >#  missing_value(n) : missing value for real-type fields in output file "n"
(PID.TID 0000.0001) >#  fileFlags(n)     : specific code (8c string) for output file "n"
(PID.TID 0000.0001) >#--------------------
(PID.TID 0000.0001) > &DIAGNOSTICS_LIST
(PID.TID 0000.0001) >  fields(1:2,1)  = 'SHIfwFlx','SHIhtFlx',
(PID.TID 0000.0001) >   fileName(1) = 'shelficeDiag',
(PID.TID 0000.0001) >  frequency(1) = 18000.,
(PID.TID 0000.0001) >  fields(1:2,2)  = 'ICFfwFlx','ICFhtFlx',
(PID.TID 0000.0001) >   fileName(2) = 'icefrontDiag',
(PID.TID 0000.0001) >  frequency(2) = 18000.,
(PID.TID 0000.0001) > /
(PID.TID 0000.0001) >
(PID.TID 0000.0001) >#--------------------
(PID.TID 0000.0001) ># Parameter for Diagnostics of per level statistics:
(PID.TID 0000.0001) >#--------------------
(PID.TID 0000.0001) >#  diagSt_mnc (logical): write stat-diags to NetCDF files (default=diag_mnc)
(PID.TID 0000.0001) >#  diagSt_regMaskFile : file containing the region-mask to read-in
(PID.TID 0000.0001) >#  nSetRegMskFile   : number of region-mask sets within the region-mask file
(PID.TID 0000.0001) >#  set_regMask(i)   : region-mask set-index that identifies the region "i"
(PID.TID 0000.0001) >#  val_regMask(i)   : region "i" identifier value in the region mask
(PID.TID 0000.0001) >#--for each output-stream:
(PID.TID 0000.0001) >#  stat_fName(n) : prefix of the output file name (max 80c long) for outp.stream n
(PID.TID 0000.0001) >#  stat_freq(n):< 0 : write snap-shot output every |stat_freq| seconds
(PID.TID 0000.0001) >#               > 0 : write time-average output every stat_freq seconds
(PID.TID 0000.0001) >#  stat_phase(n)    : write at time = stat_phase + multiple of |stat_freq|
(PID.TID 0000.0001) >#  stat_region(:,n) : list of "regions" (default: 1 region only=global)
(PID.TID 0000.0001) >#  stat_fields(:,n) : list of selected diagnostics fields (8.c) in outp.stream n
(PID.TID 0000.0001) >#                (see "available_diagnostics.log" file for the full list of diags)
(PID.TID 0000.0001) >#--------------------
(PID.TID 0000.0001) > &DIAG_STATIS_PARMS
(PID.TID 0000.0001) >#stat_fields(1:5,1)  = 'ETAN    ','UVEL    ','VVEL    ','WVEL    ', 'THETA   ',
(PID.TID 0000.0001) ># stat_fName(1) = 'dynStDiag',
(PID.TID 0000.0001) >#  stat_freq(1) = -3600.,
(PID.TID 0000.0001) ># stat_phase(1) = 0.,
(PID.TID 0000.0001) > /
(PID.TID 0000.0001) 
(PID.TID 0000.0001) S/R DIAGNOSTICS_READPARMS, read namelist "diagnostics_list": start
(PID.TID 0000.0001) S/R DIAGNOSTICS_READPARMS, read namelist "diagnostics_list": OK
(PID.TID 0000.0001) S/R DIAGNOSTICS_READPARMS, read namelist "DIAG_STATIS_PARMS": start
(PID.TID 0000.0001) S/R DIAGNOSTICS_READPARMS, read namelist "DIAG_STATIS_PARMS": OK
(PID.TID 0000.0001)  DIAGNOSTICS_READPARMS: global parameter summary:
(PID.TID 0000.0001)  dumpAtLast = /* always write time-ave diags at the end */
(PID.TID 0000.0001)                   F
(PID.TID 0000.0001)     ;
(PID.TID 0000.0001)  diag_mnc =   /* write NetCDF output files */
(PID.TID 0000.0001)                   F
(PID.TID 0000.0001)     ;
(PID.TID 0000.0001)  useMissingValue = /* put MissingValue where mask = 0 */
(PID.TID 0000.0001)                   F
(PID.TID 0000.0001)     ;
(PID.TID 0000.0001)  diagCG_maxIters = /* max number of iters in diag_cg2d */
(PID.TID 0000.0001)                    1000
(PID.TID 0000.0001)     ;
(PID.TID 0000.0001)  diagCG_resTarget = /* residual target for diag_cg2d */
(PID.TID 0000.0001)                 1.000000000000000E-13
(PID.TID 0000.0001)     ;
(PID.TID 0000.0001)  diagCG_pcOffDFac = /* preconditioner off-diagonal factor */
(PID.TID 0000.0001)                 9.611687812379854E-01
(PID.TID 0000.0001)     ;
(PID.TID 0000.0001) -----------------------------------------------------
(PID.TID 0000.0001)  DIAGNOSTICS_READPARMS: active diagnostics summary:
(PID.TID 0000.0001) -----------------------------------------------------
(PID.TID 0000.0001) Creating Output Stream: shelficeDiag
(PID.TID 0000.0001) Output Frequency:      18000.000000 ; Phase:           0.000000
(PID.TID 0000.0001)  Averaging Freq.:      18000.000000 , Phase:           0.000000 , Cycle:   1
(PID.TID 0000.0001)  missing value: -9.990000000000E+02
(PID.TID 0000.0001)  Levels:    will be set later
(PID.TID 0000.0001)  Fields:    SHIfwFlx SHIhtFlx
(PID.TID 0000.0001) Creating Output Stream: icefrontDiag
(PID.TID 0000.0001) Output Frequency:      18000.000000 ; Phase:           0.000000
(PID.TID 0000.0001)  Averaging Freq.:      18000.000000 , Phase:           0.000000 , Cycle:   1
(PID.TID 0000.0001)  missing value: -9.990000000000E+02
(PID.TID 0000.0001)  Levels:    will be set later
(PID.TID 0000.0001)  Fields:    ICFfwFlx ICFhtFlx
(PID.TID 0000.0001) -----------------------------------------------------
(PID.TID 0000.0001)  DIAGNOSTICS_READPARMS: statistics diags. summary:
(PID.TID 0000.0001) -----------------------------------------------------
(PID.TID 0000.0001) 
(PID.TID 0000.0001) SET_PARMS: done
(PID.TID 0000.0001) Enter INI_VERTICAL_GRID: setInterFDr=    T ; setCenterDr=    F
(PID.TID 0000.0001) %MON XC_max                       =   1.4850000000000E+01
(PID.TID 0000.0001) %MON XC_min                       =   1.5000000000000E-01
(PID.TID 0000.0001) %MON XC_mean                      =   7.5000000000000E+00
(PID.TID 0000.0001) %MON XC_sd                        =   4.3292609068985E+00
(PID.TID 0000.0001) %MON XG_max                       =   1.4700000000000E+01
(PID.TID 0000.0001) %MON XG_min                       =   1.1102230246252E-16
(PID.TID 0000.0001) %MON XG_mean                      =   7.3500000000000E+00
(PID.TID 0000.0001) %MON XG_sd                        =   4.3292609068985E+00
(PID.TID 0000.0001) %MON DXC_max                      =   1.1380125394806E+04
(PID.TID 0000.0001) %MON DXC_min                      =   5.8203914905589E+03
(PID.TID 0000.0001) %MON DXC_mean                     =   8.6215028627207E+03
(PID.TID 0000.0001) %MON DXC_sd                       =   1.6219001271572E+03
(PID.TID 0000.0001) %MON DXF_max                      =   1.1380125394806E+04
(PID.TID 0000.0001) %MON DXF_min                      =   5.8203914905589E+03
(PID.TID 0000.0001) %MON DXF_mean                     =   8.6215028627207E+03
(PID.TID 0000.0001) %MON DXF_sd                       =   1.6219001271572E+03
(PID.TID 0000.0001) %MON DXG_max                      =   1.1352761512017E+04
(PID.TID 0000.0001) %MON DXG_min                      =   5.7917296935586E+03
(PID.TID 0000.0001) %MON DXG_mean                     =   8.5934208253080E+03
(PID.TID 0000.0001) %MON DXG_sd                       =   1.6222785520817E+03
(PID.TID 0000.0001) %MON DXV_max                      =   1.1352761512017E+04
(PID.TID 0000.0001) %MON DXV_min                      =   5.7917296935586E+03
(PID.TID 0000.0001) %MON DXV_mean                     =   8.5934208253080E+03
(PID.TID 0000.0001) %MON DXV_sd                       =   1.6222785520817E+03
(PID.TID 0000.0001) %MON YC_max                       =  -7.0050000000001E+01
(PID.TID 0000.0001) %MON YC_min                       =  -7.9950000000000E+01
(PID.TID 0000.0001) %MON YC_mean                      =  -7.5000000000000E+01
(PID.TID 0000.0001) %MON YC_sd                        =   2.8866070047720E+00
(PID.TID 0000.0001) %MON YG_max                       =  -7.0100000000001E+01
(PID.TID 0000.0001) %MON YG_min                       =  -8.0000000000000E+01
(PID.TID 0000.0001) %MON YG_mean                      =  -7.5050000000000E+01
(PID.TID 0000.0001) %MON YG_sd                        =   2.8866070047721E+00
(PID.TID 0000.0001) %MON DYC_max                      =   1.1117747335204E+04
(PID.TID 0000.0001) %MON DYC_min                      =   1.1117747335204E+04
(PID.TID 0000.0001) %MON DYC_mean                     =   1.1117747335204E+04
(PID.TID 0000.0001) %MON DYC_sd                       =   4.1836756281555E-11
(PID.TID 0000.0001) %MON DYF_max                      =   1.1117747335204E+04
(PID.TID 0000.0001) %MON DYF_min                      =   1.1117747335204E+04
(PID.TID 0000.0001) %MON DYF_mean                     =   1.1117747335204E+04
(PID.TID 0000.0001) %MON DYF_sd                       =   4.1836756281555E-11
(PID.TID 0000.0001) %MON DYG_max                      =   1.1117747335204E+04
(PID.TID 0000.0001) %MON DYG_min                      =   1.1117747335204E+04
(PID.TID 0000.0001) %MON DYG_mean                     =   1.1117747335204E+04
(PID.TID 0000.0001) %MON DYG_sd                       =   4.1836756281555E-11
(PID.TID 0000.0001) %MON DYU_max                      =   1.1117747335204E+04
(PID.TID 0000.0001) %MON DYU_min                      =   1.1117747335204E+04
(PID.TID 0000.0001) %MON DYU_mean                     =   1.1117747335204E+04
(PID.TID 0000.0001) %MON DYU_sd                       =   4.1836756281555E-11
(PID.TID 0000.0001) %MON RA_max                       =   1.2652134272379E+08
(PID.TID 0000.0001) %MON RA_min                       =   6.4709633770803E+07
(PID.TID 0000.0001) %MON RA_mean                      =   9.5851678311587E+07
(PID.TID 0000.0001) %MON RA_sd                        =   1.8031873527992E+07
(PID.TID 0000.0001) %MON RAW_max                      =   1.2652134272379E+08
(PID.TID 0000.0001) %MON RAW_min                      =   6.4709633770803E+07
(PID.TID 0000.0001) %MON RAW_mean                     =   9.5851678311587E+07
(PID.TID 0000.0001) %MON RAW_sd                       =   1.8031873527992E+07
(PID.TID 0000.0001) %MON RAS_max                      =   1.2621711802744E+08
(PID.TID 0000.0001) %MON RAS_min                      =   6.4390979194019E+07
(PID.TID 0000.0001) %MON RAS_mean                     =   9.5539469354603E+07
(PID.TID 0000.0001) %MON RAS_sd                       =   1.8036080760153E+07
(PID.TID 0000.0001) %MON RAZ_max                      =   1.2621711802744E+08
(PID.TID 0000.0001) %MON RAZ_min                      =   6.4390979194019E+07
(PID.TID 0000.0001) %MON RAZ_mean                     =   9.5539469354603E+07
(PID.TID 0000.0001) %MON RAZ_sd                       =   1.8036080760153E+07
(PID.TID 0000.0001) %MON AngleCS_max                  =   1.0000000000000E+00
(PID.TID 0000.0001) %MON AngleCS_min                  =   1.0000000000000E+00
(PID.TID 0000.0001) %MON AngleCS_mean                 =   1.0000000000000E+00
(PID.TID 0000.0001) %MON AngleCS_sd                   =   0.0000000000000E+00
(PID.TID 0000.0001) %MON AngleSN_max                  =   0.0000000000000E+00
(PID.TID 0000.0001) %MON AngleSN_min                  =   0.0000000000000E+00
(PID.TID 0000.0001) %MON AngleSN_mean                 =   0.0000000000000E+00
(PID.TID 0000.0001) %MON AngleSN_sd                   =   0.0000000000000E+00
(PID.TID 0000.0001)  MDS_READ_FIELD: opening global file: bathy.box
(PID.TID 0000.0001)  MDS_READ_FIELD: opening global file: icetopo.exp1
(PID.TID 0000.0001) // =======================================================
(PID.TID 0000.0001) // Field Model R_low (ini_masks_etc)
(PID.TID 0000.0001) // CMIN =         -9.000000000000000E+02
(PID.TID 0000.0001) // CMAX =         -9.000000000000000E+02
(PID.TID 0000.0001) // CINT =          0.000000000000000E+00
(PID.TID 0000.0001) // SYMBOLS (CMIN->CMAX): -abcdefghijklmnopqrstuvwxyz+
(PID.TID 0000.0001) //                  0.0: .
(PID.TID 0000.0001) // RANGE I (Lo:Hi:Step):(    -2:    53:     1)
(PID.TID 0000.0001) // RANGE J (Lo:Hi:Step):(   103:    -2:    -1)
(PID.TID 0000.0001) // RANGE K (Lo:Hi:Step):(   1:   1:   1)
(PID.TID 0000.0001) // =======================================================
(PID.TID 0000.0001) // =======================================================
(PID.TID 0000.0001) // END OF FIELD                                          =
(PID.TID 0000.0001) // =======================================================
(PID.TID 0000.0001) 
(PID.TID 0000.0001) // =======================================================
(PID.TID 0000.0001) // Field Model Ro_surf (ini_masks_etc)
(PID.TID 0000.0001) // CMIN =         -6.812500000000010E+02
(PID.TID 0000.0001) // CMAX =         -2.000000000000000E+02
(PID.TID 0000.0001) // CINT =          1.782407407407411E+01
(PID.TID 0000.0001) // SYMBOLS (CMIN->CMAX): -abcdefghijklmnopqrstuvwxyz+
(PID.TID 0000.0001) //                  0.0: .
(PID.TID 0000.0001) // RANGE I (Lo:Hi:Step):(    -2:    53:     1)
(PID.TID 0000.0001) // RANGE J (Lo:Hi:Step):(   103:    -2:    -1)
(PID.TID 0000.0001) // RANGE K (Lo:Hi:Step):(   1:   1:   1)
(PID.TID 0000.0001) // =======================================================
(PID.TID 0000.0001) K =   1
(PID.TID 0000.0001) //                I=7       I=17      I=27      I=31      I=41      I=51
(PID.TID 0000.0001) // |--J--|210123456|890123456|890123456|834567890|234567890|234567890|23
(PID.TID 0000.0001) //    103 aaa.aaaaaaaaaaaaaaaaaaaaaaaaaaaaaaaaaaaaaaaaaaaaaaaaaaaaaaa.aa
(PID.TID 0000.0001) //    102 ---.-------------------------------------------------------.--
(PID.TID 0000.0001) //    101 ..............................................................
(PID.TID 0000.0001) //    100 ..............................................................
(PID.TID 0000.0001) //     99 ..............................................................
(PID.TID 0000.0001) //     98 ..............................................................
(PID.TID 0000.0001) //     97 ..............................................................
(PID.TID 0000.0001) //     96 ..............................................................
(PID.TID 0000.0001) //     95 ..............................................................
(PID.TID 0000.0001) //     94 ..............................................................
(PID.TID 0000.0001) //     93 ..............................................................
(PID.TID 0000.0001) //     92 ..............................................................
(PID.TID 0000.0001) //     91 ..............................................................
(PID.TID 0000.0001) //     90 ..............................................................
(PID.TID 0000.0001) //     89 ..............................................................
(PID.TID 0000.0001) //     88 ..............................................................
(PID.TID 0000.0001) //     87 ..............................................................
(PID.TID 0000.0001) //     86 ..............................................................
(PID.TID 0000.0001) //     85 ..............................................................
(PID.TID 0000.0001) //     84 ..............................................................
(PID.TID 0000.0001) //     83 ..............................................................
(PID.TID 0000.0001) //     82 ..............................................................
(PID.TID 0000.0001) //     81 ..............................................................
(PID.TID 0000.0001) //     80 ..............................................................
(PID.TID 0000.0001) //     79 ..............................................................
(PID.TID 0000.0001) //     78 ..............................................................
(PID.TID 0000.0001) //     77 ..............................................................
(PID.TID 0000.0001) //     76 ..............................................................
(PID.TID 0000.0001) //     75 ..............................................................
(PID.TID 0000.0001) //     74 ..............................................................
(PID.TID 0000.0001) //     73 ..............................................................
(PID.TID 0000.0001) //     78 ..............................................................
(PID.TID 0000.0001) //     77 ..............................................................
(PID.TID 0000.0001) //     76 ..............................................................
(PID.TID 0000.0001) //     75 ..............................................................
(PID.TID 0000.0001) //     74 ..............................................................
(PID.TID 0000.0001) //     73 ..............................................................
(PID.TID 0000.0001) //     72 ..............................................................
(PID.TID 0000.0001) //     71 ..............................................................
(PID.TID 0000.0001) //     70 ..............................................................
(PID.TID 0000.0001) //     69 ..............................................................
(PID.TID 0000.0001) //     68 ..............................................................
(PID.TID 0000.0001) //     67 ..............................................................
(PID.TID 0000.0001) //     66 ..............................................................
(PID.TID 0000.0001) //     65 ..............................................................
(PID.TID 0000.0001) //     64 ..............................................................
(PID.TID 0000.0001) //     63 ..............................................................
(PID.TID 0000.0001) //     62 ..............................................................
(PID.TID 0000.0001) //     61 ..............................................................
(PID.TID 0000.0001) //     60 ..............................................................
(PID.TID 0000.0001) //     59 ..............................................................
(PID.TID 0000.0001) //     58 ..............................................................
(PID.TID 0000.0001) //     57 ..............................................................
(PID.TID 0000.0001) //     56 ..............................................................
(PID.TID 0000.0001) //     55 ..............................................................
(PID.TID 0000.0001) //     54 ..............................................................
(PID.TID 0000.0001) //     53 ..............................................................
(PID.TID 0000.0001) //     52 ..............................................................
(PID.TID 0000.0001) //     51 ..............................................................
(PID.TID 0000.0001) //     50 +++.+++++++++++++++++++++++++++++++++++++++++++++++++++++++.++
(PID.TID 0000.0001) //     49 +++.+++++++++++++++++++++++++++++++++++++++++++++++++++++++.++
(PID.TID 0000.0001) //     48 +++.+++++++++++++++++++++++++++++++++++++++++++++++++++++++.++
(PID.TID 0000.0001) //     53 ..............................................................
(PID.TID 0000.0001) //     52 ..............................................................
(PID.TID 0000.0001) //     51 ..............................................................
(PID.TID 0000.0001) //     50 +++.+++++++++++++++++++++++++++++++++++++++++++++++++++++++.++
(PID.TID 0000.0001) //     49 +++.+++++++++++++++++++++++++++++++++++++++++++++++++++++++.++
(PID.TID 0000.0001) //     48 +++.+++++++++++++++++++++++++++++++++++++++++++++++++++++++.++
(PID.TID 0000.0001) //     47 +++.+++++++++++++++++++++++++++++++++++++++++++++++++++++++.++
(PID.TID 0000.0001) //     46 +++.+++++++++++++++++++++++++++++++++++++++++++++++++++++++.++
(PID.TID 0000.0001) //     45 +++.+++++++++++++++++++++++++++++++++++++++++++++++++++++++.++
(PID.TID 0000.0001) //     44 +++.+++++++++++++++++++++++++++++++++++++++++++++++++++++++.++
(PID.TID 0000.0001) //     43 +++.+++++++++++++++++++++++++++++++++++++++++++++++++++++++.++
(PID.TID 0000.0001) //     42 +++.+++++++++++++++++++++++++++++++++++++++++++++++++++++++.++
(PID.TID 0000.0001) //     41 +++.+++++++++++++++++++++++++++++++++++++++++++++++++++++++.++
(PID.TID 0000.0001) //     40 +++.+++++++++++++++++++++++++++++++++++++++++++++++++++++++.++
(PID.TID 0000.0001) //     39 zzz.zzzzzzzzzzzzzzzzzzzzzzzzzzzzzzzzzzzzzzzzzzzzzzzzzzzzzzz.zz
(PID.TID 0000.0001) //     38 yyy.yyyyyyyyyyyyyyyyyyyyyyyyyyyyyyyyyyyyyyyyyyyyyyyyyyyyyyy.yy
(PID.TID 0000.0001) //     37 yyy.yyyyyyyyyyyyyyyyyyyyyyyyyyyyyyyyyyyyyyyyyyyyyyyyyyyyyyy.yy
(PID.TID 0000.0001) //     36 xxx.xxxxxxxxxxxxxxxxxxxxxxxxxxxxxxxxxxxxxxxxxxxxxxxxxxxxxxx.xx
(PID.TID 0000.0001) //     35 www.wwwwwwwwwwwwwwwwwwwwwwwwwwwwwwwwwwwwwwwwwwwwwwwwwwwwwww.ww
(PID.TID 0000.0001) //     34 vvv.vvvvvvvvvvvvvvvvvvvvvvvvvvvvvvvvvvvvvvvvvvvvvvvvvvvvvvv.vv
(PID.TID 0000.0001) //     33 vvv.vvvvvvvvvvvvvvvvvvvvvvvvvvvvvvvvvvvvvvvvvvvvvvvvvvvvvvv.vv
(PID.TID 0000.0001) //     32 uuu.uuuuuuuuuuuuuuuuuuuuuuuuuuuuuuuuuuuuuuuuuuuuuuuuuuuuuuu.uu
(PID.TID 0000.0001) //     31 ttt.ttttttttttttttttttttttttttttttttttttttttttttttttttttttt.tt
(PID.TID 0000.0001) //     30 ttt.ttttttttttttttttttttttttttttttttttttttttttttttttttttttt.tt
(PID.TID 0000.0001) //     29 sss.sssssssssssssssssssssssssssssssssssssssssssssssssssssss.ss
(PID.TID 0000.0001) //     28 rrr.rrrrrrrrrrrrrrrrrrrrrrrrrrrrrrrrrrrrrrrrrrrrrrrrrrrrrrr.rr
(PID.TID 0000.0001) //     27 rrr.rrrrrrrrrrrrrrrrrrrrrrrrrrrrrrrrrrrrrrrrrrrrrrrrrrrrrrr.rr
(PID.TID 0000.0001) //     26 qqq.qqqqqqqqqqqqqqqqqqqqqqqqqqqqqqqqqqqqqqqqqqqqqqqqqqqqqqq.qq
(PID.TID 0000.0001) //     25 ppp.ppppppppppppppppppppppppppppppppppppppppppppppppppppppp.pp
(PID.TID 0000.0001) //     24 ooo.ooooooooooooooooooooooooooooooooooooooooooooooooooooooo.oo
(PID.TID 0000.0001) //     23 ooo.ooooooooooooooooooooooooooooooooooooooooooooooooooooooo.oo
(PID.TID 0000.0001) //     28 rrr.rrrrrrrrrrrrrrrrrrrrrrrrrrrrrrrrrrrrrrrrrrrrrrrrrrrrrrr.rr
(PID.TID 0000.0001) //     27 rrr.rrrrrrrrrrrrrrrrrrrrrrrrrrrrrrrrrrrrrrrrrrrrrrrrrrrrrrr.rr
(PID.TID 0000.0001) //     26 qqq.qqqqqqqqqqqqqqqqqqqqqqqqqqqqqqqqqqqqqqqqqqqqqqqqqqqqqqq.qq
(PID.TID 0000.0001) //     25 ppp.ppppppppppppppppppppppppppppppppppppppppppppppppppppppp.pp
(PID.TID 0000.0001) //     24 ooo.ooooooooooooooooooooooooooooooooooooooooooooooooooooooo.oo
(PID.TID 0000.0001) //     23 ooo.ooooooooooooooooooooooooooooooooooooooooooooooooooooooo.oo
(PID.TID 0000.0001) //     22 nnn.nnnnnnnnnnnnnnnnnnnnnnnnnnnnnnnnnnnnnnnnnnnnnnnnnnnnnnn.nn
(PID.TID 0000.0001) //     21 mmm.mmmmmmmmmmmmmmmmmmmmmmmmmmmmmmmmmmmmmmmmmmmmmmmmmmmmmmm.mm
(PID.TID 0000.0001) //     20 mmm.mmmmmmmmmmmmmmmmmmmmmmmmmmmmmmmmmmmmmmmmmmmmmmmmmmmmmmm.mm
(PID.TID 0000.0001) //     19 lll.lllllllllllllllllllllllllllllllllllllllllllllllllllllll.ll
(PID.TID 0000.0001) //     18 kkk.kkkkkkkkkkkkkkkkkkkkkkkkkkkkkkkkkkkkkkkkkkkkkkkkkkkkkkk.kk
(PID.TID 0000.0001) //     17 kkk.kkkkkkkkkkkkkkkkkkkkkkkkkkkkkkkkkkkkkkkkkkkkkkkkkkkkkkk.kk
(PID.TID 0000.0001) //     16 jjj.jjjjjjjjjjjjjjjjjjjjjjjjjjjjjjjjjjjjjjjjjjjjjjjjjjjjjjj.jj
(PID.TID 0000.0001) //     15 iii.iiiiiiiiiiiiiiiiiiiiiiiiiiiiiiiiiiiiiiiiiiiiiiiiiiiiiii.ii
(PID.TID 0000.0001) //     14 hhh.hhhhhhhhhhhhhhhhhhhhhhhhhhhhhhhhhhhhhhhhhhhhhhhhhhhhhhh.hh
(PID.TID 0000.0001) //     13 hhh.hhhhhhhhhhhhhhhhhhhhhhhhhhhhhhhhhhhhhhhhhhhhhhhhhhhhhhh.hh
(PID.TID 0000.0001) //     12 ggg.ggggggggggggggggggggggggggggggggggggggggggggggggggggggg.gg
(PID.TID 0000.0001) //     11 fff.fffffffffffffffffffffffffffffffffffffffffffffffffffffff.ff
(PID.TID 0000.0001) //     10 fff.fffffffffffffffffffffffffffffffffffffffffffffffffffffff.ff
(PID.TID 0000.0001) //      9 eee.eeeeeeeeeeeeeeeeeeeeeeeeeeeeeeeeeeeeeeeeeeeeeeeeeeeeeee.ee
(PID.TID 0000.0001) //      8 ddd.ddddddddddddddddddddddddddddddddddddddddddddddddddddddd.dd
(PID.TID 0000.0001) //      7 ddd.ddddddddddddddddddddddddddddddddddddddddddddddddddddddd.dd
(PID.TID 0000.0001) //      6 ccc.ccccccccccccccccccccccccccccccccccccccccccccccccccccccc.cc
(PID.TID 0000.0001) //      5 bbb.bbbbbbbbbbbbbbbbbbbbbbbbbbbbbbbbbbbbbbbbbbbbbbbbbbbbbbb.bb
(PID.TID 0000.0001) //      4 aaa.aaaaaaaaaaaaaaaaaaaaaaaaaaaaaaaaaaaaaaaaaaaaaaaaaaaaaaa.aa
(PID.TID 0000.0001) //      3 aaa.aaaaaaaaaaaaaaaaaaaaaaaaaaaaaaaaaaaaaaaaaaaaaaaaaaaaaaa.aa
(PID.TID 0000.0001) //      2 ---.-------------------------------------------------------.--
(PID.TID 0000.0001) //      1 ..............................................................
(PID.TID 0000.0001) //      0 ..............................................................
(PID.TID 0000.0001) //     -1 ..............................................................
(PID.TID 0000.0001) //     -2 ..............................................................
(PID.TID 0000.0001) // =======================================================
(PID.TID 0000.0001) // END OF FIELD                                          =
(PID.TID 0000.0001) // =======================================================
(PID.TID 0000.0001) 
(PID.TID 0000.0001) // =======================================================
(PID.TID 0000.0001) // Field hFacC at iteration          0
(PID.TID 0000.0001) // CMIN =          1.000000000000000E+00
(PID.TID 0000.0001) // CMAX =          1.000000000000000E+00
(PID.TID 0000.0001) // CINT =          0.000000000000000E+00
(PID.TID 0000.0001) // SYMBOLS (CMIN->CMAX): -abcdefghijklmnopqrstuvwxyz+
(PID.TID 0000.0001) //                  0.0: .
(PID.TID 0000.0001) // RANGE I (Lo:Hi:Step):(    -2:    53:     1)
(PID.TID 0000.0001) // RANGE J (Lo:Hi:Step):(   103:    -2:    -1)
(PID.TID 0000.0001) // RANGE K (Lo:Hi:Step):(   1:   1:   1)
(PID.TID 0000.0001) // =======================================================
(PID.TID 0000.0001) // =======================================================
(PID.TID 0000.0001) // END OF FIELD                                          =
(PID.TID 0000.0001) // =======================================================
(PID.TID 0000.0001) 
(PID.TID 0000.0001) // =======================================================
(PID.TID 0000.0001) // Field hFacW at iteration          0
(PID.TID 0000.0001) // CMIN =          1.000000000000000E+00
(PID.TID 0000.0001) // CMAX =          1.000000000000000E+00
(PID.TID 0000.0001) // CINT =          0.000000000000000E+00
(PID.TID 0000.0001) // SYMBOLS (CMIN->CMAX): -abcdefghijklmnopqrstuvwxyz+
(PID.TID 0000.0001) //                  0.0: .
(PID.TID 0000.0001) // RANGE I (Lo:Hi:Step):(    -2:    53:     1)
(PID.TID 0000.0001) // RANGE J (Lo:Hi:Step):(   103:    -2:    -1)
(PID.TID 0000.0001) // RANGE K (Lo:Hi:Step):(   1:   1:   1)
(PID.TID 0000.0001) // =======================================================
(PID.TID 0000.0001) // =======================================================
(PID.TID 0000.0001) // END OF FIELD                                          =
(PID.TID 0000.0001) // =======================================================
(PID.TID 0000.0001) 
(PID.TID 0000.0001) // =======================================================
(PID.TID 0000.0001) // Field hFacS at iteration          0
(PID.TID 0000.0001) // CMIN =          1.000000000000000E+00
(PID.TID 0000.0001) // CMAX =          1.000000000000000E+00
(PID.TID 0000.0001) // CINT =          0.000000000000000E+00
(PID.TID 0000.0001) // SYMBOLS (CMIN->CMAX): -abcdefghijklmnopqrstuvwxyz+
(PID.TID 0000.0001) //                  0.0: .
(PID.TID 0000.0001) // RANGE I (Lo:Hi:Step):(    -2:    53:     1)
(PID.TID 0000.0001) // RANGE J (Lo:Hi:Step):(   103:    -2:    -1)
(PID.TID 0000.0001) // RANGE K (Lo:Hi:Step):(   1:   1:   1)
(PID.TID 0000.0001) // =======================================================
(PID.TID 0000.0001) // =======================================================
(PID.TID 0000.0001) // END OF FIELD                                          =
(PID.TID 0000.0001) // =======================================================
(PID.TID 0000.0001) 
(PID.TID 0000.0001) GAD_INIT_FIXED: GAD_OlMinSize=  1  0  1
(PID.TID 0000.0001) 
(PID.TID 0000.0001) // ===================================
(PID.TID 0000.0001) // GAD parameters :
(PID.TID 0000.0001) // ===================================
(PID.TID 0000.0001) tempAdvScheme =   /* Temp. Horiz.Advection scheme selector */
(PID.TID 0000.0001)                       2
(PID.TID 0000.0001)     ;
(PID.TID 0000.0001) tempVertAdvScheme =   /* Temp. Vert. Advection scheme selector */
(PID.TID 0000.0001)                       2
(PID.TID 0000.0001)     ;
(PID.TID 0000.0001) tempMultiDimAdvec =   /* use Muti-Dim Advec method for Temp */
(PID.TID 0000.0001)                   F
(PID.TID 0000.0001)     ;
(PID.TID 0000.0001) tempSOM_Advection = /* use 2nd Order Moment Advection for Temp */
(PID.TID 0000.0001)                   F
(PID.TID 0000.0001)     ;
(PID.TID 0000.0001) AdamsBashforthGt = /* apply Adams-Bashforth extrapolation on Gt */
(PID.TID 0000.0001)                   T
(PID.TID 0000.0001)     ;
(PID.TID 0000.0001) AdamsBashforth_T = /* apply Adams-Bashforth extrapolation on Temp */
(PID.TID 0000.0001)                   F
(PID.TID 0000.0001)     ;
(PID.TID 0000.0001) saltAdvScheme =   /* Salt. Horiz.advection scheme selector */
(PID.TID 0000.0001)                       2
(PID.TID 0000.0001)     ;
(PID.TID 0000.0001) saltVertAdvScheme =   /* Salt. Vert. Advection scheme selector */
(PID.TID 0000.0001)                       2
(PID.TID 0000.0001)     ;
(PID.TID 0000.0001) saltMultiDimAdvec =   /* use Muti-Dim Advec method for Salt */
(PID.TID 0000.0001)                   F
(PID.TID 0000.0001)     ;
(PID.TID 0000.0001) saltSOM_Advection = /* use 2nd Order Moment Advection for Salt */
(PID.TID 0000.0001)                   F
(PID.TID 0000.0001)     ;
(PID.TID 0000.0001) AdamsBashforthGs = /* apply Adams-Bashforth extrapolation on Gs */
(PID.TID 0000.0001)                   T
(PID.TID 0000.0001)     ;
(PID.TID 0000.0001) AdamsBashforth_S = /* apply Adams-Bashforth extrapolation on Salt */
(PID.TID 0000.0001)                   F
(PID.TID 0000.0001)     ;
(PID.TID 0000.0001) // ===================================
(PID.TID 0000.0001)  MDS_READ_FIELD: opening global file: phi0surf.exp1.jmd95z
(PID.TID 0000.0001)  MDS_READ_FIELD: opening global file: frontcircum.xuyun
(PID.TID 0000.0001)  MDS_READ_FIELD: opening global file: frontdepth.xuyun
(PID.TID 0000.0001) ------------------------------------------------------------
(PID.TID 0000.0001) DIAGNOSTICS_SET_LEVELS: done
(PID.TID 0000.0001)  Total Nb of available Diagnostics: ndiagt=   209
(PID.TID 0000.0001)  write list of available Diagnostics to file: available_diagnostics.log
(PID.TID 0000.0001) SETDIAG: Allocate  1 x  1 Levels for Diagnostic #   198 SHIfwFlx
(PID.TID 0000.0001) SETDIAG: Allocate  1 x  1 Levels for Diagnostic #   199 SHIhtFlx
(PID.TID 0000.0001) SETDIAG: Allocate 30 x  1 Levels for Diagnostic #   208 ICFfwFlx
(PID.TID 0000.0001) SETDIAG: Allocate 30 x  1 Levels for Diagnostic #   209 ICFhtFlx
(PID.TID 0000.0001)   space allocated for all diagnostics:      62 levels
(PID.TID 0000.0001) DIAGNOSTICS_SET_POINTERS: Set levels for Outp.Stream: shelficeDiag
(PID.TID 0000.0001)  Levels:       1.
(PID.TID 0000.0001) DIAGNOSTICS_SET_POINTERS: Set levels for Outp.Stream: icefrontDiag
(PID.TID 0000.0001)  Levels:       1.   2.   3.   4.   5.   6.   7.   8.   9.  10.  11.  12.  13.  14.  15.  16.  17.  18.  19.  20.
(PID.TID 0000.0001)  Levels:      21.  22.  23.  24.  25.  26.  27.  28.  29.  30.
(PID.TID 0000.0001) DIAGNOSTICS_SET_POINTERS: done
(PID.TID 0000.0001) ------------------------------------------------------------
(PID.TID 0000.0001) DIAGSTATS_SET_REGIONS: define   0 regions:
(PID.TID 0000.0001) ------------------------------------------------------------
(PID.TID 0000.0001)   space allocated for all stats-diags:       0 levels
(PID.TID 0000.0001) DIAGSTATS_SET_POINTERS: done
(PID.TID 0000.0001) ------------------------------------------------------------
(PID.TID 0000.0001) %MON fCori_max                    =  -1.3709057042516E-04
(PID.TID 0000.0001) %MON fCori_min                    =  -1.4360464034757E-04
(PID.TID 0000.0001) %MON fCori_mean                   =  -1.4069429304698E-04
(PID.TID 0000.0001) %MON fCori_sd                     =   1.9069739624987E-06
(PID.TID 0000.0001) %MON fCoriG_max                   =  -1.3713394327439E-04
(PID.TID 0000.0001) %MON fCoriG_min                   =  -1.4362679550910E-04
(PID.TID 0000.0001) %MON fCoriG_mean                  =  -1.4072713798624E-04
(PID.TID 0000.0001) %MON fCoriG_sd                    =   1.9008093726821E-06
(PID.TID 0000.0001) %MON fCoriCos_max                 =   4.9761447480159E-05
(PID.TID 0000.0001) %MON fCoriCos_min                 =   2.5450607565678E-05
(PID.TID 0000.0001) %MON fCoriCos_mean                =   3.7698922201606E-05
(PID.TID 0000.0001) %MON fCoriCos_sd                  =   7.0920218535055E-06
(PID.TID 0000.0001) INI_CG2D: CG2D normalisation factor =  8.6553958581495505E-04
(PID.TID 0000.0001) 
(PID.TID 0000.0001) // =======================================================
(PID.TID 0000.0001) // Model configuration
(PID.TID 0000.0001) // =======================================================
(PID.TID 0000.0001) //
(PID.TID 0000.0001) // "Physical" paramters ( PARM01 in namelist )
(PID.TID 0000.0001) //
(PID.TID 0000.0001) buoyancyRelation = /* Type of relation to get Buoyancy */
(PID.TID 0000.0001)               'OCEANIC'
(PID.TID 0000.0001)     ;
(PID.TID 0000.0001) fluidIsAir   =  /* fluid major constituent is Air */
(PID.TID 0000.0001)                   F
(PID.TID 0000.0001)     ;
(PID.TID 0000.0001) fluidIsWater =  /* fluid major constituent is Water */
(PID.TID 0000.0001)                   T
(PID.TID 0000.0001)     ;
(PID.TID 0000.0001) usingPCoords =  /* use p (or p*) vertical coordinate */
(PID.TID 0000.0001)                   F
(PID.TID 0000.0001)     ;
(PID.TID 0000.0001) usingZCoords =  /* use z (or z*) vertical coordinate */
(PID.TID 0000.0001)                   T
(PID.TID 0000.0001)     ;
(PID.TID 0000.0001) tRef =   /* Reference temperature profile ( oC or K ) */
(PID.TID 0000.0001)    30 @ -1.900000000000000E+00              /* K =  1: 30 */
(PID.TID 0000.0001)     ;
(PID.TID 0000.0001) sRef =   /* Reference salinity profile ( psu ) */
(PID.TID 0000.0001)    30 @  3.440000000000000E+01              /* K =  1: 30 */
(PID.TID 0000.0001)     ;
(PID.TID 0000.0001) useStrainTensionVisc= /* Use StrainTension Form of Viscous Operator */
(PID.TID 0000.0001)                   F
(PID.TID 0000.0001)     ;
(PID.TID 0000.0001) useVariableVisc = /* Use variable horizontal viscosity */
(PID.TID 0000.0001)                   F
(PID.TID 0000.0001)     ;
(PID.TID 0000.0001) useHarmonicVisc = /* Use harmonic horizontal viscosity */
(PID.TID 0000.0001)                   T
(PID.TID 0000.0001)     ;
(PID.TID 0000.0001) useBiharmonicVisc= /* Use biharmonic horiz.  viscosity */
(PID.TID 0000.0001)                   F
(PID.TID 0000.0001)     ;
(PID.TID 0000.0001) useSmag3D = /* Use isotropic 3-D Smagorinsky viscosity */
(PID.TID 0000.0001)                   F
(PID.TID 0000.0001)     ;
(PID.TID 0000.0001) viscAh  =   /* Lateral harmonic viscosity ( m^2/s ) */
(PID.TID 0000.0001)                 6.000000000000000E+02
(PID.TID 0000.0001)     ;
(PID.TID 0000.0001) viscA4  =   /* Lateral biharmonic viscosity ( m^4/s ) */
(PID.TID 0000.0001)                 0.000000000000000E+00
(PID.TID 0000.0001)     ;
(PID.TID 0000.0001) no_slip_sides =  /* Viscous BCs: No-slip sides */
(PID.TID 0000.0001)                   F
(PID.TID 0000.0001)     ;
(PID.TID 0000.0001) sideDragFactor = /* side-drag scaling factor (non-dim) */
(PID.TID 0000.0001)                 2.000000000000000E+00
(PID.TID 0000.0001)     ;
(PID.TID 0000.0001) viscArNr = /* vertical profile of vertical viscosity ( m^2/s )*/
(PID.TID 0000.0001)    30 @  1.000000000000000E-03              /* K =  1: 30 */
(PID.TID 0000.0001)     ;
(PID.TID 0000.0001) no_slip_bottom =  /* Viscous BCs: No-slip bottom */
(PID.TID 0000.0001)                   F
(PID.TID 0000.0001)     ;
(PID.TID 0000.0001) bottomVisc_pCell = /* Partial-cell in bottom Visc. BC */
(PID.TID 0000.0001)                   F
(PID.TID 0000.0001)     ;
(PID.TID 0000.0001) bottomDragLinear = /* linear bottom-drag coefficient ( m/s ) */
(PID.TID 0000.0001)                 0.000000000000000E+00
(PID.TID 0000.0001)     ;
(PID.TID 0000.0001) bottomDragQuadratic = /* quadratic bottom-drag coefficient (-) */
(PID.TID 0000.0001)                 2.500000000000000E-03
(PID.TID 0000.0001)     ;
(PID.TID 0000.0001) selectBotDragQuadr = /* select quadratic bottom drag options */
(PID.TID 0000.0001)                       0
(PID.TID 0000.0001)     ;
(PID.TID 0000.0001) diffKhT =   /* Laplacian diffusion of heat laterally ( m^2/s ) */
(PID.TID 0000.0001)                 1.000000000000000E+02
(PID.TID 0000.0001)     ;
(PID.TID 0000.0001) diffK4T =   /* Biharmonic diffusion of heat laterally ( m^4/s ) */
(PID.TID 0000.0001)                 0.000000000000000E+00
(PID.TID 0000.0001)     ;
(PID.TID 0000.0001) diffKhS =   /* Laplacian diffusion of salt laterally ( m^2/s ) */
(PID.TID 0000.0001)                 1.000000000000000E+02
(PID.TID 0000.0001)     ;
(PID.TID 0000.0001) diffK4S =   /* Biharmonic diffusion of salt laterally ( m^4/s ) */
(PID.TID 0000.0001)                 0.000000000000000E+00
(PID.TID 0000.0001)     ;
(PID.TID 0000.0001) diffKrNrT = /* vertical profile of vertical diffusion of Temp ( m^2/s )*/
(PID.TID 0000.0001)    30 @  5.000000000000000E-05              /* K =  1: 30 */
(PID.TID 0000.0001)     ;
(PID.TID 0000.0001) diffKrNrS = /* vertical profile of vertical diffusion of Salt ( m^2/s )*/
(PID.TID 0000.0001)    30 @  5.000000000000000E-05              /* K =  1: 30 */
(PID.TID 0000.0001)     ;
(PID.TID 0000.0001) diffKrBL79surf = /* Surface diffusion for Bryan and Lewis 79 ( m^2/s ) */
(PID.TID 0000.0001)                 0.000000000000000E+00
(PID.TID 0000.0001)     ;
(PID.TID 0000.0001) diffKrBL79deep = /* Deep diffusion for Bryan and Lewis 1979 ( m^2/s ) */
(PID.TID 0000.0001)                 0.000000000000000E+00
(PID.TID 0000.0001)     ;
(PID.TID 0000.0001) diffKrBL79scl = /* Depth scale for Bryan and Lewis 1979 ( m ) */
(PID.TID 0000.0001)                 2.000000000000000E+02
(PID.TID 0000.0001)     ;
(PID.TID 0000.0001) diffKrBL79Ho = /* Turning depth for Bryan and Lewis 1979 ( m ) */
(PID.TID 0000.0001)                -2.000000000000000E+03
(PID.TID 0000.0001)     ;
(PID.TID 0000.0001) ivdc_kappa = /* Implicit Vertical Diffusivity for Convection ( m^2/s) */
(PID.TID 0000.0001)                 0.000000000000000E+00
(PID.TID 0000.0001)     ;
(PID.TID 0000.0001) hMixCriteria=  /* Criteria for mixed-layer diagnostic */
(PID.TID 0000.0001)                -8.000000000000000E-01
(PID.TID 0000.0001)     ;
(PID.TID 0000.0001) dRhoSmall =  /* Parameter for mixed-layer diagnostic */
(PID.TID 0000.0001)                 1.000000000000000E-06
(PID.TID 0000.0001)     ;
(PID.TID 0000.0001) hMixSmooth=  /* Smoothing parameter for mixed-layer diagnostic */
(PID.TID 0000.0001)                 0.000000000000000E+00
(PID.TID 0000.0001)     ;
(PID.TID 0000.0001) eosType =  /* Type of Equation of State */
(PID.TID 0000.0001)               'JMD95Z'
(PID.TID 0000.0001)     ;
(PID.TID 0000.0001) selectP_inEOS_Zc = /* select pressure to use in EOS (0,1,2,3) */
(PID.TID 0000.0001)                       0
(PID.TID 0000.0001)     0= -g*rhoConst*z ; 1= pRef (from tRef,sRef); 2= Hyd P ; 3= Hyd+NH P
(PID.TID 0000.0001)     ;
(PID.TID 0000.0001) HeatCapacity_Cp =  /* Specific heat capacity ( J/kg/K ) */
(PID.TID 0000.0001)                 3.974000000000000E+03
(PID.TID 0000.0001)     ;
(PID.TID 0000.0001) celsius2K = /* 0 degree Celsius converted to Kelvin ( K ) */
(PID.TID 0000.0001)                 2.731500000000000E+02
(PID.TID 0000.0001)     ;
(PID.TID 0000.0001) rhoConst  = /* Reference density (Boussinesq)  ( kg/m^3 ) */
(PID.TID 0000.0001)                 1.030000000000000E+03
(PID.TID 0000.0001)     ;
(PID.TID 0000.0001) rhoFacC = /* normalized Reference density @ cell-Center (-) */
(PID.TID 0000.0001)    30 @  1.000000000000000E+00              /* K =  1: 30 */
(PID.TID 0000.0001)     ;
(PID.TID 0000.0001) rhoFacF = /* normalized Reference density @ W-Interface (-) */
(PID.TID 0000.0001)    31 @  1.000000000000000E+00              /* K =  1: 31 */
(PID.TID 0000.0001)     ;
(PID.TID 0000.0001) rhoConstFresh = /* Fresh-water reference density ( kg/m^3 ) */
(PID.TID 0000.0001)                 1.030000000000000E+03
(PID.TID 0000.0001)     ;
(PID.TID 0000.0001) gravity =   /* Gravitational acceleration ( m/s^2 ) */
(PID.TID 0000.0001)                 9.810000000000000E+00
(PID.TID 0000.0001)     ;
(PID.TID 0000.0001) gBaro =   /* Barotropic gravity ( m/s^2 ) */
(PID.TID 0000.0001)                 9.810000000000000E+00
(PID.TID 0000.0001)     ;
(PID.TID 0000.0001) gravFacC = /* gravity factor (vs surf.) @ cell-Center (-) */
(PID.TID 0000.0001)    30 @  1.000000000000000E+00              /* K =  1: 30 */
(PID.TID 0000.0001)     ;
(PID.TID 0000.0001) gravFacF = /* gravity factor (vs surf.) @ W-Interface (-) */
(PID.TID 0000.0001)    31 @  1.000000000000000E+00              /* K =  1: 31 */
(PID.TID 0000.0001)     ;
(PID.TID 0000.0001) rotationPeriod =   /* Rotation Period ( s ) */
(PID.TID 0000.0001)                 8.616400000000000E+04
(PID.TID 0000.0001)     ;
(PID.TID 0000.0001) omega =   /* Angular velocity ( rad/s ) */
(PID.TID 0000.0001)                 7.292123516990375E-05
(PID.TID 0000.0001)     ;
(PID.TID 0000.0001) f0 =   /* Reference coriolis parameter ( 1/s ) */
(PID.TID 0000.0001)                 1.000000000000000E-04
(PID.TID 0000.0001)     ;
(PID.TID 0000.0001) beta =   /* Beta ( 1/(m.s) ) */
(PID.TID 0000.0001)                 9.999999999999999E-12
(PID.TID 0000.0001)     ;
(PID.TID 0000.0001) fPrime =   /* Second coriolis parameter ( 1/s ) */
(PID.TID 0000.0001)                 0.000000000000000E+00
(PID.TID 0000.0001)     ;
(PID.TID 0000.0001) rigidLid =   /* Rigid lid on/off flag */
(PID.TID 0000.0001)                   F
(PID.TID 0000.0001)     ;
(PID.TID 0000.0001) implicitFreeSurface =   /* Implicit free surface on/off flag */
(PID.TID 0000.0001)                   T
(PID.TID 0000.0001)     ;
(PID.TID 0000.0001) freeSurfFac =   /* Implicit free surface factor */
(PID.TID 0000.0001)                 1.000000000000000E+00
(PID.TID 0000.0001)     ;
(PID.TID 0000.0001) implicSurfPress =  /* Surface Pressure implicit factor (0-1)*/
(PID.TID 0000.0001)                 1.000000000000000E+00
(PID.TID 0000.0001)     ;
(PID.TID 0000.0001) implicDiv2DFlow =  /* Barot. Flow Div. implicit factor (0-1)*/
(PID.TID 0000.0001)                 1.000000000000000E+00
(PID.TID 0000.0001)     ;
(PID.TID 0000.0001) uniformLin_PhiSurf = /* use uniform Bo_surf on/off flag*/
(PID.TID 0000.0001)                   T
(PID.TID 0000.0001)     ;
(PID.TID 0000.0001) uniformFreeSurfLev = /* free-surface level-index is uniform */
(PID.TID 0000.0001)                   F
(PID.TID 0000.0001)     ;
(PID.TID 0000.0001) hFacMin =   /* minimum partial cell factor (hFac) */
(PID.TID 0000.0001)                 5.000000000000000E-02
(PID.TID 0000.0001)     ;
(PID.TID 0000.0001) hFacMinDr = /* minimum partial cell thickness ( m) */
(PID.TID 0000.0001)                 0.000000000000000E+00
(PID.TID 0000.0001)     ;
(PID.TID 0000.0001) exactConserv =  /* Exact Volume Conservation on/off flag*/
(PID.TID 0000.0001)                   T
(PID.TID 0000.0001)     ;
(PID.TID 0000.0001) linFSConserveTr = /* Tracer correction for Lin Free Surface on/off flag*/
(PID.TID 0000.0001)                   F
(PID.TID 0000.0001)     ;
(PID.TID 0000.0001) nonlinFreeSurf = /* Non-linear Free Surf. options (-1,0,1,2,3)*/
(PID.TID 0000.0001)                       0
(PID.TID 0000.0001)      -1,0= Off ; 1,2,3= On, 2=+rescale gU,gV, 3=+update cg2d solv.
(PID.TID 0000.0001)     ;
(PID.TID 0000.0001) hFacInf =   /* lower threshold for hFac (nonlinFreeSurf only)*/
(PID.TID 0000.0001)                 2.000000000000000E-01
(PID.TID 0000.0001)     ;
(PID.TID 0000.0001) hFacSup =   /* upper threshold for hFac (nonlinFreeSurf only)*/
(PID.TID 0000.0001)                 2.000000000000000E+00
(PID.TID 0000.0001)     ;
(PID.TID 0000.0001) select_rStar = /* r* Vertical coord. options (=0 r coord.; >0 uses r*)*/
(PID.TID 0000.0001)                       0
(PID.TID 0000.0001)     ;
(PID.TID 0000.0001) useRealFreshWaterFlux = /* Real Fresh Water Flux on/off flag*/
(PID.TID 0000.0001)                   F
(PID.TID 0000.0001)     ;
(PID.TID 0000.0001) temp_EvPrRn = /* Temp. of Evap/Prec/R (UNSET=use local T)(oC)*/
(PID.TID 0000.0001)                 1.234567000000000E+05
(PID.TID 0000.0001)     ;
(PID.TID 0000.0001) salt_EvPrRn = /* Salin. of Evap/Prec/R (UNSET=use local S)(psu)*/
(PID.TID 0000.0001)                 0.000000000000000E+00
(PID.TID 0000.0001)     ;
(PID.TID 0000.0001) selectAddFluid = /* option for mass source/sink of fluid (=0: off) */
(PID.TID 0000.0001)                       0
(PID.TID 0000.0001)     ;
(PID.TID 0000.0001) temp_addMass = /* Temp. of addMass array (UNSET=use local T)(oC)*/
(PID.TID 0000.0001)                 1.234567000000000E+05
(PID.TID 0000.0001)     ;
(PID.TID 0000.0001) salt_addMass = /* Salin. of addMass array (UNSET=use local S)(psu)*/
(PID.TID 0000.0001)                 0.000000000000000E+00
(PID.TID 0000.0001)     ;
(PID.TID 0000.0001) convertFW2Salt = /* convert F.W. Flux to Salt Flux (-1=use local S)(psu)*/
(PID.TID 0000.0001)                 3.340000000000000E+01
(PID.TID 0000.0001)     ;
(PID.TID 0000.0001) use3Dsolver = /* use 3-D pressure solver on/off flag */
(PID.TID 0000.0001)                   F
(PID.TID 0000.0001)     ;
(PID.TID 0000.0001) nonHydrostatic =  /* Non-Hydrostatic on/off flag */
(PID.TID 0000.0001)                   F
(PID.TID 0000.0001)     ;
(PID.TID 0000.0001) nh_Am2 = /* Non-Hydrostatic terms scaling factor */
(PID.TID 0000.0001)                 1.000000000000000E+00
(PID.TID 0000.0001)     ;
(PID.TID 0000.0001) implicitNHPress = /* Non-Hyd Pressure implicit factor (0-1)*/
(PID.TID 0000.0001)                 1.000000000000000E+00
(PID.TID 0000.0001)     ;
(PID.TID 0000.0001) selectNHfreeSurf = /* Non-Hyd (free-)Surface option */
(PID.TID 0000.0001)                       0
(PID.TID 0000.0001)     ;
(PID.TID 0000.0001) quasiHydrostatic = /* Quasi-Hydrostatic on/off flag */
(PID.TID 0000.0001)                   F
(PID.TID 0000.0001)     ;
(PID.TID 0000.0001) calc_wVelocity = /* vertical velocity calculation on/off flag */
(PID.TID 0000.0001)                   T
(PID.TID 0000.0001)     ;
(PID.TID 0000.0001) momStepping =  /* Momentum equation on/off flag */
(PID.TID 0000.0001)                   T
(PID.TID 0000.0001)     ;
(PID.TID 0000.0001) vectorInvariantMomentum= /* Vector-Invariant Momentum on/off */
(PID.TID 0000.0001)                   F
(PID.TID 0000.0001)     ;
(PID.TID 0000.0001) momAdvection =  /* Momentum advection on/off flag */
(PID.TID 0000.0001)                   T
(PID.TID 0000.0001)     ;
(PID.TID 0000.0001) momViscosity =  /* Momentum viscosity on/off flag */
(PID.TID 0000.0001)                   T
(PID.TID 0000.0001)     ;
(PID.TID 0000.0001) momImplVertAdv= /* Momentum implicit vert. advection on/off*/
(PID.TID 0000.0001)                   F
(PID.TID 0000.0001)     ;
(PID.TID 0000.0001) implicitViscosity = /* Implicit viscosity on/off flag */
(PID.TID 0000.0001)                   F
(PID.TID 0000.0001)     ;
(PID.TID 0000.0001) selectImplicitDrag= /* Implicit bot Drag options (0,1,2)*/
(PID.TID 0000.0001)                       0
(PID.TID 0000.0001)     0= Expl. ; 1= Impl. on provis. Vel ; 2= Fully Impl (with surf.P)
(PID.TID 0000.0001)     ;
(PID.TID 0000.0001) metricTerms =  /* metric-Terms on/off flag */
(PID.TID 0000.0001)                   T
(PID.TID 0000.0001)     ;
(PID.TID 0000.0001) useNHMTerms = /* Non-Hydrostatic Metric-Terms on/off */
(PID.TID 0000.0001)                   F
(PID.TID 0000.0001)     ;
(PID.TID 0000.0001) selectCoriMap = /* Coriolis Map options (0,1,2,3)*/
(PID.TID 0000.0001)                       2
(PID.TID 0000.0001)     0= f-Plane ; 1= Beta-Plane ; 2= Spherical ; 3= read from file
(PID.TID 0000.0001)     ;
(PID.TID 0000.0001) use3dCoriolis = /* 3-D Coriolis on/off flag */
(PID.TID 0000.0001)                   F
(PID.TID 0000.0001)     ;
(PID.TID 0000.0001) useCoriolis =  /* Coriolis on/off flag */
(PID.TID 0000.0001)                   T
(PID.TID 0000.0001)     ;
(PID.TID 0000.0001) useCDscheme =  /* CD scheme on/off flag */
(PID.TID 0000.0001)                   T
(PID.TID 0000.0001)     ;
(PID.TID 0000.0001) selectCoriScheme= /* Scheme selector for Coriolis-Term */
(PID.TID 0000.0001)                       0
(PID.TID 0000.0001)    = 0 : original discretization (simple averaging, no hFac)
(PID.TID 0000.0001)    = 1 : Wet-point averaging (Jamar & Ozer 1986)
(PID.TID 0000.0001)    = 2 : energy conserving scheme (no hFac weight)
(PID.TID 0000.0001)    = 3 : energy conserving scheme using Wet-point averaging
(PID.TID 0000.0001)     ;
(PID.TID 0000.0001) momForcing =  /* Momentum forcing on/off flag */
(PID.TID 0000.0001)                   T
(PID.TID 0000.0001)     ;
(PID.TID 0000.0001) momTidalForcing = /* Momentum Tidal forcing on/off flag */
(PID.TID 0000.0001)                   T
(PID.TID 0000.0001)     ;
(PID.TID 0000.0001) momPressureForcing =  /* Momentum pressure term on/off flag */
(PID.TID 0000.0001)                   T
(PID.TID 0000.0001)     ;
(PID.TID 0000.0001) implicitIntGravWave= /* Implicit Internal Gravity Wave flag */
(PID.TID 0000.0001)                   F
(PID.TID 0000.0001)     ;
(PID.TID 0000.0001) staggerTimeStep =    /* Stagger time stepping on/off flag */
(PID.TID 0000.0001)                   F
(PID.TID 0000.0001)     ;
(PID.TID 0000.0001) doResetHFactors = /* reset thickness factors @ each time-step */
(PID.TID 0000.0001)                   F
(PID.TID 0000.0001)     ;
(PID.TID 0000.0001) multiDimAdvection =  /* enable/disable Multi-Dim Advection */
(PID.TID 0000.0001)                   T
(PID.TID 0000.0001)     ;
(PID.TID 0000.0001) useMultiDimAdvec =   /* Multi-Dim Advection is/is-not used */
(PID.TID 0000.0001)                   F
(PID.TID 0000.0001)     ;
(PID.TID 0000.0001) implicitDiffusion = /* Implicit Diffusion on/off flag */
(PID.TID 0000.0001)                   F
(PID.TID 0000.0001)     ;
(PID.TID 0000.0001) tempStepping =  /* Temperature equation on/off flag */
(PID.TID 0000.0001)                   T
(PID.TID 0000.0001)     ;
(PID.TID 0000.0001) tempAdvection = /* Temperature advection on/off flag */
(PID.TID 0000.0001)                   T
(PID.TID 0000.0001)     ;
(PID.TID 0000.0001) tempImplVertAdv = /* Temp. implicit vert. advection on/off */
(PID.TID 0000.0001)                   F
(PID.TID 0000.0001)     ;
(PID.TID 0000.0001) tempForcing  =  /* Temperature forcing on/off flag */
(PID.TID 0000.0001)                   T
(PID.TID 0000.0001)     ;
(PID.TID 0000.0001) doThetaClimRelax = /* apply SST relaxation on/off flag */
(PID.TID 0000.0001)                   F
(PID.TID 0000.0001)     ;
(PID.TID 0000.0001) tempIsActiveTr = /* Temp. is a dynamically Active Tracer */
(PID.TID 0000.0001)                   T
(PID.TID 0000.0001)     ;
(PID.TID 0000.0001) saltStepping =  /* Salinity equation on/off flag */
(PID.TID 0000.0001)                   T
(PID.TID 0000.0001)     ;
(PID.TID 0000.0001) saltAdvection = /* Salinity advection on/off flag */
(PID.TID 0000.0001)                   T
(PID.TID 0000.0001)     ;
(PID.TID 0000.0001) saltImplVertAdv = /* Sali. implicit vert. advection on/off */
(PID.TID 0000.0001)                   F
(PID.TID 0000.0001)     ;
(PID.TID 0000.0001) saltForcing  =  /* Salinity forcing on/off flag */
(PID.TID 0000.0001)                   T
(PID.TID 0000.0001)     ;
(PID.TID 0000.0001) doSaltClimRelax = /* apply SSS relaxation on/off flag */
(PID.TID 0000.0001)                   F
(PID.TID 0000.0001)     ;
(PID.TID 0000.0001) saltIsActiveTr = /* Salt  is a dynamically Active Tracer */
(PID.TID 0000.0001)                   T
(PID.TID 0000.0001)     ;
(PID.TID 0000.0001)  readBinaryPrec = /* Precision used for reading binary files */
(PID.TID 0000.0001)                      64
(PID.TID 0000.0001)     ;
(PID.TID 0000.0001) writeBinaryPrec = /* Precision used for writing binary files */
(PID.TID 0000.0001)                      32
(PID.TID 0000.0001)     ;
(PID.TID 0000.0001)  rwSuffixType =   /* select format of mds file suffix */
(PID.TID 0000.0001)                       0
(PID.TID 0000.0001)    = 0 : myIter (I10.10) ;   = 1 : 100*myTime (100th sec) ;
(PID.TID 0000.0001)    = 2 : myTime (seconds);   = 3 : myTime/360 (10th of hr);
(PID.TID 0000.0001)    = 4 : myTime/3600 (hours)
(PID.TID 0000.0001)     ;
(PID.TID 0000.0001)  globalFiles = /* write "global" (=not per tile) files */
(PID.TID 0000.0001)                   F
(PID.TID 0000.0001)     ;
(PID.TID 0000.0001)  useSingleCpuIO = /* only master MPI process does I/O */
(PID.TID 0000.0001)                   F
(PID.TID 0000.0001)     ;
(PID.TID 0000.0001)  useSingleCpuInput = /* only master process reads input */
(PID.TID 0000.0001)                   F
(PID.TID 0000.0001)     ;
(PID.TID 0000.0001) /* debLev[*]  : level of debug & auxiliary message printing */
(PID.TID 0000.0001) debLevZero =  0 ; /* level of disabled aux. msg printing */
(PID.TID 0000.0001)    debLevA =  1 ; /* level of minimum  aux. msg printing */
(PID.TID 0000.0001)    debLevB =  2 ; /* level of low aux. print (report read-file opening)*/
(PID.TID 0000.0001)    debLevC =  3 ; /* level of moderate debug prt (most pkgs debug msg) */
(PID.TID 0000.0001)    debLevD =  4 ; /* level of enhanced debug prt (add DEBUG_STATS prt) */
(PID.TID 0000.0001)    debLevE =  5 ; /* level of extensive debug printing */
(PID.TID 0000.0001) debugLevel =  /* select debug printing level */
(PID.TID 0000.0001)                       2
(PID.TID 0000.0001)     ;
(PID.TID 0000.0001)  plotLevel =  /* select PLOT_FIELD printing level */
(PID.TID 0000.0001)                       2
(PID.TID 0000.0001)     ;
(PID.TID 0000.0001) //
(PID.TID 0000.0001) // Elliptic solver(s) paramters ( PARM02 in namelist )
(PID.TID 0000.0001) //
(PID.TID 0000.0001) cg2dMaxIters =   /* Upper limit on 2d con. grad iterations  */
(PID.TID 0000.0001)                    1000
(PID.TID 0000.0001)     ;
(PID.TID 0000.0001) cg2dChkResFreq =   /* 2d con. grad convergence test frequency */
(PID.TID 0000.0001)                       1
(PID.TID 0000.0001)     ;
(PID.TID 0000.0001) cg2dUseMinResSol= /* use cg2d last-iter(=0) / min-resid.(=1) solution */
(PID.TID 0000.0001)                       0
(PID.TID 0000.0001)     ;
(PID.TID 0000.0001) cg2dTargetResidual =   /* 2d con. grad target residual  */
(PID.TID 0000.0001)                 1.000000000000000E-13
(PID.TID 0000.0001)     ;
(PID.TID 0000.0001) cg2dTargetResWunit =   /* CG2d target residual [W units] */
(PID.TID 0000.0001)                -1.000000000000000E+00
(PID.TID 0000.0001)     ;
(PID.TID 0000.0001) cg2dPreCondFreq =   /* Freq. for updating cg2d preconditioner */
(PID.TID 0000.0001)                       1
(PID.TID 0000.0001)     ;
(PID.TID 0000.0001) useSRCGSolver =  /* use single reduction CG solver(s) */
(PID.TID 0000.0001)                   F
(PID.TID 0000.0001)     ;
(PID.TID 0000.0001) printResidualFreq = /* Freq. for printing CG residual */
(PID.TID 0000.0001)                       0
(PID.TID 0000.0001)     ;
(PID.TID 0000.0001) //
(PID.TID 0000.0001) // Time stepping paramters ( PARM03 in namelist )
(PID.TID 0000.0001) //
(PID.TID 0000.0001) deltaTMom =   /* Momentum equation timestep ( s ) */
(PID.TID 0000.0001)                 1.800000000000000E+03
(PID.TID 0000.0001)     ;
(PID.TID 0000.0001) deltaTFreeSurf = /* FreeSurface equation timestep ( s ) */
(PID.TID 0000.0001)                 1.800000000000000E+03
(PID.TID 0000.0001)     ;
(PID.TID 0000.0001) dTtracerLev =  /* Tracer equation timestep ( s ) */
(PID.TID 0000.0001)    30 @  1.800000000000000E+03              /* K =  1: 30 */
(PID.TID 0000.0001)     ;
(PID.TID 0000.0001) deltaTClock  =   /* Model clock timestep ( s ) */
(PID.TID 0000.0001)                 1.800000000000000E+03
(PID.TID 0000.0001)     ;
(PID.TID 0000.0001) cAdjFreq =   /* Convective adjustment interval ( s ) */
(PID.TID 0000.0001)                 1.800000000000000E+03
(PID.TID 0000.0001)     ;
(PID.TID 0000.0001) momForcingOutAB = /* =1: take Momentum Forcing out of Adams-Bash. stepping */
(PID.TID 0000.0001)                       0
(PID.TID 0000.0001)     ;
(PID.TID 0000.0001) tracForcingOutAB = /* =1: take T,S,pTr Forcing out of Adams-Bash. stepping */
(PID.TID 0000.0001)                       0
(PID.TID 0000.0001)     ;
(PID.TID 0000.0001) momDissip_In_AB = /* put Dissipation Tendency in Adams-Bash. stepping */
(PID.TID 0000.0001)                   T
(PID.TID 0000.0001)     ;
(PID.TID 0000.0001) doAB_onGtGs = /* apply AB on Tendencies (rather than on T,S)*/
(PID.TID 0000.0001)                   T
(PID.TID 0000.0001)     ;
(PID.TID 0000.0001) abEps =   /* Adams-Bashforth-2 stabilizing weight */
(PID.TID 0000.0001)                 1.000000000000000E-01
(PID.TID 0000.0001)     ;
(PID.TID 0000.0001) applyExchUV_early = /* Apply EXCH to U,V earlier in time-step */
(PID.TID 0000.0001)                   F
(PID.TID 0000.0001)     ;
(PID.TID 0000.0001) tauCD =   /* CD coupling time-scale ( s ) */
(PID.TID 0000.0001)                 4.000000000000000E+05
(PID.TID 0000.0001)     ;
(PID.TID 0000.0001) rCD =   /* Normalised CD coupling parameter */
(PID.TID 0000.0001)                 9.955000000000001E-01
(PID.TID 0000.0001)     ;
(PID.TID 0000.0001) epsAB_CD = /* AB-2 stabilizing weight for CD-scheme*/
(PID.TID 0000.0001)                 1.000000000000000E-01
(PID.TID 0000.0001)     ;
(PID.TID 0000.0001) pickupStrictlyMatch= /* stop if pickup do not strictly match */
(PID.TID 0000.0001)                   T
(PID.TID 0000.0001)     ;
(PID.TID 0000.0001) nIter0   =   /* Run starting timestep number */
(PID.TID 0000.0001)                       0
(PID.TID 0000.0001)     ;
(PID.TID 0000.0001) nTimeSteps = /* Number of timesteps */
(PID.TID 0000.0001)                      20
(PID.TID 0000.0001)     ;
(PID.TID 0000.0001) nEndIter =   /* Run ending timestep number */
(PID.TID 0000.0001)                      20
(PID.TID 0000.0001)     ;
(PID.TID 0000.0001) baseTime =   /* Model base time ( s ) */
(PID.TID 0000.0001)                 0.000000000000000E+00
(PID.TID 0000.0001)     ;
(PID.TID 0000.0001) startTime =  /* Run start time ( s ) */
(PID.TID 0000.0001)                 0.000000000000000E+00
(PID.TID 0000.0001)     ;
(PID.TID 0000.0001) endTime  =   /* Integration ending time ( s ) */
(PID.TID 0000.0001)                 3.600000000000000E+04
(PID.TID 0000.0001)     ;
(PID.TID 0000.0001) pChkPtFreq = /* Permanent restart/pickup file interval ( s ) */
(PID.TID 0000.0001)                 0.000000000000000E+00
(PID.TID 0000.0001)     ;
(PID.TID 0000.0001) chkPtFreq  = /* Rolling restart/pickup file interval ( s ) */
(PID.TID 0000.0001)                 0.000000000000000E+00
(PID.TID 0000.0001)     ;
(PID.TID 0000.0001) pickup_write_mdsio =   /* Model IO flag. */
(PID.TID 0000.0001)                   T
(PID.TID 0000.0001)     ;
(PID.TID 0000.0001) pickup_read_mdsio =   /* Model IO flag. */
(PID.TID 0000.0001)                   T
(PID.TID 0000.0001)     ;
(PID.TID 0000.0001) pickup_write_mnc =   /* Model IO flag. */
(PID.TID 0000.0001)                   F
(PID.TID 0000.0001)     ;
(PID.TID 0000.0001) pickup_read_mnc =   /* Model IO flag. */
(PID.TID 0000.0001)                   F
(PID.TID 0000.0001)     ;
(PID.TID 0000.0001) writePickupAtEnd =   /* Model IO flag. */
(PID.TID 0000.0001)                   T
(PID.TID 0000.0001)     ;
(PID.TID 0000.0001) dumpFreq =   /* Model state write out interval ( s ). */
(PID.TID 0000.0001)                 0.000000000000000E+00
(PID.TID 0000.0001)     ;
(PID.TID 0000.0001) dumpInitAndLast= /* write out Initial & Last iter. model state */
(PID.TID 0000.0001)                   T
(PID.TID 0000.0001)     ;
(PID.TID 0000.0001) snapshot_mdsio =   /* Model IO flag. */
(PID.TID 0000.0001)                   T
(PID.TID 0000.0001)     ;
(PID.TID 0000.0001) snapshot_mnc =   /* Model IO flag. */
(PID.TID 0000.0001)                   F
(PID.TID 0000.0001)     ;
(PID.TID 0000.0001) monitorFreq =   /* Monitor output interval ( s ). */
(PID.TID 0000.0001)                 1.000000000000000E+00
(PID.TID 0000.0001)     ;
(PID.TID 0000.0001) monitorSelect = /* select group of variables to monitor */
(PID.TID 0000.0001)                       2
(PID.TID 0000.0001)     ;
(PID.TID 0000.0001) monitor_stdio =   /* Model IO flag. */
(PID.TID 0000.0001)                   T
(PID.TID 0000.0001)     ;
(PID.TID 0000.0001) monitor_mnc =   /* Model IO flag. */
(PID.TID 0000.0001)                   F
(PID.TID 0000.0001)     ;
(PID.TID 0000.0001) externForcingPeriod =   /* forcing period (s) */
(PID.TID 0000.0001)                 0.000000000000000E+00
(PID.TID 0000.0001)     ;
(PID.TID 0000.0001) externForcingCycle =   /* period of the cyle (s). */
(PID.TID 0000.0001)                 0.000000000000000E+00
(PID.TID 0000.0001)     ;
(PID.TID 0000.0001) tauThetaClimRelax =   /* relaxation time scale (s) */
(PID.TID 0000.0001)                 0.000000000000000E+00
(PID.TID 0000.0001)     ;
(PID.TID 0000.0001) tauSaltClimRelax =   /* relaxation time scale (s) */
(PID.TID 0000.0001)                 0.000000000000000E+00
(PID.TID 0000.0001)     ;
(PID.TID 0000.0001) latBandClimRelax =   /* max. Lat. where relaxation */
(PID.TID 0000.0001)                 1.800000000000000E+02
(PID.TID 0000.0001)     ;
(PID.TID 0000.0001) //
(PID.TID 0000.0001) // Gridding paramters ( PARM04 in namelist )
(PID.TID 0000.0001) //
(PID.TID 0000.0001) usingCartesianGrid = /* Cartesian coordinates flag ( True/False ) */
(PID.TID 0000.0001)                   F
(PID.TID 0000.0001)     ;
(PID.TID 0000.0001) usingCylindricalGrid = /* Cylindrical coordinates flag ( True/False ) */
(PID.TID 0000.0001)                   F
(PID.TID 0000.0001)     ;
(PID.TID 0000.0001) usingSphericalPolarGrid = /* Spherical coordinates flag ( True/False ) */
(PID.TID 0000.0001)                   T
(PID.TID 0000.0001)     ;
(PID.TID 0000.0001) usingCurvilinearGrid = /* Curvilinear coordinates flag ( True/False ) */
(PID.TID 0000.0001)                   F
(PID.TID 0000.0001)     ;
(PID.TID 0000.0001) useMin4hFacEdges = /* set hFacW,S as minimum of adjacent hFacC factor */
(PID.TID 0000.0001)                   F
(PID.TID 0000.0001)     ;
(PID.TID 0000.0001) interViscAr_pCell = /* account for partial-cell in interior vert. viscosity */
(PID.TID 0000.0001)                   F
(PID.TID 0000.0001)     ;
(PID.TID 0000.0001) interDiffKr_pCell = /* account for partial-cell in interior vert. diffusion */
(PID.TID 0000.0001)                   F
(PID.TID 0000.0001)     ;
(PID.TID 0000.0001) pCellMix_select = /* option to enhance mixing near surface & bottom */
(PID.TID 0000.0001)                       0
(PID.TID 0000.0001)     ;
(PID.TID 0000.0001) selectSigmaCoord = /* Hybrid-Sigma Vert. Coordinate option */
(PID.TID 0000.0001)                       0
(PID.TID 0000.0001)     ;
(PID.TID 0000.0001) rSigmaBnd = /* r/sigma transition ( units of r ==  m ) */
(PID.TID 0000.0001)                 1.234567000000000E+05
(PID.TID 0000.0001)     ;
(PID.TID 0000.0001) rkSign =   /* index orientation relative to vertical coordinate */
(PID.TID 0000.0001)                -1.000000000000000E+00
(PID.TID 0000.0001)     ;
(PID.TID 0000.0001) gravitySign = /* gravity orientation relative to vertical coordinate */
(PID.TID 0000.0001)                -1.000000000000000E+00
(PID.TID 0000.0001)     ;
(PID.TID 0000.0001) seaLev_Z =  /* reference height of sea-level [m] */
(PID.TID 0000.0001)                 0.000000000000000E+00
(PID.TID 0000.0001)     ;
(PID.TID 0000.0001) top_Pres =  /* reference pressure at the top [Pa] */
(PID.TID 0000.0001)                 0.000000000000000E+00
(PID.TID 0000.0001)     ;
(PID.TID 0000.0001) mass2rUnit = /* convert mass per unit area [kg/m2] to r-units [m] */
(PID.TID 0000.0001)                 9.708737864077669E-04
(PID.TID 0000.0001)     ;
(PID.TID 0000.0001) rUnit2mass = /* convert r-units [m] to mass per unit area [kg/m2] */
(PID.TID 0000.0001)                 1.030000000000000E+03
(PID.TID 0000.0001)     ;
(PID.TID 0000.0001) drC =   /* C spacing ( units of r ) */
(PID.TID 0000.0001)                 1.500000000000000E+01,      /* K =  1 */
(PID.TID 0000.0001)    29 @  3.000000000000000E+01,             /* K =  2: 30 */
(PID.TID 0000.0001)                 1.500000000000000E+01       /* K = 31 */
(PID.TID 0000.0001)     ;
(PID.TID 0000.0001) drF =   /* W spacing ( units of r ) */
(PID.TID 0000.0001)    30 @  3.000000000000000E+01              /* K =  1: 30 */
(PID.TID 0000.0001)     ;
(PID.TID 0000.0001) delX = /* U spacing ( m - cartesian, degrees - spherical ) */
(PID.TID 0000.0001)    50 @  3.000000000000000E-01              /* I =  1: 50 */
(PID.TID 0000.0001)     ;
(PID.TID 0000.0001) delY = /* V spacing ( m - cartesian, degrees - spherical ) */
(PID.TID 0000.0001)   100 @  1.000000000000000E-01              /* J =  1:100 */
(PID.TID 0000.0001)     ;
(PID.TID 0000.0001) xgOrigin = /* X-axis origin of West  edge (cartesian: m, lat-lon: deg) */
(PID.TID 0000.0001)                 0.000000000000000E+00
(PID.TID 0000.0001)     ;
(PID.TID 0000.0001) ygOrigin = /* Y-axis origin of South edge (cartesian: m, lat-lon: deg) */
(PID.TID 0000.0001)                -8.000000000000000E+01
(PID.TID 0000.0001)     ;
(PID.TID 0000.0001) rSphere =  /* Radius ( ignored - cartesian, m - spherical ) */
(PID.TID 0000.0001)                 6.370000000000000E+06
(PID.TID 0000.0001)     ;
(PID.TID 0000.0001) deepAtmosphere = /* Deep/Shallow Atmosphere flag (True/False) */
(PID.TID 0000.0001)                   F
(PID.TID 0000.0001)     ;
(PID.TID 0000.0001) xC =  /* xC(:,1,:,1) : P-point X coord ( deg. or m if cartesian) */
(PID.TID 0000.0001)                 1.500000000000001E-01,      /* I =  1 */
(PID.TID 0000.0001)                 4.500000000000001E-01,      /* I =  2 */
(PID.TID 0000.0001)                 7.500000000000002E-01,      /* I =  3 */
(PID.TID 0000.0001)                 1.050000000000000E+00,      /* I =  4 */
(PID.TID 0000.0001)                 1.350000000000000E+00,      /* I =  5 */
(PID.TID 0000.0001)                 1.650000000000000E+00,      /* I =  6 */
(PID.TID 0000.0001)                 1.950000000000000E+00,      /* I =  7 */
(PID.TID 0000.0001)                 2.250000000000000E+00,      /* I =  8 */
(PID.TID 0000.0001)                 2.550000000000000E+00,      /* I =  9 */
(PID.TID 0000.0001)                 2.850000000000000E+00,      /* I = 10 */
(PID.TID 0000.0001)                 3.149999999999999E+00,      /* I = 11 */
(PID.TID 0000.0001)                 3.449999999999999E+00,      /* I = 12 */
(PID.TID 0000.0001)                 3.749999999999999E+00,      /* I = 13 */
(PID.TID 0000.0001)                 4.049999999999999E+00,      /* I = 14 */
(PID.TID 0000.0001)                 4.350000000000000E+00,      /* I = 15 */
(PID.TID 0000.0001)                 4.649999999999999E+00,      /* I = 16 */
(PID.TID 0000.0001)                 4.949999999999999E+00,      /* I = 17 */
(PID.TID 0000.0001)                 5.249999999999998E+00,      /* I = 18 */
(PID.TID 0000.0001)                 5.549999999999999E+00,      /* I = 19 */
(PID.TID 0000.0001)                 5.849999999999998E+00,      /* I = 20 */
(PID.TID 0000.0001)                 6.149999999999999E+00,      /* I = 21 */
(PID.TID 0000.0001)                 6.449999999999998E+00,      /* I = 22 */
(PID.TID 0000.0001)                 6.749999999999998E+00,      /* I = 23 */
(PID.TID 0000.0001)                 7.049999999999997E+00,      /* I = 24 */
(PID.TID 0000.0001)                 7.349999999999997E+00,      /* I = 25 */
(PID.TID 0000.0001)                 7.649999999999997E+00,      /* I = 26 */
(PID.TID 0000.0001)                 7.949999999999998E+00,      /* I = 27 */
(PID.TID 0000.0001)                 8.249999999999998E+00,      /* I = 28 */
(PID.TID 0000.0001)                 8.549999999999999E+00,      /* I = 29 */
(PID.TID 0000.0001)                 8.850000000000000E+00,      /* I = 30 */
(PID.TID 0000.0001)                 9.150000000000000E+00,      /* I = 31 */
(PID.TID 0000.0001)                 9.450000000000001E+00,      /* I = 32 */
(PID.TID 0000.0001)                 9.750000000000002E+00,      /* I = 33 */
(PID.TID 0000.0001)                 1.005000000000000E+01,      /* I = 34 */
(PID.TID 0000.0001)                 1.035000000000000E+01,      /* I = 35 */
(PID.TID 0000.0001)                 1.065000000000000E+01,      /* I = 36 */
(PID.TID 0000.0001)                 1.095000000000001E+01,      /* I = 37 */
(PID.TID 0000.0001)                 1.125000000000001E+01,      /* I = 38 */
(PID.TID 0000.0001)                 1.155000000000000E+01,      /* I = 39 */
(PID.TID 0000.0001)                 1.185000000000001E+01,      /* I = 40 */
(PID.TID 0000.0001)                 1.215000000000001E+01,      /* I = 41 */
(PID.TID 0000.0001)                 1.245000000000001E+01,      /* I = 42 */
(PID.TID 0000.0001)                 1.275000000000001E+01,      /* I = 43 */
(PID.TID 0000.0001)                 1.305000000000001E+01,      /* I = 44 */
(PID.TID 0000.0001)                 1.335000000000001E+01,      /* I = 45 */
(PID.TID 0000.0001)                 1.365000000000001E+01,      /* I = 46 */
(PID.TID 0000.0001)                 1.395000000000001E+01,      /* I = 47 */
(PID.TID 0000.0001)                 1.425000000000001E+01,      /* I = 48 */
(PID.TID 0000.0001)                 1.455000000000001E+01,      /* I = 49 */
(PID.TID 0000.0001)                 1.485000000000001E+01       /* I = 50 */
(PID.TID 0000.0001)     ;
(PID.TID 0000.0001) yC =  /* yC(1,:,1,:) : P-point Y coord ( deg. or m if cartesian) */
(PID.TID 0000.0001)                -7.995000000000000E+01,      /* J =  1 */
(PID.TID 0000.0001)                -7.985000000000001E+01,      /* J =  2 */
(PID.TID 0000.0001)                -7.975000000000001E+01,      /* J =  3 */
(PID.TID 0000.0001)      . . .
(PID.TID 0000.0001)                -7.775000000000013E+01,      /* J = 23 */
(PID.TID 0000.0001)                -7.765000000000013E+01,      /* J = 24 */
(PID.TID 0000.0001)                -7.755000000000014E+01,      /* J = 25 */
(PID.TID 0000.0001)                -7.745000000000014E+01,      /* J = 26 */
(PID.TID 0000.0001)                -7.735000000000015E+01,      /* J = 27 */
(PID.TID 0000.0001)                -7.725000000000016E+01,      /* J = 28 */
(PID.TID 0000.0001)      . . .
(PID.TID 0000.0001)                -7.525000000000027E+01,      /* J = 48 */
(PID.TID 0000.0001)                -7.515000000000028E+01,      /* J = 49 */
(PID.TID 0000.0001)                -7.505000000000028E+01,      /* J = 50 */
(PID.TID 0000.0001)                -7.495000000000029E+01,      /* J = 51 */
(PID.TID 0000.0001)                -7.485000000000029E+01,      /* J = 52 */
(PID.TID 0000.0001)                -7.475000000000030E+01,      /* J = 53 */
(PID.TID 0000.0001)      . . .
(PID.TID 0000.0001)                -7.275000000000041E+01,      /* J = 73 */
(PID.TID 0000.0001)                -7.265000000000042E+01,      /* J = 74 */
(PID.TID 0000.0001)                -7.255000000000042E+01,      /* J = 75 */
(PID.TID 0000.0001)                -7.245000000000043E+01,      /* J = 76 */
(PID.TID 0000.0001)                -7.235000000000043E+01,      /* J = 77 */
(PID.TID 0000.0001)                -7.225000000000044E+01,      /* J = 78 */
(PID.TID 0000.0001)      . . .
(PID.TID 0000.0001)                -7.025000000000055E+01,      /* J = 98 */
(PID.TID 0000.0001)                -7.015000000000056E+01,      /* J = 99 */
(PID.TID 0000.0001)                -7.005000000000057E+01       /* J =100 */
(PID.TID 0000.0001)     ;
(PID.TID 0000.0001) rcoord = /* P-point R coordinate (  units of r ) */
(PID.TID 0000.0001)                -1.500000000000000E+01,      /* K =  1 */
(PID.TID 0000.0001)                -4.500000000000000E+01,      /* K =  2 */
(PID.TID 0000.0001)                -7.500000000000000E+01,      /* K =  3 */
(PID.TID 0000.0001)                -1.050000000000000E+02,      /* K =  4 */
(PID.TID 0000.0001)                -1.350000000000000E+02,      /* K =  5 */
(PID.TID 0000.0001)                -1.650000000000000E+02,      /* K =  6 */
(PID.TID 0000.0001)                -1.950000000000000E+02,      /* K =  7 */
(PID.TID 0000.0001)                -2.250000000000000E+02,      /* K =  8 */
(PID.TID 0000.0001)                -2.550000000000000E+02,      /* K =  9 */
(PID.TID 0000.0001)                -2.850000000000000E+02,      /* K = 10 */
(PID.TID 0000.0001)                -3.150000000000000E+02,      /* K = 11 */
(PID.TID 0000.0001)                -3.450000000000000E+02,      /* K = 12 */
(PID.TID 0000.0001)                -3.750000000000000E+02,      /* K = 13 */
(PID.TID 0000.0001)                -4.050000000000000E+02,      /* K = 14 */
(PID.TID 0000.0001)                -4.350000000000000E+02,      /* K = 15 */
(PID.TID 0000.0001)                -4.650000000000000E+02,      /* K = 16 */
(PID.TID 0000.0001)                -4.950000000000000E+02,      /* K = 17 */
(PID.TID 0000.0001)                -5.250000000000000E+02,      /* K = 18 */
(PID.TID 0000.0001)                -5.550000000000000E+02,      /* K = 19 */
(PID.TID 0000.0001)                -5.850000000000000E+02,      /* K = 20 */
(PID.TID 0000.0001)                -6.150000000000000E+02,      /* K = 21 */
(PID.TID 0000.0001)                -6.450000000000000E+02,      /* K = 22 */
(PID.TID 0000.0001)                -6.750000000000000E+02,      /* K = 23 */
(PID.TID 0000.0001)                -7.050000000000000E+02,      /* K = 24 */
(PID.TID 0000.0001)                -7.350000000000000E+02,      /* K = 25 */
(PID.TID 0000.0001)                -7.650000000000000E+02,      /* K = 26 */
(PID.TID 0000.0001)                -7.950000000000000E+02,      /* K = 27 */
(PID.TID 0000.0001)                -8.250000000000000E+02,      /* K = 28 */
(PID.TID 0000.0001)                -8.550000000000000E+02,      /* K = 29 */
(PID.TID 0000.0001)                -8.850000000000000E+02       /* K = 30 */
(PID.TID 0000.0001)     ;
(PID.TID 0000.0001) rF =   /* W-Interf. R coordinate (  units of r ) */
(PID.TID 0000.0001)                 0.000000000000000E+00,      /* K =  1 */
(PID.TID 0000.0001)                -3.000000000000000E+01,      /* K =  2 */
(PID.TID 0000.0001)                -6.000000000000000E+01,      /* K =  3 */
(PID.TID 0000.0001)                -9.000000000000000E+01,      /* K =  4 */
(PID.TID 0000.0001)                -1.200000000000000E+02,      /* K =  5 */
(PID.TID 0000.0001)                -1.500000000000000E+02,      /* K =  6 */
(PID.TID 0000.0001)                -1.800000000000000E+02,      /* K =  7 */
(PID.TID 0000.0001)                -2.100000000000000E+02,      /* K =  8 */
(PID.TID 0000.0001)                -2.400000000000000E+02,      /* K =  9 */
(PID.TID 0000.0001)                -2.700000000000000E+02,      /* K = 10 */
(PID.TID 0000.0001)                -3.000000000000000E+02,      /* K = 11 */
(PID.TID 0000.0001)                -3.300000000000000E+02,      /* K = 12 */
(PID.TID 0000.0001)                -3.600000000000000E+02,      /* K = 13 */
(PID.TID 0000.0001)                -3.900000000000000E+02,      /* K = 14 */
(PID.TID 0000.0001)                -4.200000000000000E+02,      /* K = 15 */
(PID.TID 0000.0001)                -4.500000000000000E+02,      /* K = 16 */
(PID.TID 0000.0001)                -4.800000000000000E+02,      /* K = 17 */
(PID.TID 0000.0001)                -5.100000000000000E+02,      /* K = 18 */
(PID.TID 0000.0001)                -5.400000000000000E+02,      /* K = 19 */
(PID.TID 0000.0001)                -5.700000000000000E+02,      /* K = 20 */
(PID.TID 0000.0001)                -6.000000000000000E+02,      /* K = 21 */
(PID.TID 0000.0001)                -6.300000000000000E+02,      /* K = 22 */
(PID.TID 0000.0001)                -6.600000000000000E+02,      /* K = 23 */
(PID.TID 0000.0001)                -6.900000000000000E+02,      /* K = 24 */
(PID.TID 0000.0001)                -7.200000000000000E+02,      /* K = 25 */
(PID.TID 0000.0001)                -7.500000000000000E+02,      /* K = 26 */
(PID.TID 0000.0001)                -7.800000000000000E+02,      /* K = 27 */
(PID.TID 0000.0001)                -8.100000000000000E+02,      /* K = 28 */
(PID.TID 0000.0001)                -8.400000000000000E+02,      /* K = 29 */
(PID.TID 0000.0001)                -8.700000000000000E+02,      /* K = 30 */
(PID.TID 0000.0001)                -9.000000000000000E+02       /* K = 31 */
(PID.TID 0000.0001)     ;
(PID.TID 0000.0001) deepFacC = /* deep-model grid factor @ cell-Center (-) */
(PID.TID 0000.0001)    30 @  1.000000000000000E+00              /* K =  1: 30 */
(PID.TID 0000.0001)     ;
(PID.TID 0000.0001) deepFacF = /* deep-model grid factor @ W-Interface (-) */
(PID.TID 0000.0001)    31 @  1.000000000000000E+00              /* K =  1: 31 */
(PID.TID 0000.0001)     ;
(PID.TID 0000.0001) rVel2wUnit = /* convert units: rVel -> wSpeed (=1 if z-coord)*/
(PID.TID 0000.0001)    31 @  1.000000000000000E+00              /* K =  1: 31 */
(PID.TID 0000.0001)     ;
(PID.TID 0000.0001) wUnit2rVel = /* convert units: wSpeed -> rVel (=1 if z-coord)*/
(PID.TID 0000.0001)    31 @  1.000000000000000E+00              /* K =  1: 31 */
(PID.TID 0000.0001)     ;
(PID.TID 0000.0001) dBdrRef = /* Vertical grad. of reference buoyancy [(m/s/r)^2] */
(PID.TID 0000.0001)    30 @  0.000000000000000E+00              /* K =  1: 30 */
(PID.TID 0000.0001)     ;
(PID.TID 0000.0001) rotateGrid = /* use rotated grid ( True/False ) */
(PID.TID 0000.0001)                   F
(PID.TID 0000.0001)     ;
(PID.TID 0000.0001) phiEuler = /* Euler angle, rotation about original z-coordinate [rad] */
(PID.TID 0000.0001)                 0.000000000000000E+00
(PID.TID 0000.0001)     ;
(PID.TID 0000.0001) thetaEuler = /* Euler angle, rotation about new x-coordinate [rad] */
(PID.TID 0000.0001)                 0.000000000000000E+00
(PID.TID 0000.0001)     ;
(PID.TID 0000.0001) psiEuler = /* Euler angle, rotation about new z-coordinate [rad] */
(PID.TID 0000.0001)                 0.000000000000000E+00
(PID.TID 0000.0001)     ;
(PID.TID 0000.0001) dxF =  /* dxF(:,1,:,1) ( units: m ) */
(PID.TID 0000.0001)    50 @  5.820391490558872E+03              /* I =  1: 50 */
(PID.TID 0000.0001)     ;
(PID.TID 0000.0001) dxF =  /* dxF(1,:,1,:) ( units: m ) */
(PID.TID 0000.0001)                 5.820391490558872E+03,      /* J =  1 */
(PID.TID 0000.0001)                 5.877701765291692E+03,      /* J =  2 */
(PID.TID 0000.0001)                 5.934994135525598E+03,      /* J =  3 */
(PID.TID 0000.0001)      . . .
(PID.TID 0000.0001)                 7.076813247621209E+03,      /* J = 23 */
(PID.TID 0000.0001)                 7.133689397375063E+03,      /* J = 24 */
(PID.TID 0000.0001)                 7.190543816673855E+03,      /* J = 25 */
(PID.TID 0000.0001)                 7.247376332329164E+03,      /* J = 26 */
(PID.TID 0000.0001)                 7.304186771219292E+03,      /* J = 27 */
(PID.TID 0000.0001)                 7.360974960289787E+03,      /* J = 28 */
(PID.TID 0000.0001)      . . .
(PID.TID 0000.0001)                 8.491800393599013E+03,      /* J = 48 */
(PID.TID 0000.0001)                 8.548081485571185E+03,      /* J = 49 */
(PID.TID 0000.0001)                 8.604336538604706E+03,      /* J = 50 */
(PID.TID 0000.0001)                 8.660565381336924E+03,      /* J = 51 */
(PID.TID 0000.0001)                 8.716767842485036E+03,      /* J = 52 */
(PID.TID 0000.0001)                 8.772943750846600E+03,      /* J = 53 */
(PID.TID 0000.0001)      . . .
(PID.TID 0000.0001)                 9.890622914885218E+03,      /* J = 73 */
(PID.TID 0000.0001)                 9.946201814818334E+03,      /* J = 74 */
(PID.TID 0000.0001)                 1.000175041689580E+04,      /* J = 75 */
(PID.TID 0000.0001)                 1.005726855190695E+04,      /* J = 76 */
(PID.TID 0000.0001)                 1.011275605073392E+04,      /* J = 77 */
(PID.TID 0000.0001)                 1.016821274435215E+04,      /* J = 78 */
(PID.TID 0000.0001)      . . .
(PID.TID 0000.0001)                 1.127061807330668E+04,      /* J = 98 */
(PID.TID 0000.0001)                 1.132538898360582E+04,      /* J = 99 */
(PID.TID 0000.0001)                 1.138012539480601E+04       /* J =100 */
(PID.TID 0000.0001)     ;
(PID.TID 0000.0001) dyF =  /* dyF(:,1,:,1) ( units: m ) */
(PID.TID 0000.0001)    50 @  1.111774733520388E+04              /* I =  1: 50 */
(PID.TID 0000.0001)     ;
(PID.TID 0000.0001) dyF =  /* dyF(1,:,1,:) ( units: m ) */
(PID.TID 0000.0001)   100 @  1.111774733520388E+04              /* J =  1:100 */
(PID.TID 0000.0001)     ;
(PID.TID 0000.0001) dxG =  /* dxG(:,1,:,1) ( units: m ) */
(PID.TID 0000.0001)    50 @  5.791729693558576E+03              /* I =  1: 50 */
(PID.TID 0000.0001)     ;
(PID.TID 0000.0001) dxG =  /* dxG(1,:,1,:) ( units: m ) */
(PID.TID 0000.0001)                 5.791729693558576E+03,      /* J =  1 */
(PID.TID 0000.0001)                 5.849048855077854E+03,      /* J =  2 */
(PID.TID 0000.0001)                 5.906350199379949E+03,      /* J =  3 */
(PID.TID 0000.0001)      . . .
(PID.TID 0000.0001)                 7.048367077963129E+03,      /* J = 23 */
(PID.TID 0000.0001)                 7.105254027978149E+03,      /* J = 24 */
(PID.TID 0000.0001)                 7.162119334157175E+03,      /* J = 25 */
(PID.TID 0000.0001)                 7.218962823278620E+03,      /* J = 26 */
(PID.TID 0000.0001)                 7.275784322187360E+03,      /* J = 27 */
(PID.TID 0000.0001)                 7.332583657795253E+03,      /* J = 28 */
(PID.TID 0000.0001)      . . .
(PID.TID 0000.0001)                 8.463650136583461E+03,      /* J = 48 */
(PID.TID 0000.0001)                 8.519944183739159E+03,      /* J = 49 */
(PID.TID 0000.0001)                 8.576212277667308E+03,      /* J = 50 */
(PID.TID 0000.0001)                 8.632454246965530E+03,      /* J = 51 */
(PID.TID 0000.0001)                 8.688669920311038E+03,      /* J = 52 */
(PID.TID 0000.0001)                 8.744859126461139E+03,      /* J = 53 */
(PID.TID 0000.0001)      . . .
(PID.TID 0000.0001)                 9.862822156126382E+03,      /* J = 73 */
(PID.TID 0000.0001)                 9.918416141504455E+03,      /* J = 74 */
(PID.TID 0000.0001)                 9.973979913666863E+03,      /* J = 75 */
(PID.TID 0000.0001)                 1.002951330335672E+04,      /* J = 76 */
(PID.TID 0000.0001)                 1.008501614140969E+04,      /* J = 77 */
(PID.TID 0000.0001)                 1.014048825875450E+04,      /* J = 78 */
(PID.TID 0000.0001)      . . .
(PID.TID 0000.0001)                 1.124321973312895E+04,      /* J = 98 */
(PID.TID 0000.0001)                 1.129800783041847E+04,      /* J = 99 */
(PID.TID 0000.0001)                 1.135276151201679E+04       /* J =100 */
(PID.TID 0000.0001)     ;
(PID.TID 0000.0001) dyG =  /* dyG(:,1,:,1) ( units: m ) */
(PID.TID 0000.0001)    50 @  1.111774733520388E+04              /* I =  1: 50 */
(PID.TID 0000.0001)     ;
(PID.TID 0000.0001) dyG =  /* dyG(1,:,1,:) ( units: m ) */
(PID.TID 0000.0001)   100 @  1.111774733520388E+04              /* J =  1:100 */
(PID.TID 0000.0001)     ;
(PID.TID 0000.0001) dxC =  /* dxC(:,1,:,1) ( units: m ) */
(PID.TID 0000.0001)    50 @  5.820391490558872E+03              /* I =  1: 50 */
(PID.TID 0000.0001)     ;
(PID.TID 0000.0001) dxC =  /* dxC(1,:,1,:) ( units: m ) */
(PID.TID 0000.0001)                 5.820391490558872E+03,      /* J =  1 */
(PID.TID 0000.0001)                 5.877701765291692E+03,      /* J =  2 */
(PID.TID 0000.0001)                 5.934994135525598E+03,      /* J =  3 */
(PID.TID 0000.0001)      . . .
(PID.TID 0000.0001)                 7.076813247621209E+03,      /* J = 23 */
(PID.TID 0000.0001)                 7.133689397375063E+03,      /* J = 24 */
(PID.TID 0000.0001)                 7.190543816673855E+03,      /* J = 25 */
(PID.TID 0000.0001)                 7.247376332329164E+03,      /* J = 26 */
(PID.TID 0000.0001)                 7.304186771219292E+03,      /* J = 27 */
(PID.TID 0000.0001)                 7.360974960289787E+03,      /* J = 28 */
(PID.TID 0000.0001)      . . .
(PID.TID 0000.0001)                 8.491800393599013E+03,      /* J = 48 */
(PID.TID 0000.0001)                 8.548081485571185E+03,      /* J = 49 */
(PID.TID 0000.0001)                 8.604336538604706E+03,      /* J = 50 */
(PID.TID 0000.0001)                 8.660565381336924E+03,      /* J = 51 */
(PID.TID 0000.0001)                 8.716767842485036E+03,      /* J = 52 */
(PID.TID 0000.0001)                 8.772943750846600E+03,      /* J = 53 */
(PID.TID 0000.0001)      . . .
(PID.TID 0000.0001)                 9.890622914885218E+03,      /* J = 73 */
(PID.TID 0000.0001)                 9.946201814818334E+03,      /* J = 74 */
(PID.TID 0000.0001)                 1.000175041689580E+04,      /* J = 75 */
(PID.TID 0000.0001)                 1.005726855190695E+04,      /* J = 76 */
(PID.TID 0000.0001)                 1.011275605073392E+04,      /* J = 77 */
(PID.TID 0000.0001)                 1.016821274435215E+04,      /* J = 78 */
(PID.TID 0000.0001)      . . .
(PID.TID 0000.0001)                 1.127061807330668E+04,      /* J = 98 */
(PID.TID 0000.0001)                 1.132538898360582E+04,      /* J = 99 */
(PID.TID 0000.0001)                 1.138012539480601E+04       /* J =100 */
(PID.TID 0000.0001)     ;
(PID.TID 0000.0001) dyC =  /* dyC(:,1,:,1) ( units: m ) */
(PID.TID 0000.0001)    50 @  1.111774733520388E+04              /* I =  1: 50 */
(PID.TID 0000.0001)     ;
(PID.TID 0000.0001) dyC =  /* dyC(1,:,1,:) ( units: m ) */
(PID.TID 0000.0001)   100 @  1.111774733520388E+04              /* J =  1:100 */
(PID.TID 0000.0001)     ;
(PID.TID 0000.0001) dxV =  /* dxV(:,1,:,1) ( units: m ) */
(PID.TID 0000.0001)    50 @  5.791729693558576E+03              /* I =  1: 50 */
(PID.TID 0000.0001)     ;
(PID.TID 0000.0001) dxV =  /* dxV(1,:,1,:) ( units: m ) */
(PID.TID 0000.0001)                 5.791729693558576E+03,      /* J =  1 */
(PID.TID 0000.0001)                 5.849048855077854E+03,      /* J =  2 */
(PID.TID 0000.0001)                 5.906350199379949E+03,      /* J =  3 */
(PID.TID 0000.0001)      . . .
(PID.TID 0000.0001)                 7.048367077963129E+03,      /* J = 23 */
(PID.TID 0000.0001)                 7.105254027978149E+03,      /* J = 24 */
(PID.TID 0000.0001)                 7.162119334157175E+03,      /* J = 25 */
(PID.TID 0000.0001)                 7.218962823278620E+03,      /* J = 26 */
(PID.TID 0000.0001)                 7.275784322187360E+03,      /* J = 27 */
(PID.TID 0000.0001)                 7.332583657795253E+03,      /* J = 28 */
(PID.TID 0000.0001)      . . .
(PID.TID 0000.0001)                 8.463650136583461E+03,      /* J = 48 */
(PID.TID 0000.0001)                 8.519944183739159E+03,      /* J = 49 */
(PID.TID 0000.0001)                 8.576212277667308E+03,      /* J = 50 */
(PID.TID 0000.0001)                 8.632454246965530E+03,      /* J = 51 */
(PID.TID 0000.0001)                 8.688669920311038E+03,      /* J = 52 */
(PID.TID 0000.0001)                 8.744859126461139E+03,      /* J = 53 */
(PID.TID 0000.0001)      . . .
(PID.TID 0000.0001)                 9.862822156126382E+03,      /* J = 73 */
(PID.TID 0000.0001)                 9.918416141504455E+03,      /* J = 74 */
(PID.TID 0000.0001)                 9.973979913666863E+03,      /* J = 75 */
(PID.TID 0000.0001)                 1.002951330335672E+04,      /* J = 76 */
(PID.TID 0000.0001)                 1.008501614140969E+04,      /* J = 77 */
(PID.TID 0000.0001)                 1.014048825875450E+04,      /* J = 78 */
(PID.TID 0000.0001)      . . .
(PID.TID 0000.0001)                 1.124321973312895E+04,      /* J = 98 */
(PID.TID 0000.0001)                 1.129800783041847E+04,      /* J = 99 */
(PID.TID 0000.0001)                 1.135276151201679E+04       /* J =100 */
(PID.TID 0000.0001)     ;
(PID.TID 0000.0001) dyU =  /* dyU(:,1,:,1) ( units: m ) */
(PID.TID 0000.0001)    50 @  1.111774733520388E+04              /* I =  1: 50 */
(PID.TID 0000.0001)     ;
(PID.TID 0000.0001) dyU =  /* dyU(1,:,1,:) ( units: m ) */
(PID.TID 0000.0001)   100 @  1.111774733520388E+04              /* J =  1:100 */
(PID.TID 0000.0001)     ;
(PID.TID 0000.0001) rA  =  /* rA (:,1,:,1) ( units: m^2 ) */
(PID.TID 0000.0001)    50 @  6.470963377080289E+07              /* I =  1: 50 */
(PID.TID 0000.0001)     ;
(PID.TID 0000.0001) rA  =  /* rA (1,:,1,:) ( units: m^2 ) */
(PID.TID 0000.0001)                 6.470963377080289E+07,      /* J =  1 */
(PID.TID 0000.0001)                 6.534679484410104E+07,      /* J =  2 */
(PID.TID 0000.0001)                 6.598375685977945E+07,      /* J =  3 */
(PID.TID 0000.0001)      . . .
(PID.TID 0000.0001)                 7.867821163932665E+07,      /* J = 23 */
(PID.TID 0000.0001)                 7.931054622142966E+07,      /* J = 24 */
(PID.TID 0000.0001)                 7.994263920984067E+07,      /* J = 25 */
(PID.TID 0000.0001)                 8.057448867913349E+07,      /* J = 26 */
(PID.TID 0000.0001)                 8.120609270456599E+07,      /* J = 27 */
(PID.TID 0000.0001)                 8.183744936212724E+07,      /* J = 28 */
(PID.TID 0000.0001)      . . .
(PID.TID 0000.0001)                 9.440967921416211E+07,      /* J = 48 */
(PID.TID 0000.0001)                 9.503539809503193E+07,      /* J = 49 */
(PID.TID 0000.0001)                 9.566082748163140E+07,      /* J = 50 */
(PID.TID 0000.0001)                 9.628596546870193E+07,      /* J = 51 */
(PID.TID 0000.0001)                 9.691081015209354E+07,      /* J = 52 */
(PID.TID 0000.0001)                 9.753535962826957E+07,      /* J = 53 */
(PID.TID 0000.0001)      . . .
(PID.TID 0000.0001)                 1.099614325987181E+08,      /* J = 73 */
(PID.TID 0000.0001)                 1.105793446869293E+08,      /* J = 74 */
(PID.TID 0000.0001)                 1.111969199312560E+08,      /* J = 75 */
(PID.TID 0000.0001)                 1.118141564504991E+08,      /* J = 76 */
(PID.TID 0000.0001)                 1.124310523644033E+08,      /* J = 77 */
(PID.TID 0000.0001)                 1.130476057938687E+08,      /* J = 78 */
(PID.TID 0000.0001)      . . .
(PID.TID 0000.0001)                 1.253038681465364E+08,      /* J = 98 */
(PID.TID 0000.0001)                 1.259127972112936E+08,      /* J = 99 */
(PID.TID 0000.0001)                 1.265213427237870E+08       /* J =100 */
(PID.TID 0000.0001)     ;
(PID.TID 0000.0001) rAw =  /* rAw(:,1,:,1) ( units: m^2 ) */
(PID.TID 0000.0001)    50 @  6.470963377080289E+07              /* I =  1: 50 */
(PID.TID 0000.0001)     ;
(PID.TID 0000.0001) rAw =  /* rAw(1,:,1,:) ( units: m^2 ) */
(PID.TID 0000.0001)                 6.470963377080289E+07,      /* J =  1 */
(PID.TID 0000.0001)                 6.534679484410104E+07,      /* J =  2 */
(PID.TID 0000.0001)                 6.598375685977945E+07,      /* J =  3 */
(PID.TID 0000.0001)      . . .
(PID.TID 0000.0001)                 7.867821163932665E+07,      /* J = 23 */
(PID.TID 0000.0001)                 7.931054622142966E+07,      /* J = 24 */
(PID.TID 0000.0001)                 7.994263920984067E+07,      /* J = 25 */
(PID.TID 0000.0001)                 8.057448867913349E+07,      /* J = 26 */
(PID.TID 0000.0001)                 8.120609270456599E+07,      /* J = 27 */
(PID.TID 0000.0001)                 8.183744936212724E+07,      /* J = 28 */
(PID.TID 0000.0001)      . . .
(PID.TID 0000.0001)                 9.440967921416211E+07,      /* J = 48 */
(PID.TID 0000.0001)                 9.503539809503193E+07,      /* J = 49 */
(PID.TID 0000.0001)                 9.566082748163140E+07,      /* J = 50 */
(PID.TID 0000.0001)                 9.628596546870193E+07,      /* J = 51 */
(PID.TID 0000.0001)                 9.691081015209354E+07,      /* J = 52 */
(PID.TID 0000.0001)                 9.753535962826957E+07,      /* J = 53 */
(PID.TID 0000.0001)      . . .
(PID.TID 0000.0001)                 1.099614325987181E+08,      /* J = 73 */
(PID.TID 0000.0001)                 1.105793446869293E+08,      /* J = 74 */
(PID.TID 0000.0001)                 1.111969199312560E+08,      /* J = 75 */
(PID.TID 0000.0001)                 1.118141564504991E+08,      /* J = 76 */
(PID.TID 0000.0001)                 1.124310523644033E+08,      /* J = 77 */
(PID.TID 0000.0001)                 1.130476057938687E+08,      /* J = 78 */
(PID.TID 0000.0001)      . . .
(PID.TID 0000.0001)                 1.253038681465364E+08,      /* J = 98 */
(PID.TID 0000.0001)                 1.259127972112936E+08,      /* J = 99 */
(PID.TID 0000.0001)                 1.265213427237870E+08       /* J =100 */
(PID.TID 0000.0001)     ;
(PID.TID 0000.0001) rAs =  /* rAs(:,1,:,1) ( units: m^2 ) */
(PID.TID 0000.0001)    50 @  6.439097919401864E+07              /* I =  1: 50 */
(PID.TID 0000.0001)     ;
(PID.TID 0000.0001) rAs =  /* rAs(1,:,1,:) ( units: m^2 ) */
(PID.TID 0000.0001)                 6.439097919401864E+07,      /* J =  1 */
(PID.TID 0000.0001)                 6.502823906837179E+07,      /* J =  2 */
(PID.TID 0000.0001)                 6.566530085543716E+07,      /* J =  3 */
(PID.TID 0000.0001)      . . .
(PID.TID 0000.0001)                 7.836195435256335E+07,      /* J = 23 */
(PID.TID 0000.0001)                 7.899440900921808E+07,      /* J = 24 */
(PID.TID 0000.0001)                 7.962662303520055E+07,      /* J = 25 */
(PID.TID 0000.0001)                 8.025859450470714E+07,      /* J = 26 */
(PID.TID 0000.0001)                 8.089032149259475E+07,      /* J = 27 */
(PID.TID 0000.0001)                 8.152180207452223E+07,      /* J = 28 */
(PID.TID 0000.0001)      . . .
(PID.TID 0000.0001)                 9.409671180895932E+07,      /* J = 48 */
(PID.TID 0000.0001)                 9.472257472228888E+07,      /* J = 49 */
(PID.TID 0000.0001)                 9.534814909420149E+07,      /* J = 50 */
(PID.TID 0000.0001)                 9.597343301913190E+07,      /* J = 51 */
(PID.TID 0000.0001)                 9.659842459236403E+07,      /* J = 52 */
(PID.TID 0000.0001)                 9.722312190998378E+07,      /* J = 53 */
(PID.TID 0000.0001)      . . .
(PID.TID 0000.0001)                 1.096523508263446E+08,      /* J = 73 */
(PID.TID 0000.0001)                 1.102704306306916E+08,      /* J = 74 */
(PID.TID 0000.0001)                 1.108881745321664E+08,      /* J = 75 */
(PID.TID 0000.0001)                 1.115055806490511E+08,      /* J = 76 */
(PID.TID 0000.0001)                 1.121226471005947E+08,      /* J = 77 */
(PID.TID 0000.0001)                 1.127393720071080E+08,      /* J = 78 */
(PID.TID 0000.0001)      . . .
(PID.TID 0000.0001)                 1.249992603617116E+08,      /* J = 98 */
(PID.TID 0000.0001)                 1.256083805070198E+08,      /* J = 99 */
(PID.TID 0000.0001)                 1.262171180274426E+08       /* J =100 */
(PID.TID 0000.0001)     ;
(PID.TID 0000.0001) globalArea = /* Integrated horizontal Area (m^2) */
(PID.TID 0000.0001)                 4.665024516720074E+11
(PID.TID 0000.0001)     ;
(PID.TID 0000.0001) // =======================================================
(PID.TID 0000.0001) // End of Model config. summary
(PID.TID 0000.0001) // =======================================================
(PID.TID 0000.0001) 
(PID.TID 0000.0001) == Packages configuration : Check & print summary ==
(PID.TID 0000.0001) 
(PID.TID 0000.0001) SHELFICE_CHECK: #define ALLOW_SHELFICE
(PID.TID 0000.0001) 
(PID.TID 0000.0001) SHELFICE_CHECK: start of SHELFICE config. summary
(PID.TID 0000.0001) SHELFICEisOn = /* package is turned on */
(PID.TID 0000.0001)                   T
(PID.TID 0000.0001)     ;
(PID.TID 0000.0001) useISOMIPTD = /* use simple isomip thermodynamics */
(PID.TID 0000.0001)                   F
(PID.TID 0000.0001)     ;
(PID.TID 0000.0001) SHELFICEconserve = /* use a conservative form of boundary conditions */
(PID.TID 0000.0001)                   T
(PID.TID 0000.0001)     ;
(PID.TID 0000.0001) SHELFICEboundaryLayer = /* use simple boundary layer scheme to suppress noise */
(PID.TID 0000.0001)                   T
(PID.TID 0000.0001)     ;
(PID.TID 0000.0001) SHELFICEadvDiffHeatFlux = /* use adv.-diff. instead of just diff. heat flux into the ice shelf */
(PID.TID 0000.0001)                   F
(PID.TID 0000.0001)     ;
(PID.TID 0000.0001) SHELFICEMassStepping = /* step forward ice shelf mass/thickness */
(PID.TID 0000.0001)                   F
(PID.TID 0000.0001)     ;
(PID.TID 0000.0001) no_slip_shelfice = /* use no slip boundary conditions */
(PID.TID 0000.0001)                   F
(PID.TID 0000.0001)     ;
(PID.TID 0000.0001) SHELFICEdragLinear    = /* linear drag coefficient */
(PID.TID 0000.0001)                 0.000000000000000E+00
(PID.TID 0000.0001)     ;
(PID.TID 0000.0001) SHELFICEdragQuadratic = /* quadratic drag coefficient */
(PID.TID 0000.0001)                 2.500000000000000E-03
(PID.TID 0000.0001)     ;
(PID.TID 0000.0001) SHELFICEselectDragQuadr = /* select quadratic drag option */
(PID.TID 0000.0001)                       0
(PID.TID 0000.0001)     ;
(PID.TID 0000.0001) SHELFICElatentHeat      = /* latent heat of ice */
(PID.TID 0000.0001)                 3.340000000000000E+05
(PID.TID 0000.0001)     ;
(PID.TID 0000.0001) SHELFICEheatCapacity_Cp = /* heat capacity of ice shelf */
(PID.TID 0000.0001)                 2.000000000000000E+03
(PID.TID 0000.0001)     ;
(PID.TID 0000.0001) rhoShelfice   = /* density of ice shelf */
(PID.TID 0000.0001)                 9.170000000000000E+02
(PID.TID 0000.0001)     ;
(PID.TID 0000.0001) SHELFICEkappa = /* thermal conductivity of ice shelf */
(PID.TID 0000.0001)                 1.540000000000000E-06
(PID.TID 0000.0001)     ;
(PID.TID 0000.0001) SHELFICEthetaSurface = /* surface temperature above i.s. */
(PID.TID 0000.0001)                -2.000000000000000E+01
(PID.TID 0000.0001)     ;
(PID.TID 0000.0001) SHELFICEheatTransCoeff = /* heat transfer coefficient */
(PID.TID 0000.0001)                 1.000000000000000E-04
(PID.TID 0000.0001)     ;
(PID.TID 0000.0001) SHELFICEsaltTransCoeff = /* salt transfer coefficient */
(PID.TID 0000.0001)                 5.050000000000000E-07
(PID.TID 0000.0001)     ;
(PID.TID 0000.0001) SHELFICEuseGammaFrict = /* use velocity dependent exchange coefficients */
(PID.TID 0000.0001)                   F
(PID.TID 0000.0001)     ;
(PID.TID 0000.0001) SHELFICEloadAnomalyFile = /* file name of loaded loadAnomaly field */
(PID.TID 0000.0001)               'phi0surf.exp1.jmd95z'
(PID.TID 0000.0001)     ;
(PID.TID 0000.0001) SHELFICEmassFile = /* file name of loaded mass field */
(PID.TID 0000.0001)               ''
(PID.TID 0000.0001)     ;
(PID.TID 0000.0001) SHELFICEtopoFile = /* file name of loaded under-ice topography */
(PID.TID 0000.0001)               'icetopo.exp1'
(PID.TID 0000.0001)     ;
(PID.TID 0000.0001) SHELFICEMassDynTendFile = /* file name of loaded dynamic mass tendency field */
(PID.TID 0000.0001)               ''
(PID.TID 0000.0001)     ;
(PID.TID 0000.0001) SHELFICEwriteState  = /* do simple standard output */
(PID.TID 0000.0001)                   T
(PID.TID 0000.0001)     ;
(PID.TID 0000.0001) SHELFICE_dump_mdsio = /* use mdsio for snapshots */
(PID.TID 0000.0001)                   T
(PID.TID 0000.0001)     ;
(PID.TID 0000.0001) SHELFICE_tave_mdsio = /* use mdsio for time averages */
(PID.TID 0000.0001)                   T
(PID.TID 0000.0001)     ;
(PID.TID 0000.0001) SHELFICE_dump_mnc   = /* use netcdf for snapshots */
(PID.TID 0000.0001)                   F
(PID.TID 0000.0001)     ;
(PID.TID 0000.0001) SHELFICE_tave_mnc   = /* use netcdf for time averages */
(PID.TID 0000.0001)                   F
(PID.TID 0000.0001)     ;
(PID.TID 0000.0001) SHELFICE_dumpFreq = /* analoguous to dumpFreq */
(PID.TID 0000.0001)                 0.000000000000000E+00
(PID.TID 0000.0001)     ;
(PID.TID 0000.0001) SHELFICE_taveFreq = /* analoguous to taveFreq */
(PID.TID 0000.0001)                 0.000000000000000E+00
(PID.TID 0000.0001)     ;
(PID.TID 0000.0001) SHELFICE_CHECK: end of SHELFICE config. summary
(PID.TID 0000.0001) ICEFRONT_CHECK: #define ALLOW_ICEFRONT
(PID.TID 0000.0001) GAD_CHECK: #define ALLOW_GENERIC_ADVDIFF
(PID.TID 0000.0001) // =======================================================
(PID.TID 0000.0001) // Check Model config. (CONFIG_CHECK):
(PID.TID 0000.0001) // CONFIG_CHECK : Normal End
(PID.TID 0000.0001) // =======================================================
(PID.TID 0000.0001) 
(PID.TID 0000.0001) Start initial hydrostatic pressure computation
(PID.TID 0000.0001) Pressure is predetermined for buoyancyRelation OCEANIC
(PID.TID 0000.0001) 
(PID.TID 0000.0001)  write diagnostics summary to file ioUnit:      6
Iter.Nb:         0 ; Time(s):  0.0000000000000E+00
------------------------------------------------------------------------
2D/3D diagnostics: Number of lists:     2
------------------------------------------------------------------------
listId=    1 ; file name: shelficeDiag
 nFlds, nActive,       freq     &     phase        , nLev               
    2  |    2  |     18000.000000         0.000000 |   1
 levels:   1
 diag# | name   |   ipt  |  iMate | kLev|   count |   mate.C|           
   198 |SHIfwFlx|      1 |      0 |   1 |       0 |
   199 |SHIhtFlx|      2 |      0 |   1 |       0 |
------------------------------------------------------------------------
listId=    2 ; file name: icefrontDiag
 nFlds, nActive,       freq     &     phase        , nLev               
    2  |    2  |     18000.000000         0.000000 |  30
 levels:   1   2   3   4   5   6   7   8   9  10  11  12  13  14  15  16  17  18  19  20  21  22  23  24  25
 levels:  26  27  28  29  30
 diag# | name   |   ipt  |  iMate | kLev|   count |   mate.C|           
   208 |ICFfwFlx|      3 |      0 |  30 |       0 |
   209 |ICFhtFlx|     33 |      0 |  30 |       0 |
------------------------------------------------------------------------
Global & Regional Statistics diagnostics: Number of lists:     0
------------------------------------------------------------------------
(PID.TID 0000.0001) // =======================================================
(PID.TID 0000.0001) // Model current state
(PID.TID 0000.0001) // =======================================================
(PID.TID 0000.0001) 
(PID.TID 0000.0001) // =======================================================
(PID.TID 0000.0001) // Begin MONITOR dynamic field statistics
(PID.TID 0000.0001) // =======================================================
(PID.TID 0000.0001) %MON time_tsnumber                =                     0
(PID.TID 0000.0001) %MON time_secondsf                =   0.0000000000000E+00
(PID.TID 0000.0001) %MON dynstat_eta_max              =   0.0000000000000E+00
(PID.TID 0000.0001) %MON dynstat_eta_min              =   0.0000000000000E+00
(PID.TID 0000.0001) %MON dynstat_eta_mean             =   0.0000000000000E+00
(PID.TID 0000.0001) %MON dynstat_eta_sd               =   0.0000000000000E+00
(PID.TID 0000.0001) %MON dynstat_eta_del2             =   0.0000000000000E+00
(PID.TID 0000.0001) %MON dynstat_uvel_max             =   0.0000000000000E+00
(PID.TID 0000.0001) %MON dynstat_uvel_min             =   0.0000000000000E+00
(PID.TID 0000.0001) %MON dynstat_uvel_mean            =   0.0000000000000E+00
(PID.TID 0000.0001) %MON dynstat_uvel_sd              =   0.0000000000000E+00
(PID.TID 0000.0001) %MON dynstat_uvel_del2            =   0.0000000000000E+00
(PID.TID 0000.0001) %MON dynstat_vvel_max             =   0.0000000000000E+00
(PID.TID 0000.0001) %MON dynstat_vvel_min             =   0.0000000000000E+00
(PID.TID 0000.0001) %MON dynstat_vvel_mean            =   0.0000000000000E+00
(PID.TID 0000.0001) %MON dynstat_vvel_sd              =   0.0000000000000E+00
(PID.TID 0000.0001) %MON dynstat_vvel_del2            =   0.0000000000000E+00
(PID.TID 0000.0001) %MON dynstat_wvel_max             =  -0.0000000000000E+00
(PID.TID 0000.0001) %MON dynstat_wvel_min             =  -0.0000000000000E+00
(PID.TID 0000.0001) %MON dynstat_wvel_mean            =   0.0000000000000E+00
(PID.TID 0000.0001) %MON dynstat_wvel_sd              =   0.0000000000000E+00
(PID.TID 0000.0001) %MON dynstat_wvel_del2            =   0.0000000000000E+00
(PID.TID 0000.0001) %MON dynstat_theta_max            =  -1.9000000000000E+00
(PID.TID 0000.0001) %MON dynstat_theta_min            =  -1.9000000000000E+00
(PID.TID 0000.0001) %MON dynstat_theta_mean           =  -1.9000000000001E+00
(PID.TID 0000.0001) %MON dynstat_theta_sd             =   1.2256862191862E-13
(PID.TID 0000.0001) %MON dynstat_theta_del2           =   0.0000000000000E+00
(PID.TID 0000.0001) %MON dynstat_salt_max             =   3.4400000000000E+01
(PID.TID 0000.0001) %MON dynstat_salt_min             =   3.4400000000000E+01
(PID.TID 0000.0001) %MON dynstat_salt_mean            =   3.4400000000001E+01
(PID.TID 0000.0001) %MON dynstat_salt_sd              =   1.1084466677858E-12
(PID.TID 0000.0001) %MON dynstat_salt_del2            =   0.0000000000000E+00
(PID.TID 0000.0001) %MON trAdv_CFL_u_max              =   0.0000000000000E+00
(PID.TID 0000.0001) %MON trAdv_CFL_v_max              =   0.0000000000000E+00
(PID.TID 0000.0001) %MON trAdv_CFL_w_max              =   0.0000000000000E+00
(PID.TID 0000.0001) %MON advcfl_uvel_max              =   0.0000000000000E+00
(PID.TID 0000.0001) %MON advcfl_vvel_max              =   0.0000000000000E+00
(PID.TID 0000.0001) %MON advcfl_wvel_max              =   0.0000000000000E+00
(PID.TID 0000.0001) %MON advcfl_W_hf_max              =   0.0000000000000E+00
(PID.TID 0000.0001) %MON pe_b_mean                    =   0.0000000000000E+00
(PID.TID 0000.0001) %MON ke_max                       =   0.0000000000000E+00
(PID.TID 0000.0001) %MON ke_mean                      =   0.0000000000000E+00
(PID.TID 0000.0001) %MON ke_vol                       =   3.4703745874272E+14
(PID.TID 0000.0001) %MON vort_r_min                   =   0.0000000000000E+00
(PID.TID 0000.0001) %MON vort_r_max                   =   0.0000000000000E+00
(PID.TID 0000.0001) %MON vort_a_mean                  =  -1.3992981969631E-04
(PID.TID 0000.0001) %MON vort_a_sd                    =   1.7365065483553E-06
(PID.TID 0000.0001) %MON vort_p_mean                  =  -1.4746660593269E-04
(PID.TID 0000.0001) %MON vort_p_sd                    =   7.7973631850226E-05
(PID.TID 0000.0001) %MON surfExpan_theta_mean         =   0.0000000000000E+00
(PID.TID 0000.0001) %MON surfExpan_salt_mean          =   0.0000000000000E+00
(PID.TID 0000.0001) // =======================================================
(PID.TID 0000.0001) // End MONITOR dynamic field statistics
(PID.TID 0000.0001) // =======================================================
(PID.TID 0000.0001) SOLVE_FOR_PRESSURE: putPmEinXvector =    F
(PID.TID 0000.0001) SOLVE_FOR_PRESSURE: zeroPsNH=    F , zeroMeanPnh=    F
(PID.TID 0000.0001) SOLVE_FOR_PRESSURE: oldFreeSurfTerm =    F
 cg2d: Sum(rhs),rhsMax =   3.55271367880050E-15  4.59731572276010E-09
(PID.TID 0000.0001)      cg2d_init_res =   1.44107623890240E+01
(PID.TID 0000.0001)      cg2d_iters(min,last) =      -1     212
(PID.TID 0000.0001)      cg2d_last_res =   9.39690645491344E-14
(PID.TID 0000.0001) // =======================================================
(PID.TID 0000.0001) // Begin MONITOR dynamic field statistics
(PID.TID 0000.0001) // =======================================================
(PID.TID 0000.0001) %MON time_tsnumber                =                     1
(PID.TID 0000.0001) %MON time_secondsf                =   1.8000000000000E+03
(PID.TID 0000.0001) %MON dynstat_eta_max              =   8.4447171031995E-10
(PID.TID 0000.0001) %MON dynstat_eta_min              =  -5.7950492734806E-10
(PID.TID 0000.0001) %MON dynstat_eta_mean             =   6.0925101955063E-27
(PID.TID 0000.0001) %MON dynstat_eta_sd               =   1.7020143312196E-10
(PID.TID 0000.0001) %MON dynstat_eta_del2             =   5.0280316973900E-12
(PID.TID 0000.0001) %MON dynstat_uvel_max             =   2.1880758945987E-10
(PID.TID 0000.0001) %MON dynstat_uvel_min             =  -2.0733345172131E-10
(PID.TID 0000.0001) %MON dynstat_uvel_mean            =  -1.1795658892503E-13
(PID.TID 0000.0001) %MON dynstat_uvel_sd              =   4.0010665145228E-11
(PID.TID 0000.0001) %MON dynstat_uvel_del2            =   2.5908775340917E-13
(PID.TID 0000.0001) %MON dynstat_vvel_max             =   1.6036443262061E-10
(PID.TID 0000.0001) %MON dynstat_vvel_min             =  -1.5705571640597E-10
(PID.TID 0000.0001) %MON dynstat_vvel_mean            =   1.1301301777549E-12
(PID.TID 0000.0001) %MON dynstat_vvel_sd              =   8.1734194868000E-12
(PID.TID 0000.0001) %MON dynstat_vvel_del2            =   3.7497172104040E-14
(PID.TID 0000.0001) %MON dynstat_wvel_max             =   1.5391551372821E-12
(PID.TID 0000.0001) %MON dynstat_wvel_min             =  -1.1638111944826E-12
(PID.TID 0000.0001) %MON dynstat_wvel_mean            =   1.0980150833317E-15
(PID.TID 0000.0001) %MON dynstat_wvel_sd              =   5.5793451982059E-14
(PID.TID 0000.0001) %MON dynstat_wvel_del2            =   3.3084934980920E-16
(PID.TID 0000.0001) %MON dynstat_theta_max            =  -1.9000000000000E+00
(PID.TID 0000.0001) %MON dynstat_theta_min            =  -1.9006712454661E+00
(PID.TID 0000.0001) %MON dynstat_theta_mean           =  -1.9000056936508E+00
(PID.TID 0000.0001) %MON dynstat_theta_sd             =   4.3995309114464E-05
(PID.TID 0000.0001) %MON dynstat_theta_del2           =   5.2039299503794E-08
(PID.TID 0000.0001) %MON dynstat_salt_max             =   3.4400000000000E+01
(PID.TID 0000.0001) %MON dynstat_salt_min             =   3.4399726072437E+01
(PID.TID 0000.0001) %MON dynstat_salt_mean            =   3.4399997687770E+01
(PID.TID 0000.0001) %MON dynstat_salt_sd              =   1.7908352267916E-05
(PID.TID 0000.0001) %MON dynstat_salt_del2            =   2.1160203740469E-08
(PID.TID 0000.0001) %MON trAdv_CFL_u_max              =   0.0000000000000E+00
(PID.TID 0000.0001) %MON trAdv_CFL_v_max              =   0.0000000000000E+00
(PID.TID 0000.0001) %MON trAdv_CFL_w_max              =   0.0000000000000E+00
(PID.TID 0000.0001) %MON advcfl_uvel_max              =   6.2280289620056E-11
(PID.TID 0000.0001) %MON advcfl_vvel_max              =   2.5963531101582E-11
(PID.TID 0000.0001) %MON advcfl_wvel_max              =   9.2349308236927E-11
(PID.TID 0000.0001) %MON advcfl_W_hf_max              =   9.2349308236927E-11
(PID.TID 0000.0001) %MON pe_b_mean                    =   4.8942280081920E-14
(PID.TID 0000.0001) %MON ke_max                       =   2.4035943579627E-20
(PID.TID 0000.0001) %MON ke_mean                      =   8.1769499784436E-22
(PID.TID 0000.0001) %MON ke_vol                       =   3.4703745874272E+14
(PID.TID 0000.0001) %MON vort_r_min                   =  -2.7567877600667E-14
(PID.TID 0000.0001) %MON vort_r_max                   =   2.6634637111166E-14
(PID.TID 0000.0001) %MON vort_a_mean                  =  -1.3992981969631E-04
(PID.TID 0000.0001) %MON vort_a_sd                    =   1.7365065484877E-06
(PID.TID 0000.0001) %MON vort_p_mean                  =  -1.4746660593269E-04
(PID.TID 0000.0001) %MON vort_p_sd                    =   7.7973631850647E-05
(PID.TID 0000.0001) %MON surfExpan_theta_mean         =   8.9104001852290E-19
(PID.TID 0000.0001) %MON surfExpan_salt_mean          =   3.5045217422668E-19
(PID.TID 0000.0001) // =======================================================
(PID.TID 0000.0001) // End MONITOR dynamic field statistics
(PID.TID 0000.0001) // =======================================================
 cg2d: Sum(rhs),rhsMax =   2.22706679757923E-14  1.14227506369668E-05
(PID.TID 0000.0001)      cg2d_init_res =   8.47195858002596E+00
(PID.TID 0000.0001)      cg2d_iters(min,last) =      -1     214
(PID.TID 0000.0001)      cg2d_last_res =   9.47521434115772E-14
(PID.TID 0000.0001) // =======================================================
(PID.TID 0000.0001) // Begin MONITOR dynamic field statistics
(PID.TID 0000.0001) // =======================================================
(PID.TID 0000.0001) %MON time_tsnumber                =                     2
(PID.TID 0000.0001) %MON time_secondsf                =   3.6000000000000E+03
(PID.TID 0000.0001) %MON dynstat_eta_max              =   1.4759726518294E-06
(PID.TID 0000.0001) %MON dynstat_eta_min              =  -1.5536459705729E-06
(PID.TID 0000.0001) %MON dynstat_eta_mean             =   9.7740110229776E-23
(PID.TID 0000.0001) %MON dynstat_eta_sd               =   4.6709884006435E-07
(PID.TID 0000.0001) %MON dynstat_eta_del2             =   4.3348555988801E-09
(PID.TID 0000.0001) %MON dynstat_uvel_max             =   4.3228492097303E-07
(PID.TID 0000.0001) %MON dynstat_uvel_min             =  -1.3848863109393E-06
(PID.TID 0000.0001) %MON dynstat_uvel_mean            =   3.5346938351092E-09
(PID.TID 0000.0001) %MON dynstat_uvel_sd              =   1.0027371150340E-07
(PID.TID 0000.0001) %MON dynstat_uvel_del2            =   3.1278972603856E-10
(PID.TID 0000.0001) %MON dynstat_vvel_max             =   5.4890850272085E-06
(PID.TID 0000.0001) %MON dynstat_vvel_min             =  -7.0389422579609E-07
(PID.TID 0000.0001) %MON dynstat_vvel_mean            =  -5.0050028545442E-08
(PID.TID 0000.0001) %MON dynstat_vvel_sd              =   3.1113195109898E-07
(PID.TID 0000.0001) %MON dynstat_vvel_del2            =   8.5307933862127E-10
(PID.TID 0000.0001) %MON dynstat_wvel_max             =   1.2653749445073E-08
(PID.TID 0000.0001) %MON dynstat_wvel_min             =  -1.7769373282208E-08
(PID.TID 0000.0001) %MON dynstat_wvel_mean            =  -4.0067854088817E-11
(PID.TID 0000.0001) %MON dynstat_wvel_sd              =   1.0492266718346E-09
(PID.TID 0000.0001) %MON dynstat_wvel_del2            =   1.0132314373494E-11
(PID.TID 0000.0001) %MON dynstat_theta_max            =  -1.9000000000000E+00
(PID.TID 0000.0001) %MON dynstat_theta_min            =  -1.9013410087871E+00
(PID.TID 0000.0001) %MON dynstat_theta_mean           =  -1.9000113768838E+00
(PID.TID 0000.0001) %MON dynstat_theta_sd             =   8.7881797284001E-05
(PID.TID 0000.0001) %MON dynstat_theta_del2           =   1.0373354564023E-07
(PID.TID 0000.0001) %MON dynstat_salt_max             =   3.4400000000000E+01
(PID.TID 0000.0001) %MON dynstat_salt_min             =   3.4399452752663E+01
(PID.TID 0000.0001) %MON dynstat_salt_mean            =   3.4399995379811E+01
(PID.TID 0000.0001) %MON dynstat_salt_sd              =   3.5772132242687E-05
(PID.TID 0000.0001) %MON dynstat_salt_del2            =   4.2179852713209E-08
(PID.TID 0000.0001) %MON trAdv_CFL_u_max              =   6.2280297524914E-11
(PID.TID 0000.0001) %MON trAdv_CFL_v_max              =   3.0821517263616E-11
(PID.TID 0000.0001) %MON trAdv_CFL_w_max              =   9.2349308236927E-11
(PID.TID 0000.0001) %MON advcfl_uvel_max              =   4.1206467951900E-07
(PID.TID 0000.0001) %MON advcfl_vvel_max              =   8.8870098870565E-07
(PID.TID 0000.0001) %MON advcfl_wvel_max              =   1.0661623969325E-06
(PID.TID 0000.0001) %MON advcfl_W_hf_max              =   1.1790030160421E-06
(PID.TID 0000.0001) %MON pe_b_mean                    =  -1.0775523761358E-09
(PID.TID 0000.0001) %MON ke_max                       =   8.9067364866405E-12
(PID.TID 0000.0001) %MON ke_mean                      =   5.3936850705386E-14
(PID.TID 0000.0001) %MON ke_vol                       =   3.4703745874272E+14
(PID.TID 0000.0001) %MON vort_r_min                   =  -9.2796684611965E-10
(PID.TID 0000.0001) %MON vort_r_max                   =   9.1475693538671E-10
(PID.TID 0000.0001) %MON vort_a_mean                  =  -1.3992981969614E-04
(PID.TID 0000.0001) %MON vort_a_sd                    =   1.7365065511410E-06
(PID.TID 0000.0001) %MON vort_p_mean                  =  -1.4746660593252E-04
(PID.TID 0000.0001) %MON vort_p_sd                    =   7.7973619498287E-05
(PID.TID 0000.0001) %MON surfExpan_theta_mean         =  -5.7684862593305E-14
(PID.TID 0000.0001) %MON surfExpan_salt_mean          =  -2.3383134717631E-14
(PID.TID 0000.0001) // =======================================================
(PID.TID 0000.0001) // End MONITOR dynamic field statistics
(PID.TID 0000.0001) // =======================================================
 cg2d: Sum(rhs),rhsMax =   3.36120020705266E-14  1.79528571440471E-05
(PID.TID 0000.0001)      cg2d_init_res =   3.35493216586776E+00
(PID.TID 0000.0001)      cg2d_iters(min,last) =      -1     214
(PID.TID 0000.0001)      cg2d_last_res =   9.12833133981749E-14
(PID.TID 0000.0001) // =======================================================
(PID.TID 0000.0001) // Begin MONITOR dynamic field statistics
(PID.TID 0000.0001) // =======================================================
(PID.TID 0000.0001) %MON time_tsnumber                =                     3
(PID.TID 0000.0001) %MON time_secondsf                =   5.4000000000000E+03
(PID.TID 0000.0001) %MON dynstat_eta_max              =   2.4412019822063E-06
(PID.TID 0000.0001) %MON dynstat_eta_min              =  -2.8380039137692E-06
(PID.TID 0000.0001) %MON dynstat_eta_mean             =   4.9909843521588E-23
(PID.TID 0000.0001) %MON dynstat_eta_sd               =   1.1570990796033E-06
(PID.TID 0000.0001) %MON dynstat_eta_del2             =   7.0459704459686E-09
(PID.TID 0000.0001) %MON dynstat_uvel_max             =   8.7058455565745E-07
(PID.TID 0000.0001) %MON dynstat_uvel_min             =  -4.7324488273807E-06
(PID.TID 0000.0001) %MON dynstat_uvel_mean            =   8.9183830173039E-09
(PID.TID 0000.0001) %MON dynstat_uvel_sd              =   3.1251620632700E-07
(PID.TID 0000.0001) %MON dynstat_uvel_del2            =   8.0425665461268E-10
(PID.TID 0000.0001) %MON dynstat_vvel_max             =   1.3593765503668E-05
(PID.TID 0000.0001) %MON dynstat_vvel_min             =  -1.8398371136152E-06
(PID.TID 0000.0001) %MON dynstat_vvel_mean            =  -1.1795796761645E-07
(PID.TID 0000.0001) %MON dynstat_vvel_sd              =   7.7593992910251E-07
(PID.TID 0000.0001) %MON dynstat_vvel_del2            =   2.0958770395557E-09
(PID.TID 0000.0001) %MON dynstat_wvel_max             =   3.4824760395674E-08
(PID.TID 0000.0001) %MON dynstat_wvel_min             =  -3.9312813063080E-08
(PID.TID 0000.0001) %MON dynstat_wvel_mean            =  -8.2125989914520E-11
(PID.TID 0000.0001) %MON dynstat_wvel_sd              =   2.5268670210757E-09
(PID.TID 0000.0001) %MON dynstat_wvel_del2            =   2.4356301004439E-11
(PID.TID 0000.0001) %MON dynstat_theta_max            =  -1.9000000000000E+00
(PID.TID 0000.0001) %MON dynstat_theta_min            =  -1.9020098497381E+00
(PID.TID 0000.0001) %MON dynstat_theta_mean           =  -1.9000170536332E+00
(PID.TID 0000.0001) %MON dynstat_theta_sd             =   1.3170062018200E-04
(PID.TID 0000.0001) %MON dynstat_theta_del2           =   1.5521606147701E-07
(PID.TID 0000.0001) %MON dynstat_salt_max             =   3.4400000000000E+01
(PID.TID 0000.0001) %MON dynstat_salt_min             =   3.4399179811123E+01
(PID.TID 0000.0001) %MON dynstat_salt_mean            =   3.4399993074510E+01
(PID.TID 0000.0001) %MON dynstat_salt_sd              =   5.3608197272766E-05
(PID.TID 0000.0001) %MON dynstat_salt_del2            =   6.3113107469453E-08
(PID.TID 0000.0001) %MON trAdv_CFL_u_max              =   4.1206473181989E-07
(PID.TID 0000.0001) %MON trAdv_CFL_v_max              =   8.9294720456620E-07
(PID.TID 0000.0001) %MON trAdv_CFL_w_max              =   1.0661623969325E-06
(PID.TID 0000.0001) %MON advcfl_uvel_max              =   1.4081119829049E-06
(PID.TID 0000.0001) %MON advcfl_vvel_max              =   2.2008755163128E-06
(PID.TID 0000.0001) %MON advcfl_wvel_max              =   2.3587687837848E-06
(PID.TID 0000.0001) %MON advcfl_W_hf_max              =   2.9053346134793E-06
(PID.TID 0000.0001) %MON pe_b_mean                    =  -3.0457768371942E-09
(PID.TID 0000.0001) %MON ke_max                       =   6.0183000486470E-11
(PID.TID 0000.0001) %MON ke_mean                      =   3.5185373251320E-13
(PID.TID 0000.0001) %MON ke_vol                       =   3.4703745874272E+14
(PID.TID 0000.0001) %MON vort_r_min                   =  -2.3015511729171E-09
(PID.TID 0000.0001) %MON vort_r_max                   =   2.2674579093743E-09
(PID.TID 0000.0001) %MON vort_a_mean                  =  -1.3992981969460E-04
(PID.TID 0000.0001) %MON vort_a_sd                    =   1.7365065525634E-06
(PID.TID 0000.0001) %MON vort_p_mean                  =  -1.4746660593089E-04
(PID.TID 0000.0001) %MON vort_p_sd                    =   7.7973588419925E-05
(PID.TID 0000.0001) %MON surfExpan_theta_mean         =  -1.7826818281090E-13
(PID.TID 0000.0001) %MON surfExpan_salt_mean          =  -7.2420118982132E-14
(PID.TID 0000.0001) // =======================================================
(PID.TID 0000.0001) // End MONITOR dynamic field statistics
(PID.TID 0000.0001) // =======================================================
 cg2d: Sum(rhs),rhsMax =   3.99680288865056E-14  2.44659483622722E-05
(PID.TID 0000.0001)      cg2d_init_res =   2.43586133118817E+00
(PID.TID 0000.0001)      cg2d_iters(min,last) =      -1     212
(PID.TID 0000.0001)      cg2d_last_res =   9.87615467928152E-14
(PID.TID 0000.0001) // =======================================================
(PID.TID 0000.0001) // Begin MONITOR dynamic field statistics
(PID.TID 0000.0001) // =======================================================
(PID.TID 0000.0001) %MON time_tsnumber                =                     4
(PID.TID 0000.0001) %MON time_secondsf                =   7.2000000000000E+03
(PID.TID 0000.0001) %MON dynstat_eta_max              =   4.0163861560043E-06
(PID.TID 0000.0001) %MON dynstat_eta_min              =  -4.1255306088116E-06
(PID.TID 0000.0001) %MON dynstat_eta_mean             =  -9.9819687043176E-23
(PID.TID 0000.0001) %MON dynstat_eta_sd               =   2.0893421001051E-06
(PID.TID 0000.0001) %MON dynstat_eta_del2             =   9.7260485652065E-09
(PID.TID 0000.0001) %MON dynstat_uvel_max             =   1.4962934848518E-06
(PID.TID 0000.0001) %MON dynstat_uvel_min             =  -1.0516801067498E-05
(PID.TID 0000.0001) %MON dynstat_uvel_mean            =   1.2785411091951E-08
(PID.TID 0000.0001) %MON dynstat_uvel_sd              =   6.8102564809438E-07
(PID.TID 0000.0001) %MON dynstat_uvel_del2            =   1.6176194229455E-09
(PID.TID 0000.0001) %MON dynstat_vvel_max             =   2.3707282187247E-05
(PID.TID 0000.0001) %MON dynstat_vvel_min             =  -3.3080138211396E-06
(PID.TID 0000.0001) %MON dynstat_vvel_mean            =  -1.8969964074714E-07
(PID.TID 0000.0001) %MON dynstat_vvel_sd              =   1.3585296285174E-06
(PID.TID 0000.0001) %MON dynstat_vvel_del2            =   3.6281508330725E-09
(PID.TID 0000.0001) %MON dynstat_wvel_max             =   6.7068907031390E-08
(PID.TID 0000.0001) %MON dynstat_wvel_min             =  -6.8108595715325E-08
(PID.TID 0000.0001) %MON dynstat_wvel_mean            =  -1.2500527384661E-10
(PID.TID 0000.0001) %MON dynstat_wvel_sd              =   4.4305680504432E-09
(PID.TID 0000.0001) %MON dynstat_wvel_del2            =   4.1943077027603E-11
(PID.TID 0000.0001) %MON dynstat_theta_max            =  -1.9000000000000E+00
(PID.TID 0000.0001) %MON dynstat_theta_min            =  -1.9026777693380E+00
(PID.TID 0000.0001) %MON dynstat_theta_mean           =  -1.9000227239066E+00
(PID.TID 0000.0001) %MON dynstat_theta_sd             =   1.7545187742353E-04
(PID.TID 0000.0001) %MON dynstat_theta_del2           =   2.0648736725806E-07
(PID.TID 0000.0001) %MON dynstat_salt_max             =   3.4400000000000E+01
(PID.TID 0000.0001) %MON dynstat_salt_min             =   3.4398907247394E+01
(PID.TID 0000.0001) %MON dynstat_salt_mean            =   3.4399990771865E+01
(PID.TID 0000.0001) %MON dynstat_salt_sd              =   7.1416588302917E-05
(PID.TID 0000.0001) %MON dynstat_salt_del2            =   8.3960220052715E-08
(PID.TID 0000.0001) %MON trAdv_CFL_u_max              =   1.4081121616281E-06
(PID.TID 0000.0001) %MON trAdv_CFL_v_max              =   2.2116030573807E-06
(PID.TID 0000.0001) %MON trAdv_CFL_w_max              =   2.3587687837848E-06
(PID.TID 0000.0001) %MON advcfl_uvel_max              =   3.1292115657526E-06
(PID.TID 0000.0001) %MON advcfl_vvel_max              =   3.8382872582400E-06
(PID.TID 0000.0001) %MON advcfl_wvel_max              =   4.0865157429195E-06
(PID.TID 0000.0001) %MON advcfl_W_hf_max              =   5.6262518332871E-06
(PID.TID 0000.0001) %MON pe_b_mean                    =  -5.8474807652253E-09
(PID.TID 0000.0001) %MON ke_max                       =   2.0468651903262E-10
(PID.TID 0000.0001) %MON ke_mean                      =   1.1557597690051E-12
(PID.TID 0000.0001) %MON ke_vol                       =   3.4703745874272E+14
(PID.TID 0000.0001) %MON vort_r_min                   =  -4.0138637899863E-09
(PID.TID 0000.0001) %MON vort_r_max                   =   3.9518345071161E-09
(PID.TID 0000.0001) %MON vort_a_mean                  =  -1.3992981968938E-04
(PID.TID 0000.0001) %MON vort_a_sd                    =   1.7365065508152E-06
(PID.TID 0000.0001) %MON vort_p_mean                  =  -1.4746660592539E-04
(PID.TID 0000.0001) %MON vort_p_sd                    =   7.7973533827905E-05
(PID.TID 0000.0001) %MON surfExpan_theta_mean         =  -3.6339694259783E-13
(PID.TID 0000.0001) %MON surfExpan_salt_mean          =  -1.4775258994430E-13
(PID.TID 0000.0001) // =======================================================
(PID.TID 0000.0001) // End MONITOR dynamic field statistics
(PID.TID 0000.0001) // =======================================================
 cg2d: Sum(rhs),rhsMax =  -4.32986979603811E-15  3.09326893681132E-05
(PID.TID 0000.0001)      cg2d_init_res =   1.91892677116397E+00
(PID.TID 0000.0001)      cg2d_iters(min,last) =      -1     212
(PID.TID 0000.0001)      cg2d_last_res =   7.08937588454176E-14
(PID.TID 0000.0001) // =======================================================
(PID.TID 0000.0001) // Begin MONITOR dynamic field statistics
(PID.TID 0000.0001) // =======================================================
(PID.TID 0000.0001) %MON time_tsnumber                =                     5
(PID.TID 0000.0001) %MON time_secondsf                =   9.0000000000000E+03
(PID.TID 0000.0001) %MON dynstat_eta_max              =   6.2251980104326E-06
(PID.TID 0000.0001) %MON dynstat_eta_min              =  -5.3174769896624E-06
(PID.TID 0000.0001) %MON dynstat_eta_mean             =  -7.3201103831662E-22
(PID.TID 0000.0001) %MON dynstat_eta_sd               =   3.2408405117972E-06
(PID.TID 0000.0001) %MON dynstat_eta_del2             =   1.2396286801846E-08
(PID.TID 0000.0001) %MON dynstat_uvel_max             =   2.7344141110600E-06
(PID.TID 0000.0001) %MON dynstat_uvel_min             =  -1.9039587966840E-05
(PID.TID 0000.0001) %MON dynstat_uvel_mean            =   1.3209359584063E-08
(PID.TID 0000.0001) %MON dynstat_uvel_sd              =   1.2265723731841E-06
(PID.TID 0000.0001) %MON dynstat_uvel_del2            =   2.7956576289394E-09
(PID.TID 0000.0001) %MON dynstat_vvel_max             =   3.5066957140391E-05
(PID.TID 0000.0001) %MON dynstat_vvel_min             =  -4.9969711544003E-06
(PID.TID 0000.0001) %MON dynstat_vvel_mean            =  -2.5269496274939E-07
(PID.TID 0000.0001) %MON dynstat_vvel_sd              =   2.0156705516238E-06
(PID.TID 0000.0001) %MON dynstat_vvel_del2            =   5.3311764392056E-09
(PID.TID 0000.0001) %MON dynstat_wvel_max             =   1.1490924618137E-07
(PID.TID 0000.0001) %MON dynstat_wvel_min             =  -1.1494591967612E-07
(PID.TID 0000.0001) %MON dynstat_wvel_mean            =  -1.6210860974825E-10
(PID.TID 0000.0001) %MON dynstat_wvel_sd              =   6.6571538845717E-09
(PID.TID 0000.0001) %MON dynstat_wvel_del2            =   6.1530263087747E-11
(PID.TID 0000.0001) %MON dynstat_theta_max            =  -1.9000000000000E+00
(PID.TID 0000.0001) %MON dynstat_theta_min            =  -1.9033447692097E+00
(PID.TID 0000.0001) %MON dynstat_theta_mean           =  -1.9000283877151E+00
(PID.TID 0000.0001) %MON dynstat_theta_sd             =   2.1913571220849E-04
(PID.TID 0000.0001) %MON dynstat_theta_del2           =   2.5754847387753E-07
(PID.TID 0000.0001) %MON dynstat_salt_max             =   3.4400000000000E+01
(PID.TID 0000.0001) %MON dynstat_salt_min             =   3.4398635060808E+01
(PID.TID 0000.0001) %MON dynstat_salt_mean            =   3.4399988471870E+01
(PID.TID 0000.0001) %MON dynstat_salt_sd              =   8.9197364139003E-05
(PID.TID 0000.0001) %MON dynstat_salt_del2            =   1.0472160520324E-07
(PID.TID 0000.0001) %MON trAdv_CFL_u_max              =   3.1292119629246E-06
(PID.TID 0000.0001) %MON trAdv_CFL_v_max              =   3.8569958966378E-06
(PID.TID 0000.0001) %MON trAdv_CFL_w_max              =   4.0865157429195E-06
(PID.TID 0000.0001) %MON advcfl_uvel_max              =   5.6651160833618E-06
(PID.TID 0000.0001) %MON advcfl_vvel_max              =   5.6774561383344E-06
(PID.TID 0000.0001) %MON advcfl_wvel_max              =   6.8967551805673E-06
(PID.TID 0000.0001) %MON advcfl_W_hf_max              =   9.3224518359269E-06
(PID.TID 0000.0001) %MON pe_b_mean                    =  -9.3441314128930E-09
(PID.TID 0000.0001) %MON ke_max                       =   5.0892126945627E-10
(PID.TID 0000.0001) %MON ke_mean                      =   2.7734317693859E-12
(PID.TID 0000.0001) %MON ke_vol                       =   3.4703745874272E+14
(PID.TID 0000.0001) %MON vort_r_min                   =  -5.9371626143857E-09
(PID.TID 0000.0001) %MON vort_r_max                   =   5.8401639176372E-09
(PID.TID 0000.0001) %MON vort_a_mean                  =  -1.3992981967871E-04
(PID.TID 0000.0001) %MON vort_a_sd                    =   1.7365065477570E-06
(PID.TID 0000.0001) %MON vort_p_mean                  =  -1.4746660591414E-04
(PID.TID 0000.0001) %MON vort_p_sd                    =   7.7973452732064E-05
(PID.TID 0000.0001) %MON surfExpan_theta_mean         =  -5.9051844995064E-13
(PID.TID 0000.0001) %MON surfExpan_salt_mean          =  -2.4019272974159E-13
(PID.TID 0000.0001) // =======================================================
(PID.TID 0000.0001) // End MONITOR dynamic field statistics
(PID.TID 0000.0001) // =======================================================
 cg2d: Sum(rhs),rhsMax =  -7.32747196252603E-15  3.72930012111565E-05
(PID.TID 0000.0001)      cg2d_init_res =   1.58340840460788E+00
(PID.TID 0000.0001)      cg2d_iters(min,last) =      -1     211
(PID.TID 0000.0001)      cg2d_last_res =   8.73058333111508E-14
(PID.TID 0000.0001) // =======================================================
(PID.TID 0000.0001) // Begin MONITOR dynamic field statistics
(PID.TID 0000.0001) // =======================================================
(PID.TID 0000.0001) %MON time_tsnumber                =                     6
(PID.TID 0000.0001) %MON time_secondsf                =   1.0800000000000E+04
(PID.TID 0000.0001) %MON dynstat_eta_max              =   8.5627754232366E-06
(PID.TID 0000.0001) %MON dynstat_eta_min              =  -6.3626401996248E-06
(PID.TID 0000.0001) %MON dynstat_eta_mean             =   1.3974756186045E-21
(PID.TID 0000.0001) %MON dynstat_eta_sd               =   4.5637319721420E-06
(PID.TID 0000.0001) %MON dynstat_eta_del2             =   1.5053294582883E-08
(PID.TID 0000.0001) %MON dynstat_uvel_max             =   4.3939132548114E-06
(PID.TID 0000.0001) %MON dynstat_uvel_min             =  -3.0397557908798E-05
(PID.TID 0000.0001) %MON dynstat_uvel_mean            =   1.0048287197991E-08
(PID.TID 0000.0001) %MON dynstat_uvel_sd              =   1.9565164840759E-06
(PID.TID 0000.0001) %MON dynstat_uvel_del2            =   4.3504508987129E-09
(PID.TID 0000.0001) %MON dynstat_vvel_max             =   4.6889456743297E-05
(PID.TID 0000.0001) %MON dynstat_vvel_min             =  -6.7874133805324E-06
(PID.TID 0000.0001) %MON dynstat_vvel_mean            =  -2.9815884278811E-07
(PID.TID 0000.0001) %MON dynstat_vvel_sd              =   2.7010635310076E-06
(PID.TID 0000.0001) %MON dynstat_vvel_del2            =   7.0853878845090E-09
(PID.TID 0000.0001) %MON dynstat_wvel_max             =   1.7546192860480E-07
(PID.TID 0000.0001) %MON dynstat_wvel_min             =  -1.7369356840279E-07
(PID.TID 0000.0001) %MON dynstat_wvel_mean            =  -1.8883912637722E-10
(PID.TID 0000.0001) %MON dynstat_wvel_sd              =   9.1128814949214E-09
(PID.TID 0000.0001) %MON dynstat_wvel_del2            =   8.1805206829069E-11
(PID.TID 0000.0001) %MON dynstat_theta_max            =  -1.9000000000000E+00
(PID.TID 0000.0001) %MON dynstat_theta_min            =  -1.9040108511115E+00
(PID.TID 0000.0001) %MON dynstat_theta_mean           =  -1.9000340450699E+00
(PID.TID 0000.0001) %MON dynstat_theta_sd             =   2.6275226785043E-04
(PID.TID 0000.0001) %MON dynstat_theta_del2           =   3.0840040274538E-07
(PID.TID 0000.0001) %MON dynstat_salt_max             =   3.4400000000000E+01
(PID.TID 0000.0001) %MON dynstat_salt_min             =   3.4398363250641E+01
(PID.TID 0000.0001) %MON dynstat_salt_mean            =   3.4399986174522E+01
(PID.TID 0000.0001) %MON dynstat_salt_sd              =   1.0695058363208E-04
(PID.TID 0000.0001) %MON dynstat_salt_del2            =   1.2539767981948E-07
(PID.TID 0000.0001) %MON trAdv_CFL_u_max              =   5.6651168024008E-06
(PID.TID 0000.0001) %MON trAdv_CFL_v_max              =   5.7051292817874E-06
(PID.TID 0000.0001) %MON trAdv_CFL_w_max              =   6.8967551805673E-06
(PID.TID 0000.0001) %MON advcfl_uvel_max              =   9.0446124414019E-06
(PID.TID 0000.0001) %MON advcfl_vvel_max              =   7.5915578572903E-06
(PID.TID 0000.0001) %MON advcfl_wvel_max              =   1.0527715716288E-05
(PID.TID 0000.0001) %MON advcfl_W_hf_max              =   1.3832130612743E-05
(PID.TID 0000.0001) %MON pe_b_mean                    =  -1.3341284897526E-08
(PID.TID 0000.0001) %MON ke_max                       =   1.0486971867548E-09
(PID.TID 0000.0001) %MON ke_mean                      =   5.5190934712713E-12
(PID.TID 0000.0001) %MON ke_vol                       =   3.4703745874272E+14
(PID.TID 0000.0001) %MON vort_r_min                   =  -7.9388219648093E-09
(PID.TID 0000.0001) %MON vort_r_max                   =   7.7996570455718E-09
(PID.TID 0000.0001) %MON vort_a_mean                  =  -1.3992981966285E-04
(PID.TID 0000.0001) %MON vort_a_sd                    =   1.7365065411596E-06
(PID.TID 0000.0001) %MON vort_p_mean                  =  -1.4746660589743E-04
(PID.TID 0000.0001) %MON vort_p_sd                    =   7.7973344115151E-05
(PID.TID 0000.0001) %MON surfExpan_theta_mean         =  -8.2614997737362E-13
(PID.TID 0000.0001) %MON surfExpan_salt_mean          =  -3.3609624507963E-13
(PID.TID 0000.0001) // =======================================================
(PID.TID 0000.0001) // End MONITOR dynamic field statistics
(PID.TID 0000.0001) // =======================================================
 cg2d: Sum(rhs),rhsMax =   3.33066907387547E-15  4.35303662937675E-05
(PID.TID 0000.0001)      cg2d_init_res =   1.34936955353818E+00
(PID.TID 0000.0001)      cg2d_iters(min,last) =      -1     209
(PID.TID 0000.0001)      cg2d_last_res =   9.49774511806492E-14
(PID.TID 0000.0001) // =======================================================
(PID.TID 0000.0001) // Begin MONITOR dynamic field statistics
(PID.TID 0000.0001) // =======================================================
(PID.TID 0000.0001) %MON time_tsnumber                =                     7
(PID.TID 0000.0001) %MON time_secondsf                =   1.2600000000000E+04
(PID.TID 0000.0001) %MON dynstat_eta_max              =   1.0970969680425E-05
(PID.TID 0000.0001) %MON dynstat_eta_min              =  -7.2827239329317E-06
(PID.TID 0000.0001) %MON dynstat_eta_mean             =   0.0000000000000E+00
(PID.TID 0000.0001) %MON dynstat_eta_sd               =   5.9843808176008E-06
(PID.TID 0000.0001) %MON dynstat_eta_del2             =   1.7696364623563E-08
(PID.TID 0000.0001) %MON dynstat_uvel_max             =   6.4982826964082E-06
(PID.TID 0000.0001) %MON dynstat_uvel_min             =  -4.4484245371282E-05
(PID.TID 0000.0001) %MON dynstat_uvel_mean            =   4.5062614833700E-09
(PID.TID 0000.0001) %MON dynstat_uvel_sd              =   2.8655417795418E-06
(PID.TID 0000.0001) %MON dynstat_uvel_del2            =   6.2676664225268E-09
(PID.TID 0000.0001) %MON dynstat_vvel_max             =   5.8413358689967E-05
(PID.TID 0000.0001) %MON dynstat_vvel_min             =  -8.5635087222699E-06
(PID.TID 0000.0001) %MON dynstat_vvel_mean            =  -3.2172914638507E-07
(PID.TID 0000.0001) %MON dynstat_vvel_sd              =   3.3688011974665E-06
(PID.TID 0000.0001) %MON dynstat_vvel_del2            =   8.7779168704954E-09
(PID.TID 0000.0001) %MON dynstat_wvel_max             =   2.4753713206291E-07
(PID.TID 0000.0001) %MON dynstat_wvel_min             =  -2.4311040011810E-07
(PID.TID 0000.0001) %MON dynstat_wvel_mean            =  -2.0258854295227E-10
(PID.TID 0000.0001) %MON dynstat_wvel_sd              =   1.1709992130677E-08
(PID.TID 0000.0001) %MON dynstat_wvel_del2            =   1.0154199431060E-10
(PID.TID 0000.0001) %MON dynstat_theta_max            =  -1.9000000000000E+00
(PID.TID 0000.0001) %MON dynstat_theta_min            =  -1.9046760169733E+00
(PID.TID 0000.0001) %MON dynstat_theta_mean           =  -1.9000396959823E+00
(PID.TID 0000.0001) %MON dynstat_theta_sd             =   3.0630168780623E-04
(PID.TID 0000.0001) %MON dynstat_theta_del2           =   3.5904189436990E-07
(PID.TID 0000.0001) %MON dynstat_salt_max             =   3.4400000000000E+01
(PID.TID 0000.0001) %MON dynstat_salt_min             =   3.4398091816097E+01
(PID.TID 0000.0001) %MON dynstat_salt_mean            =   3.4399983879815E+01
(PID.TID 0000.0001) %MON dynstat_salt_sd              =   1.2467630569392E-04
(PID.TID 0000.0001) %MON dynstat_salt_del2            =   1.4598802143047E-07
(PID.TID 0000.0001) %MON trAdv_CFL_u_max              =   9.0446135893801E-06
(PID.TID 0000.0001) %MON trAdv_CFL_v_max              =   7.6285607445867E-06
(PID.TID 0000.0001) %MON trAdv_CFL_w_max              =   1.0527715716288E-05
(PID.TID 0000.0001) %MON advcfl_uvel_max              =   1.3236022457417E-05
(PID.TID 0000.0001) %MON advcfl_vvel_max              =   9.4573156298495E-06
(PID.TID 0000.0001) %MON advcfl_wvel_max              =   1.4852227923775E-05
(PID.TID 0000.0001) %MON advcfl_W_hf_max              =   1.9029655417527E-05
(PID.TID 0000.0001) %MON pe_b_mean                    =  -1.7605061325227E-08
(PID.TID 0000.0001) %MON ke_max                       =   1.8997699275695E-09
(PID.TID 0000.0001) %MON ke_mean                      =   9.6733091077619E-12
(PID.TID 0000.0001) %MON ke_vol                       =   3.4703745874272E+14
(PID.TID 0000.0001) %MON vort_r_min                   =  -9.8899259495575E-09
(PID.TID 0000.0001) %MON vort_r_max                   =   9.7017321616935E-09
(PID.TID 0000.0001) %MON vort_a_mean                  =  -1.3992981964416E-04
(PID.TID 0000.0001) %MON vort_a_sd                    =   1.7365065236786E-06
(PID.TID 0000.0001) %MON vort_p_mean                  =  -1.4746660587773E-04
(PID.TID 0000.0001) %MON vort_p_sd                    =   7.7973208884653E-05
(PID.TID 0000.0001) %MON surfExpan_theta_mean         =  -1.0337419924113E-12
(PID.TID 0000.0001) %MON surfExpan_salt_mean          =  -4.2057057378308E-13
(PID.TID 0000.0001) // =======================================================
(PID.TID 0000.0001) // End MONITOR dynamic field statistics
(PID.TID 0000.0001) // =======================================================
 cg2d: Sum(rhs),rhsMax =   5.55111512312578E-14  4.96380371902041E-05
(PID.TID 0000.0001)      cg2d_init_res =   1.17695603800716E+00
(PID.TID 0000.0001)      cg2d_iters(min,last) =      -1     208
(PID.TID 0000.0001)      cg2d_last_res =   8.37450475325269E-14
(PID.TID 0000.0001) // =======================================================
(PID.TID 0000.0001) // Begin MONITOR dynamic field statistics
(PID.TID 0000.0001) // =======================================================
(PID.TID 0000.0001) %MON time_tsnumber                =                     8
(PID.TID 0000.0001) %MON time_secondsf                =   1.4400000000000E+04
(PID.TID 0000.0001) %MON dynstat_eta_max              =   1.3369922380198E-05
(PID.TID 0000.0001) %MON dynstat_eta_min              =  -8.0786525454881E-06
(PID.TID 0000.0001) %MON dynstat_eta_mean             =   6.6546458028784E-22
(PID.TID 0000.0001) %MON dynstat_eta_sd               =   7.4175538605513E-06
(PID.TID 0000.0001) %MON dynstat_eta_del2             =   2.0324681531301E-08
(PID.TID 0000.0001) %MON dynstat_uvel_max             =   8.9867724600490E-06
(PID.TID 0000.0001) %MON dynstat_uvel_min             =  -6.1012780712424E-05
(PID.TID 0000.0001) %MON dynstat_uvel_mean            =  -1.7198431649714E-09
(PID.TID 0000.0001) %MON dynstat_uvel_sd              =   3.9367429325104E-06
(PID.TID 0000.0001) %MON dynstat_uvel_del2            =   8.5101445428587E-09
(PID.TID 0000.0001) %MON dynstat_vvel_max             =   6.8945901761743E-05
(PID.TID 0000.0001) %MON dynstat_vvel_min             =  -1.0221732684627E-05
(PID.TID 0000.0001) %MON dynstat_vvel_mean            =  -3.2297944526178E-07
(PID.TID 0000.0001) %MON dynstat_vvel_sd              =   3.9764666533813E-06
(PID.TID 0000.0001) %MON dynstat_vvel_del2            =   1.0309566843297E-08
(PID.TID 0000.0001) %MON dynstat_wvel_max             =   3.2931692118632E-07
(PID.TID 0000.0001) %MON dynstat_wvel_min             =  -3.2134724904390E-07
(PID.TID 0000.0001) %MON dynstat_wvel_mean            =  -2.0279053161043E-10
(PID.TID 0000.0001) %MON dynstat_wvel_sd              =   1.4370512864687E-08
(PID.TID 0000.0001) %MON dynstat_wvel_del2            =   1.1968145635307E-10
(PID.TID 0000.0001) %MON dynstat_theta_max            =  -1.9000000000000E+00
(PID.TID 0000.0001) %MON dynstat_theta_min            =  -1.9053402689139E+00
(PID.TID 0000.0001) %MON dynstat_theta_mean           =  -1.9000453404636E+00
(PID.TID 0000.0001) %MON dynstat_theta_sd             =   3.4978411524702E-04
(PID.TID 0000.0001) %MON dynstat_theta_del2           =   4.0947747433408E-07
(PID.TID 0000.0001) %MON dynstat_salt_max             =   3.4400000000000E+01
(PID.TID 0000.0001) %MON dynstat_salt_min             =   3.4397820756306E+01
(PID.TID 0000.0001) %MON dynstat_salt_mean            =   3.4399981587744E+01
(PID.TID 0000.0001) %MON dynstat_salt_sd              =   1.4237458912824E-04
(PID.TID 0000.0001) %MON dynstat_salt_del2            =   1.6649424102818E-07
(PID.TID 0000.0001) %MON trAdv_CFL_u_max              =   1.3236024137385E-05
(PID.TID 0000.0001) %MON trAdv_CFL_v_max              =   9.5034126221870E-06
(PID.TID 0000.0001) %MON trAdv_CFL_w_max              =   1.4852227923775E-05
(PID.TID 0000.0001) %MON advcfl_uvel_max              =   1.8153989776804E-05
(PID.TID 0000.0001) %MON advcfl_vvel_max              =   1.1162569127486E-05
(PID.TID 0000.0001) %MON advcfl_wvel_max              =   1.9759015271179E-05
(PID.TID 0000.0001) %MON advcfl_W_hf_max              =   2.4757902272421E-05
(PID.TID 0000.0001) %MON pe_b_mean                    =  -2.1887301330644E-08
(PID.TID 0000.0001) %MON ke_max                       =   3.1267418249174E-09
(PID.TID 0000.0001) %MON ke_mean                      =   1.5445255568869E-11
(PID.TID 0000.0001) %MON ke_vol                       =   3.4703745874272E+14
(PID.TID 0000.0001) %MON vort_r_min                   =  -1.1673183638835E-08
(PID.TID 0000.0001) %MON vort_r_max                   =   1.1430243354323E-08
(PID.TID 0000.0001) %MON vort_a_mean                  =  -1.3992981962591E-04
(PID.TID 0000.0001) %MON vort_a_sd                    =   1.7365064861119E-06
(PID.TID 0000.0001) %MON vort_p_mean                  =  -1.4746660585850E-04
(PID.TID 0000.0001) %MON vort_p_sd                    =   7.7973049669650E-05
(PID.TID 0000.0001) %MON surfExpan_theta_mean         =  -1.1814513511989E-12
(PID.TID 0000.0001) %MON surfExpan_salt_mean          =  -4.8064499600019E-13
(PID.TID 0000.0001) // =======================================================
(PID.TID 0000.0001) // End MONITOR dynamic field statistics
(PID.TID 0000.0001) // =======================================================
 cg2d: Sum(rhs),rhsMax =   4.44089209850063E-15  5.56180007327564E-05
(PID.TID 0000.0001)      cg2d_init_res =   1.04471689689890E+00
(PID.TID 0000.0001)      cg2d_iters(min,last) =      -1     208
(PID.TID 0000.0001)      cg2d_last_res =   8.18072344089649E-14
(PID.TID 0000.0001) // =======================================================
(PID.TID 0000.0001) // Begin MONITOR dynamic field statistics
(PID.TID 0000.0001) // =======================================================
(PID.TID 0000.0001) %MON time_tsnumber                =                     9
(PID.TID 0000.0001) %MON time_secondsf                =   1.6200000000000E+04
(PID.TID 0000.0001) %MON dynstat_eta_max              =   1.5999389763530E-05
(PID.TID 0000.0001) %MON dynstat_eta_min              =  -8.7220824129428E-06
(PID.TID 0000.0001) %MON dynstat_eta_mean             =   1.5971149926908E-21
(PID.TID 0000.0001) %MON dynstat_eta_sd               =   8.7832422800873E-06
(PID.TID 0000.0001) %MON dynstat_eta_del2             =   2.2937588902547E-08
(PID.TID 0000.0001) %MON dynstat_uvel_max             =   1.1798847306774E-05
(PID.TID 0000.0001) %MON dynstat_uvel_min             =  -7.9550925434409E-05
(PID.TID 0000.0001) %MON dynstat_uvel_mean            =  -7.1776607846503E-09
(PID.TID 0000.0001) %MON dynstat_uvel_sd              =   5.1433621389168E-06
(PID.TID 0000.0001) %MON dynstat_uvel_del2            =   1.1022219381439E-08
(PID.TID 0000.0001) %MON dynstat_vvel_max             =   7.7903628712916E-05
(PID.TID 0000.0001) %MON dynstat_vvel_min             =  -1.1675904644561E-05
(PID.TID 0000.0001) %MON dynstat_vvel_mean            =  -3.0454164149955E-07
(PID.TID 0000.0001) %MON dynstat_vvel_sd              =   4.4877244732222E-06
(PID.TID 0000.0001) %MON dynstat_vvel_del2            =   1.1599548541130E-08
(PID.TID 0000.0001) %MON dynstat_wvel_max             =   4.1849170741611E-07
(PID.TID 0000.0001) %MON dynstat_wvel_min             =  -4.0610604218698E-07
(PID.TID 0000.0001) %MON dynstat_wvel_mean            =  -1.9080022066433E-10
(PID.TID 0000.0001) %MON dynstat_wvel_sd              =   1.7028165983376E-08
(PID.TID 0000.0001) %MON dynstat_wvel_del2            =   1.3538674952502E-10
(PID.TID 0000.0001) %MON dynstat_theta_max            =  -1.9000000000000E+00
(PID.TID 0000.0001) %MON dynstat_theta_min            =  -1.9060036092377E+00
(PID.TID 0000.0001) %MON dynstat_theta_mean           =  -1.9000509785253E+00
(PID.TID 0000.0001) %MON dynstat_theta_sd             =   3.9319969330110E-04
(PID.TID 0000.0001) %MON dynstat_theta_del2           =   4.5970939720240E-07
(PID.TID 0000.0001) %MON dynstat_salt_max             =   3.4400000000000E+01
(PID.TID 0000.0001) %MON dynstat_salt_min             =   3.4397550070321E+01
(PID.TID 0000.0001) %MON dynstat_salt_mean            =   3.4399979298306E+01
(PID.TID 0000.0001) %MON dynstat_salt_sd              =   1.6004549270845E-04
(PID.TID 0000.0001) %MON dynstat_salt_del2            =   1.8691739781041E-07
(PID.TID 0000.0001) %MON trAdv_CFL_u_max              =   1.8153992080980E-05
(PID.TID 0000.0001) %MON trAdv_CFL_v_max              =   1.1216977892476E-05
(PID.TID 0000.0001) %MON trAdv_CFL_w_max              =   1.9759015271179E-05
(PID.TID 0000.0001) %MON advcfl_uvel_max              =   2.3669904407053E-05
(PID.TID 0000.0001) %MON advcfl_vvel_max              =   1.2612854695773E-05
(PID.TID 0000.0001) %MON advcfl_wvel_max              =   2.5109502444967E-05
(PID.TID 0000.0001) %MON advcfl_W_hf_max              =   3.0837695586444E-05
(PID.TID 0000.0001) %MON pe_b_mean                    =  -2.5958425987170E-08
(PID.TID 0000.0001) %MON ke_max                       =   4.7723178734124E-09
(PID.TID 0000.0001) %MON ke_mean                      =   2.2941336460023E-11
(PID.TID 0000.0001) %MON ke_vol                       =   3.4703745874272E+14
(PID.TID 0000.0001) %MON vort_r_min                   =  -1.3189810284011E-08
(PID.TID 0000.0001) %MON vort_r_max                   =   1.2888302884044E-08
(PID.TID 0000.0001) %MON vort_a_mean                  =  -1.3992981961098E-04
(PID.TID 0000.0001) %MON vort_a_sd                    =   1.7365064211229E-06
(PID.TID 0000.0001) %MON vort_p_mean                  =  -1.4746660584277E-04
(PID.TID 0000.0001) %MON vort_p_sd                    =   7.7972870519778E-05
(PID.TID 0000.0001) %MON surfExpan_theta_mean         =  -1.2487019491413E-12
(PID.TID 0000.0001) %MON surfExpan_salt_mean          =  -5.0794244898978E-13
(PID.TID 0000.0001) // =======================================================
(PID.TID 0000.0001) // End MONITOR dynamic field statistics
(PID.TID 0000.0001) // =======================================================
 cg2d: Sum(rhs),rhsMax =  -4.70734562441066E-14  6.14806585469828E-05
(PID.TID 0000.0001)      cg2d_init_res =   9.39958059503496E-01
(PID.TID 0000.0001)      cg2d_iters(min,last) =      -1     208
(PID.TID 0000.0001)      cg2d_last_res =   8.99564582312600E-14
(PID.TID 0000.0001) // =======================================================
(PID.TID 0000.0001) // Begin MONITOR dynamic field statistics
(PID.TID 0000.0001) // =======================================================
(PID.TID 0000.0001) %MON time_tsnumber                =                    10
(PID.TID 0000.0001) %MON time_secondsf                =   1.8000000000000E+04
(PID.TID 0000.0001) %MON dynstat_eta_max              =   1.8537217233271E-05
(PID.TID 0000.0001) %MON dynstat_eta_min              =  -9.3306113346431E-06
(PID.TID 0000.0001) %MON dynstat_eta_mean             =   2.3956724890362E-21
(PID.TID 0000.0001) %MON dynstat_eta_sd               =   1.0019015294932E-05
(PID.TID 0000.0001) %MON dynstat_eta_del2             =   2.5534537884042E-08
(PID.TID 0000.0001) %MON dynstat_uvel_max             =   1.4855528040780E-05
(PID.TID 0000.0001) %MON dynstat_uvel_min             =  -9.9561189319026E-05
(PID.TID 0000.0001) %MON dynstat_uvel_mean            =  -1.1000313312261E-08
(PID.TID 0000.0001) %MON dynstat_uvel_sd              =   6.4510483529752E-06
(PID.TID 0000.0001) %MON dynstat_uvel_del2            =   1.3734774889894E-08
(PID.TID 0000.0001) %MON dynstat_vvel_max             =   8.4843967210790E-05
(PID.TID 0000.0001) %MON dynstat_vvel_min             =  -1.2859879337601E-05
(PID.TID 0000.0001) %MON dynstat_vvel_mean            =  -2.7117366510633E-07
(PID.TID 0000.0001) %MON dynstat_vvel_sd              =   4.8743641960052E-06
(PID.TID 0000.0001) %MON dynstat_vvel_del2            =   1.2588902193797E-08
(PID.TID 0000.0001) %MON dynstat_wvel_max             =   5.1243013139584E-07
(PID.TID 0000.0001) %MON dynstat_wvel_min             =  -4.9481480821113E-07
(PID.TID 0000.0001) %MON dynstat_wvel_mean            =  -1.6948585806106E-10
(PID.TID 0000.0001) %MON dynstat_wvel_sd              =   1.9629155408478E-08
(PID.TID 0000.0001) %MON dynstat_wvel_del2            =   1.4808305408948E-10
(PID.TID 0000.0001) %MON dynstat_theta_max            =  -1.9000000000000E+00
(PID.TID 0000.0001) %MON dynstat_theta_min            =  -1.9066660404103E+00
(PID.TID 0000.0001) %MON dynstat_theta_mean           =  -1.9000566101788E+00
(PID.TID 0000.0001) %MON dynstat_theta_sd             =   4.3654856492794E-04
(PID.TID 0000.0001) %MON dynstat_theta_del2           =   5.0973819106128E-07
(PID.TID 0000.0001) %MON dynstat_salt_max             =   3.4400000000000E+01
(PID.TID 0000.0001) %MON dynstat_salt_min             =   3.4397279757128E+01
(PID.TID 0000.0001) %MON dynstat_salt_mean            =   3.4399977011495E+01
(PID.TID 0000.0001) %MON dynstat_salt_sd              =   1.7768907513816E-04
(PID.TID 0000.0001) %MON dynstat_salt_del2            =   2.0725769431283E-07
(PID.TID 0000.0001) %MON trAdv_CFL_u_max              =   2.3669907411331E-05
(PID.TID 0000.0001) %MON trAdv_CFL_v_max              =   1.2674332464838E-05
(PID.TID 0000.0001) %MON trAdv_CFL_w_max              =   2.5109502444967E-05
(PID.TID 0000.0001) %MON advcfl_uvel_max              =   2.9623839332666E-05
(PID.TID 0000.0001) %MON advcfl_vvel_max              =   1.3736518412848E-05
(PID.TID 0000.0001) %MON advcfl_wvel_max              =   3.0745807883751E-05
(PID.TID 0000.0001) %MON advcfl_W_hf_max              =   3.7079457684193E-05
(PID.TID 0000.0001) %MON pe_b_mean                    =  -2.9637956292148E-08
(PID.TID 0000.0001) %MON ke_max                       =   6.8491267912923E-09
(PID.TID 0000.0001) %MON ke_mean                      =   3.2144357853072E-11
(PID.TID 0000.0001) %MON ke_vol                       =   3.4703745874272E+14
(PID.TID 0000.0001) %MON vort_r_min                   =  -1.4364874265063E-08
(PID.TID 0000.0001) %MON vort_r_max                   =   1.4003382558273E-08
(PID.TID 0000.0001) %MON vort_a_mean                  =  -1.3992981960122E-04
(PID.TID 0000.0001) %MON vort_a_sd                    =   1.7365063259591E-06
(PID.TID 0000.0001) %MON vort_p_mean                  =  -1.4746660583248E-04
(PID.TID 0000.0001) %MON vort_p_sd                    =   7.7972676548195E-05
(PID.TID 0000.0001) %MON surfExpan_theta_mean         =  -1.2300450861380E-12
(PID.TID 0000.0001) %MON surfExpan_salt_mean          =  -5.0024935881459E-13
(PID.TID 0000.0001) // =======================================================
(PID.TID 0000.0001) // End MONITOR dynamic field statistics
(PID.TID 0000.0001) // =======================================================
 Computing Diagnostic #    198  SHIfwFlx     Counter:      10   Parms: SM      L1      
 Computing Diagnostic #    199  SHIhtFlx     Counter:      10   Parms: SM      L1      
 Computing Diagnostic #    208  ICFfwFlx     Counter:      10   Parms: SM      MR      
 Computing Diagnostic #    209  ICFhtFlx     Counter:      10   Parms: SM      MR      
 cg2d: Sum(rhs),rhsMax =  -8.88178419700125E-15  6.72424775254030E-05
(PID.TID 0000.0001)      cg2d_init_res =   8.54689044905508E-01
(PID.TID 0000.0001)      cg2d_iters(min,last) =      -1     208
(PID.TID 0000.0001)      cg2d_last_res =   8.79775796281482E-14
(PID.TID 0000.0001) // =======================================================
(PID.TID 0000.0001) // Begin MONITOR dynamic field statistics
(PID.TID 0000.0001) // =======================================================
(PID.TID 0000.0001) %MON time_tsnumber                =                    11
(PID.TID 0000.0001) %MON time_secondsf                =   1.9800000000000E+04
(PID.TID 0000.0001) %MON dynstat_eta_max              =   2.0801921350708E-05
(PID.TID 0000.0001) %MON dynstat_eta_min              =  -1.0079562245083E-05
(PID.TID 0000.0001) %MON dynstat_eta_mean             =   1.0647433284605E-21
(PID.TID 0000.0001) %MON dynstat_eta_sd               =   1.1086928839610E-05
(PID.TID 0000.0001) %MON dynstat_eta_del2             =   2.8115062183087E-08
(PID.TID 0000.0001) %MON dynstat_uvel_max             =   1.8065303208565E-05
(PID.TID 0000.0001) %MON dynstat_uvel_min             =  -1.2044253249259E-04
(PID.TID 0000.0001) %MON dynstat_uvel_mean            =  -1.2882001488648E-08
(PID.TID 0000.0001) %MON dynstat_uvel_sd              =   7.8204804101353E-06
(PID.TID 0000.0001) %MON dynstat_uvel_del2            =   1.6570769848541E-08
(PID.TID 0000.0001) %MON dynstat_vvel_max             =   8.9485460210413E-05
(PID.TID 0000.0001) %MON dynstat_vvel_min             =  -1.3729236462364E-05
(PID.TID 0000.0001) %MON dynstat_vvel_mean            =  -2.2883553629439E-07
(PID.TID 0000.0001) %MON dynstat_vvel_sd              =   5.1177305871003E-06
(PID.TID 0000.0001) %MON dynstat_vvel_del2            =   1.3242619494639E-08
(PID.TID 0000.0001) %MON dynstat_wvel_max             =   6.0837112554636E-07
(PID.TID 0000.0001) %MON dynstat_wvel_min             =  -5.8481123134096E-07
(PID.TID 0000.0001) %MON dynstat_wvel_mean            =  -1.4261949074465E-10
(PID.TID 0000.0001) %MON dynstat_wvel_sd              =   2.2131883074116E-08
(PID.TID 0000.0001) %MON dynstat_wvel_del2            =   1.5747874855609E-10
(PID.TID 0000.0001) %MON dynstat_theta_max            =  -1.9000000000000E+00
(PID.TID 0000.0001) %MON dynstat_theta_min            =  -1.9073275650172E+00
(PID.TID 0000.0001) %MON dynstat_theta_mean           =  -1.9000622354353E+00
(PID.TID 0000.0001) %MON dynstat_theta_sd             =   4.7983087261459E-04
(PID.TID 0000.0001) %MON dynstat_theta_del2           =   5.5956470782846E-07
(PID.TID 0000.0001) %MON dynstat_salt_max             =   3.4400000000000E+01
(PID.TID 0000.0001) %MON dynstat_salt_min             =   3.4397009815665E+01
(PID.TID 0000.0001) %MON dynstat_salt_mean            =   3.4399974727307E+01
(PID.TID 0000.0001) %MON dynstat_salt_sd              =   1.9530539492837E-04
(PID.TID 0000.0001) %MON dynstat_salt_del2            =   2.2751547431009E-07
(PID.TID 0000.0001) %MON trAdv_CFL_u_max              =   2.9623843092641E-05
(PID.TID 0000.0001) %MON trAdv_CFL_v_max              =   1.3803473160771E-05
(PID.TID 0000.0001) %MON trAdv_CFL_w_max              =   3.0745807883751E-05
(PID.TID 0000.0001) %MON advcfl_uvel_max              =   3.5836958716381E-05
(PID.TID 0000.0001) %MON advcfl_vvel_max              =   1.4487991453872E-05
(PID.TID 0000.0001) %MON advcfl_wvel_max              =   3.6502267532781E-05
(PID.TID 0000.0001) %MON advcfl_W_hf_max              =   4.3296394269291E-05
(PID.TID 0000.0001) %MON pe_b_mean                    =  -3.2814529631622E-08
(PID.TID 0000.0001) %MON ke_max                       =   9.3351394588290E-09
(PID.TID 0000.0001) %MON ke_mean                      =   4.2906451043781E-11
(PID.TID 0000.0001) %MON ke_vol                       =   3.4703745874272E+14
(PID.TID 0000.0001) %MON vort_r_min                   =  -1.5150722281530E-08
(PID.TID 0000.0001) %MON vort_r_max                   =   1.4730477249189E-08
(PID.TID 0000.0001) %MON vort_a_mean                  =  -1.3992981959735E-04
(PID.TID 0000.0001) %MON vort_a_sd                    =   1.7365062021859E-06
(PID.TID 0000.0001) %MON vort_p_mean                  =  -1.4746660582840E-04
(PID.TID 0000.0001) %MON vort_p_sd                    =   7.7972473544781E-05
(PID.TID 0000.0001) %MON surfExpan_theta_mean         =  -1.1356649163214E-12
(PID.TID 0000.0001) %MON surfExpan_salt_mean          =  -4.6171937053429E-13
(PID.TID 0000.0001) // =======================================================
(PID.TID 0000.0001) // End MONITOR dynamic field statistics
(PID.TID 0000.0001) // =======================================================
 cg2d: Sum(rhs),rhsMax =  -3.77475828372553E-14  7.29230171179330E-05
(PID.TID 0000.0001)      cg2d_init_res =   7.83709969376052E-01
(PID.TID 0000.0001)      cg2d_iters(min,last) =      -1     208
(PID.TID 0000.0001)      cg2d_last_res =   7.75963292891022E-14
(PID.TID 0000.0001) // =======================================================
(PID.TID 0000.0001) // Begin MONITOR dynamic field statistics
(PID.TID 0000.0001) // =======================================================
(PID.TID 0000.0001) %MON time_tsnumber                =                    12
(PID.TID 0000.0001) %MON time_secondsf                =   2.1600000000000E+04
(PID.TID 0000.0001) %MON dynstat_eta_max              =   2.2699401748414E-05
(PID.TID 0000.0001) %MON dynstat_eta_min              =  -1.0723049822543E-05
(PID.TID 0000.0001) %MON dynstat_eta_mean             =  -3.1942299853816E-21
(PID.TID 0000.0001) %MON dynstat_eta_sd               =   1.1975392812411E-05
(PID.TID 0000.0001) %MON dynstat_eta_del2             =   3.0678913158746E-08
(PID.TID 0000.0001) %MON dynstat_uvel_max             =   2.1330792854439E-05
(PID.TID 0000.0001) %MON dynstat_uvel_min             =  -1.4157321656923E-04
(PID.TID 0000.0001) %MON dynstat_uvel_mean            =  -1.2883140297057E-08
(PID.TID 0000.0001) %MON dynstat_uvel_sd              =   9.2101799380457E-06
(PID.TID 0000.0001) %MON dynstat_uvel_del2            =   1.9450859008733E-08
(PID.TID 0000.0001) %MON dynstat_vvel_max             =   9.1715802412305E-05
(PID.TID 0000.0001) %MON dynstat_vvel_min             =  -1.4262226363259E-05
(PID.TID 0000.0001) %MON dynstat_vvel_mean            =  -1.8378488000327E-07
(PID.TID 0000.0001) %MON dynstat_vvel_sd              =   5.2094837755430E-06
(PID.TID 0000.0001) %MON dynstat_vvel_del2            =   1.3549969508656E-08
(PID.TID 0000.0001) %MON dynstat_wvel_max             =   7.0361661201897E-07
(PID.TID 0000.0001) %MON dynstat_wvel_min             =  -6.7352231525947E-07
(PID.TID 0000.0001) %MON dynstat_wvel_mean            =  -1.1421189332808E-10
(PID.TID 0000.0001) %MON dynstat_wvel_sd              =   2.4505658930102E-08
(PID.TID 0000.0001) %MON dynstat_wvel_del2            =   1.6356456069874E-10
(PID.TID 0000.0001) %MON dynstat_theta_max            =  -1.9000000000000E+00
(PID.TID 0000.0001) %MON dynstat_theta_min            =  -1.9079881857094E+00
(PID.TID 0000.0001) %MON dynstat_theta_mean           =  -1.9000678543062E+00
(PID.TID 0000.0001) %MON dynstat_theta_sd             =   5.2304675815225E-04
(PID.TID 0000.0001) %MON dynstat_theta_del2           =   6.0918988524557E-07
(PID.TID 0000.0001) %MON dynstat_salt_max             =   3.4400000000000E+01
(PID.TID 0000.0001) %MON dynstat_salt_min             =   3.4396740244845E+01
(PID.TID 0000.0001) %MON dynstat_salt_mean            =   3.4399972445738E+01
(PID.TID 0000.0001) %MON dynstat_salt_sd              =   2.1289451030462E-04
(PID.TID 0000.0001) %MON dynstat_salt_del2            =   2.4769111868161E-07
(PID.TID 0000.0001) %MON trAdv_CFL_u_max              =   3.5836963264951E-05
(PID.TID 0000.0001) %MON trAdv_CFL_v_max              =   1.4558609043173E-05
(PID.TID 0000.0001) %MON trAdv_CFL_w_max              =   3.6502267532781E-05
(PID.TID 0000.0001) %MON advcfl_uvel_max              =   4.2124268001830E-05
(PID.TID 0000.0001) %MON advcfl_vvel_max              =   1.4849091220071E-05
(PID.TID 0000.0001) %MON advcfl_wvel_max              =   4.2216996721138E-05
(PID.TID 0000.0001) %MON advcfl_W_hf_max              =   4.9317268001950E-05
(PID.TID 0000.0001) %MON pe_b_mean                    =  -3.5452438169217E-08
(PID.TID 0000.0001) %MON ke_max                       =   1.2173842147181E-08
(PID.TID 0000.0001) %MON ke_mean                      =   5.4957117936404E-11
(PID.TID 0000.0001) %MON ke_vol                       =   3.4703745874272E+14
(PID.TID 0000.0001) %MON vort_r_min                   =  -1.5528339999695E-08
(PID.TID 0000.0001) %MON vort_r_max                   =   1.5053235872623E-08
(PID.TID 0000.0001) %MON vort_a_mean                  =  -1.3992981959924E-04
(PID.TID 0000.0001) %MON vort_a_sd                    =   1.7365060545848E-06
(PID.TID 0000.0001) %MON vort_p_mean                  =  -1.4746660583039E-04
(PID.TID 0000.0001) %MON vort_p_sd                    =   7.7972267577215E-05
(PID.TID 0000.0001) %MON surfExpan_theta_mean         =  -9.8878645838933E-13
(PID.TID 0000.0001) %MON surfExpan_salt_mean          =  -4.0181654095218E-13
(PID.TID 0000.0001) // =======================================================
(PID.TID 0000.0001) // End MONITOR dynamic field statistics
(PID.TID 0000.0001) // =======================================================
 cg2d: Sum(rhs),rhsMax =   3.19744231092045E-14  7.85420411161437E-05
(PID.TID 0000.0001)      cg2d_init_res =   7.23506822472141E-01
(PID.TID 0000.0001)      cg2d_iters(min,last) =      -1     204
(PID.TID 0000.0001)      cg2d_last_res =   9.84066053718303E-14
(PID.TID 0000.0001) // =======================================================
(PID.TID 0000.0001) // Begin MONITOR dynamic field statistics
(PID.TID 0000.0001) // =======================================================
(PID.TID 0000.0001) %MON time_tsnumber                =                    13
(PID.TID 0000.0001) %MON time_secondsf                =   2.3400000000000E+04
(PID.TID 0000.0001) %MON dynstat_eta_max              =   2.4273878290682E-05
(PID.TID 0000.0001) %MON dynstat_eta_min              =  -1.1218499585860E-05
(PID.TID 0000.0001) %MON dynstat_eta_mean             =   1.8633008248059E-21
(PID.TID 0000.0001) %MON dynstat_eta_sd               =   1.2696776678849E-05
(PID.TID 0000.0001) %MON dynstat_eta_del2             =   3.3226058482312E-08
(PID.TID 0000.0001) %MON dynstat_uvel_max             =   2.4555541764355E-05
(PID.TID 0000.0001) %MON dynstat_uvel_min             =  -1.6234895819129E-04
(PID.TID 0000.0001) %MON dynstat_uvel_mean            =  -1.1245682081960E-08
(PID.TID 0000.0001) %MON dynstat_uvel_sd              =   1.0579329088993E-05
(PID.TID 0000.0001) %MON dynstat_uvel_del2            =   2.2298743177651E-08
(PID.TID 0000.0001) %MON dynstat_vvel_max             =   9.1588112304605E-05
(PID.TID 0000.0001) %MON dynstat_vvel_min             =  -1.4459895284351E-05
(PID.TID 0000.0001) %MON dynstat_vvel_mean            =  -1.4175130528474E-07
(PID.TID 0000.0001) %MON dynstat_vvel_sd              =   5.1516721131412E-06
(PID.TID 0000.0001) %MON dynstat_vvel_del2            =   1.3523245162938E-08
(PID.TID 0000.0001) %MON dynstat_wvel_max             =   7.9570531830979E-07
(PID.TID 0000.0001) %MON dynstat_wvel_min             =  -7.5862660345260E-07
(PID.TID 0000.0001) %MON dynstat_wvel_mean            =  -8.7919320838701E-11
(PID.TID 0000.0001) %MON dynstat_wvel_sd              =   2.6728991567090E-08
(PID.TID 0000.0001) %MON dynstat_wvel_del2            =   1.6659381660830E-10
(PID.TID 0000.0001) %MON dynstat_theta_max            =  -1.9000000000000E+00
(PID.TID 0000.0001) %MON dynstat_theta_min            =  -1.9086479051442E+00
(PID.TID 0000.0001) %MON dynstat_theta_mean           =  -1.9000734668027E+00
(PID.TID 0000.0001) %MON dynstat_theta_sd             =   5.6619636249286E-04
(PID.TID 0000.0001) %MON dynstat_theta_del2           =   6.5861467892274E-07
(PID.TID 0000.0001) %MON dynstat_salt_max             =   3.4400000000000E+01
(PID.TID 0000.0001) %MON dynstat_salt_min             =   3.4396471043576E+01
(PID.TID 0000.0001) %MON dynstat_salt_mean            =   3.4399970166781E+01
(PID.TID 0000.0001) %MON dynstat_salt_sd              =   2.3045647914865E-04
(PID.TID 0000.0001) %MON dynstat_salt_del2            =   2.6778501636372E-07
(PID.TID 0000.0001) %MON trAdv_CFL_u_max              =   4.2124273348410E-05
(PID.TID 0000.0001) %MON trAdv_CFL_v_max              =   1.4921468887370E-05
(PID.TID 0000.0001) %MON trAdv_CFL_w_max              =   4.2216996721138E-05
(PID.TID 0000.0001) %MON advcfl_uvel_max              =   4.8305966272397E-05
(PID.TID 0000.0001) %MON advcfl_vvel_max              =   1.4828417770052E-05
(PID.TID 0000.0001) %MON advcfl_wvel_max              =   4.7742319098588E-05
(PID.TID 0000.0001) %MON advcfl_W_hf_max              =   5.4997051897797E-05
(PID.TID 0000.0001) %MON pe_b_mean                    =  -3.7585893812290E-08
(PID.TID 0000.0001) %MON ke_max                       =   1.5278871062906E-08
(PID.TID 0000.0001) %MON ke_mean                      =   6.7925676617767E-11
(PID.TID 0000.0001) %MON ke_vol                       =   3.4703745874272E+14
(PID.TID 0000.0001) %MON vort_r_min                   =  -1.5506720874584E-08
(PID.TID 0000.0001) %MON vort_r_max                   =   1.4983109521175E-08
(PID.TID 0000.0001) %MON vort_a_mean                  =  -1.3992981960613E-04
(PID.TID 0000.0001) %MON vort_a_sd                    =   1.7365058904087E-06
(PID.TID 0000.0001) %MON vort_p_mean                  =  -1.4746660583765E-04
(PID.TID 0000.0001) %MON vort_p_sd                    =   7.7972064597199E-05
(PID.TID 0000.0001) %MON surfExpan_theta_mean         =  -8.2088741643603E-13
(PID.TID 0000.0001) %MON surfExpan_salt_mean          =  -3.3336469805135E-13
(PID.TID 0000.0001) // =======================================================
(PID.TID 0000.0001) // End MONITOR dynamic field statistics
(PID.TID 0000.0001) // =======================================================
 cg2d: Sum(rhs),rhsMax =  -3.59712259978551E-14  8.41174754201275E-05
(PID.TID 0000.0001)      cg2d_init_res =   6.71642230202296E-01
(PID.TID 0000.0001)      cg2d_iters(min,last) =      -1     206
(PID.TID 0000.0001)      cg2d_last_res =   9.50661669590013E-14
(PID.TID 0000.0001) // =======================================================
(PID.TID 0000.0001) // Begin MONITOR dynamic field statistics
(PID.TID 0000.0001) // =======================================================
(PID.TID 0000.0001) %MON time_tsnumber                =                    14
(PID.TID 0000.0001) %MON time_secondsf                =   2.5200000000000E+04
(PID.TID 0000.0001) %MON dynstat_eta_max              =   2.5556848356649E-05
(PID.TID 0000.0001) %MON dynstat_eta_min              =  -1.1567247393944E-05
(PID.TID 0000.0001) %MON dynstat_eta_mean             =  -3.1942299853816E-21
(PID.TID 0000.0001) %MON dynstat_eta_sd               =   1.3281960035385E-05
(PID.TID 0000.0001) %MON dynstat_eta_del2             =   3.5756647891434E-08
(PID.TID 0000.0001) %MON dynstat_uvel_max             =   2.7650374288749E-05
(PID.TID 0000.0001) %MON dynstat_uvel_min             =  -1.8222310916385E-04
(PID.TID 0000.0001) %MON dynstat_uvel_mean            =  -8.2951041518976E-09
(PID.TID 0000.0001) %MON dynstat_uvel_sd              =   1.1890409785843E-05
(PID.TID 0000.0001) %MON dynstat_uvel_del2            =   2.5045923534036E-08
(PID.TID 0000.0001) %MON dynstat_vvel_max             =   8.9306667507152E-05
(PID.TID 0000.0001) %MON dynstat_vvel_min             =  -1.4343882516195E-05
(PID.TID 0000.0001) %MON dynstat_vvel_mean            =  -1.0728509972634E-07
(PID.TID 0000.0001) %MON dynstat_vvel_sd              =   4.9561394750227E-06
(PID.TID 0000.0001) %MON dynstat_vvel_del2            =   1.3195165445071E-08
(PID.TID 0000.0001) %MON dynstat_wvel_max             =   8.8255569450011E-07
(PID.TID 0000.0001) %MON dynstat_wvel_min             =  -8.3818815251914E-07
(PID.TID 0000.0001) %MON dynstat_wvel_mean            =  -6.6606706404360E-11
(PID.TID 0000.0001) %MON dynstat_wvel_sd              =   2.8787824680115E-08
(PID.TID 0000.0001) %MON dynstat_wvel_del2            =   1.6704469348525E-10
(PID.TID 0000.0001) %MON dynstat_theta_max            =  -1.9000000000000E+00
(PID.TID 0000.0001) %MON dynstat_theta_min            =  -1.9093067259261E+00
(PID.TID 0000.0001) %MON dynstat_theta_mean           =  -1.9000790729358E+00
(PID.TID 0000.0001) %MON dynstat_theta_sd             =   6.0927982568444E-04
(PID.TID 0000.0001) %MON dynstat_theta_del2           =   7.0784004380364E-07
(PID.TID 0000.0001) %MON dynstat_salt_max             =   3.4400000000000E+01
(PID.TID 0000.0001) %MON dynstat_salt_min             =   3.4396202210789E+01
(PID.TID 0000.0001) %MON dynstat_salt_mean            =   3.4399967890434E+01
(PID.TID 0000.0001) %MON dynstat_salt_sd              =   2.4799135897186E-04
(PID.TID 0000.0001) %MON dynstat_salt_del2            =   2.8779755643036E-07
(PID.TID 0000.0001) %MON trAdv_CFL_u_max              =   4.8305972403582E-05
(PID.TID 0000.0001) %MON trAdv_CFL_v_max              =   1.4900694670505E-05
(PID.TID 0000.0001) %MON trAdv_CFL_w_max              =   4.7742319098588E-05
(PID.TID 0000.0001) %MON advcfl_uvel_max              =   5.4219401611117E-05
(PID.TID 0000.0001) %MON advcfl_vvel_max              =   1.4459044324911E-05
(PID.TID 0000.0001) %MON advcfl_wvel_max              =   5.2953341670006E-05
(PID.TID 0000.0001) %MON advcfl_W_hf_max              =   6.0224638299551E-05
(PID.TID 0000.0001) %MON pe_b_mean                    =  -3.9304413291417E-08
(PID.TID 0000.0001) %MON ke_max                       =   1.8542677770909E-08
(PID.TID 0000.0001) %MON ke_mean                      =   8.1375321752478E-11
(PID.TID 0000.0001) %MON ke_vol                       =   3.4703745874272E+14
(PID.TID 0000.0001) %MON vort_r_min                   =  -1.5120451010792E-08
(PID.TID 0000.0001) %MON vort_r_max                   =   1.4556708272136E-08
(PID.TID 0000.0001) %MON vort_a_mean                  =  -1.3992981961681E-04
(PID.TID 0000.0001) %MON vort_a_sd                    =   1.7365057181747E-06
(PID.TID 0000.0001) %MON vort_p_mean                  =  -1.4746660584891E-04
(PID.TID 0000.0001) %MON vort_p_sd                    =   7.7971870071986E-05
(PID.TID 0000.0001) %MON surfExpan_theta_mean         =  -6.6592808794769E-13
(PID.TID 0000.0001) %MON surfExpan_salt_mean          =  -2.7019715316551E-13
(PID.TID 0000.0001) // =======================================================
(PID.TID 0000.0001) // End MONITOR dynamic field statistics
(PID.TID 0000.0001) // =======================================================
 cg2d: Sum(rhs),rhsMax =   6.21724893790088E-14  8.96642102541240E-05
(PID.TID 0000.0001)      cg2d_init_res =   6.26387011833597E-01
(PID.TID 0000.0001)      cg2d_iters(min,last) =      -1     206
(PID.TID 0000.0001)      cg2d_last_res =   9.52067471608177E-14
(PID.TID 0000.0001) // =======================================================
(PID.TID 0000.0001) // Begin MONITOR dynamic field statistics
(PID.TID 0000.0001) // =======================================================
(PID.TID 0000.0001) %MON time_tsnumber                =                    15
(PID.TID 0000.0001) %MON time_secondsf                =   2.7000000000000E+04
(PID.TID 0000.0001) %MON dynstat_eta_max              =   2.6557219387883E-05
(PID.TID 0000.0001) %MON dynstat_eta_min              =  -1.1813803856142E-05
(PID.TID 0000.0001) %MON dynstat_eta_mean             =  -2.1294866569211E-21
(PID.TID 0000.0001) %MON dynstat_eta_sd               =   1.3773299032095E-05
(PID.TID 0000.0001) %MON dynstat_eta_del2             =   3.8270965494184E-08
(PID.TID 0000.0001) %MON dynstat_uvel_max             =   3.0538881874351E-05
(PID.TID 0000.0001) %MON dynstat_uvel_min             =  -2.0073847700713E-04
(PID.TID 0000.0001) %MON dynstat_uvel_mean            =  -4.4123001773175E-09
(PID.TID 0000.0001) %MON dynstat_uvel_sd              =   1.3111499063409E-05
(PID.TID 0000.0001) %MON dynstat_uvel_del2            =   2.7635593701283E-08
(PID.TID 0000.0001) %MON dynstat_vvel_max             =   8.5203806353156E-05
(PID.TID 0000.0001) %MON dynstat_vvel_min             =  -1.3983247639445E-05
(PID.TID 0000.0001) %MON dynstat_vvel_mean            =  -8.3359847856928E-08
(PID.TID 0000.0001) %MON dynstat_vvel_sd              =   4.6433325511336E-06
(PID.TID 0000.0001) %MON dynstat_vvel_del2            =   1.2615190441828E-08
(PID.TID 0000.0001) %MON dynstat_wvel_max             =   9.6257220622941E-07
(PID.TID 0000.0001) %MON dynstat_wvel_min             =  -9.1075549019534E-07
(PID.TID 0000.0001) %MON dynstat_wvel_mean            =  -5.2104942167278E-11
(PID.TID 0000.0001) %MON dynstat_wvel_sd              =   3.0674035821690E-08
(PID.TID 0000.0001) %MON dynstat_wvel_del2            =   1.6556502252123E-10
(PID.TID 0000.0001) %MON dynstat_theta_max            =  -1.9000000000000E+00
(PID.TID 0000.0001) %MON dynstat_theta_min            =  -1.9099646505520E+00
(PID.TID 0000.0001) %MON dynstat_theta_mean           =  -1.9000846727165E+00
(PID.TID 0000.0001) %MON dynstat_theta_sd             =   6.5229728688853E-04
(PID.TID 0000.0001) %MON dynstat_theta_del2           =   7.5686692851623E-07
(PID.TID 0000.0001) %MON dynstat_salt_max             =   3.4400000000000E+01
(PID.TID 0000.0001) %MON dynstat_salt_min             =   3.4395933745458E+01
(PID.TID 0000.0001) %MON dynstat_salt_mean            =   3.4399965616691E+01
(PID.TID 0000.0001) %MON dynstat_salt_sd              =   2.6549920692246E-04
(PID.TID 0000.0001) %MON dynstat_salt_del2            =   3.0772912564527E-07
(PID.TID 0000.0001) %MON trAdv_CFL_u_max              =   5.4219408492859E-05
(PID.TID 0000.0001) %MON trAdv_CFL_v_max              =   1.4529520819673E-05
(PID.TID 0000.0001) %MON trAdv_CFL_w_max              =   5.2953341670006E-05
(PID.TID 0000.0001) %MON advcfl_uvel_max              =   5.9728539116666E-05
(PID.TID 0000.0001) %MON advcfl_vvel_max              =   1.3794777558045E-05
(PID.TID 0000.0001) %MON advcfl_wvel_max              =   5.7754332373765E-05
(PID.TID 0000.0001) %MON advcfl_W_hf_max              =   6.4927472196180E-05
(PID.TID 0000.0001) %MON pe_b_mean                    =  -4.0733359063524E-08
(PID.TID 0000.0001) %MON ke_max                       =   2.1847941344114E-08
(PID.TID 0000.0001) %MON ke_mean                      =   9.4844510640017E-11
(PID.TID 0000.0001) %MON ke_vol                       =   3.4703745874272E+14
(PID.TID 0000.0001) %MON vort_r_min                   =  -1.4425798385017E-08
(PID.TID 0000.0001) %MON vort_r_max                   =   1.3831672419803E-08
(PID.TID 0000.0001) %MON vort_a_mean                  =  -1.3992981962975E-04
(PID.TID 0000.0001) %MON vort_a_sd                    =   1.7365055478861E-06
(PID.TID 0000.0001) %MON vort_p_mean                  =  -1.4746660586255E-04
(PID.TID 0000.0001) %MON vort_p_sd                    =   7.7971688662837E-05
(PID.TID 0000.0001) %MON surfExpan_theta_mean         =  -5.5480723072435E-13
(PID.TID 0000.0001) %MON surfExpan_salt_mean          =  -2.2489863606928E-13
(PID.TID 0000.0001) // =======================================================
(PID.TID 0000.0001) // End MONITOR dynamic field statistics
(PID.TID 0000.0001) // =======================================================
 cg2d: Sum(rhs),rhsMax =  -4.92939022933570E-14  9.51935438812298E-05
(PID.TID 0000.0001)      cg2d_init_res =   5.86487164618874E-01
(PID.TID 0000.0001)      cg2d_iters(min,last) =      -1     205
(PID.TID 0000.0001)      cg2d_last_res =   9.31754546433222E-14
(PID.TID 0000.0001) // =======================================================
(PID.TID 0000.0001) // Begin MONITOR dynamic field statistics
(PID.TID 0000.0001) // =======================================================
(PID.TID 0000.0001) %MON time_tsnumber                =                    16
(PID.TID 0000.0001) %MON time_secondsf                =   2.8800000000000E+04
(PID.TID 0000.0001) %MON dynstat_eta_max              =   2.7349853000064E-05
(PID.TID 0000.0001) %MON dynstat_eta_min              =  -1.2115844996039E-05
(PID.TID 0000.0001) %MON dynstat_eta_mean             =  -1.0647433284605E-21
(PID.TID 0000.0001) %MON dynstat_eta_sd               =   1.4217444297484E-05
(PID.TID 0000.0001) %MON dynstat_eta_del2             =   4.0769379749031E-08
(PID.TID 0000.0001) %MON dynstat_uvel_max             =   3.3161746544180E-05
(PID.TID 0000.0001) %MON dynstat_uvel_min             =  -2.1755318215107E-04
(PID.TID 0000.0001) %MON dynstat_uvel_mean            =  -2.4247540444197E-11
(PID.TID 0000.0001) %MON dynstat_uvel_sd              =   1.4218085943128E-05
(PID.TID 0000.0001) %MON dynstat_uvel_del2            =   3.0025475516738E-08
(PID.TID 0000.0001) %MON dynstat_vvel_max             =   7.9710036467669E-05
(PID.TID 0000.0001) %MON dynstat_vvel_min             =  -1.3449316645444E-05
(PID.TID 0000.0001) %MON dynstat_vvel_mean            =  -7.1256382128826E-08
(PID.TID 0000.0001) %MON dynstat_vvel_sd              =   4.2406122580397E-06
(PID.TID 0000.0001) %MON dynstat_vvel_del2            =   1.1845052348092E-08
(PID.TID 0000.0001) %MON dynstat_wvel_max             =   1.0347126538932E-06
(PID.TID 0000.0001) %MON dynstat_wvel_min             =  -9.7542228343974E-07
(PID.TID 0000.0001) %MON dynstat_wvel_mean            =  -4.5158716412571E-11
(PID.TID 0000.0001) %MON dynstat_wvel_sd              =   3.2384440906742E-08
(PID.TID 0000.0001) %MON dynstat_wvel_del2            =   1.6290060107250E-10
(PID.TID 0000.0001) %MON dynstat_theta_max            =  -1.9000000000000E+00
(PID.TID 0000.0001) %MON dynstat_theta_min            =  -1.9106216813670E+00
(PID.TID 0000.0001) %MON dynstat_theta_mean           =  -1.9000902661557E+00
(PID.TID 0000.0001) %MON dynstat_theta_sd             =   6.9524888446911E-04
(PID.TID 0000.0001) %MON dynstat_theta_del2           =   8.0569627515973E-07
(PID.TID 0000.0001) %MON dynstat_salt_max             =   3.4400000000000E+01
(PID.TID 0000.0001) %MON dynstat_salt_min             =   3.4395665646620E+01
(PID.TID 0000.0001) %MON dynstat_salt_mean            =   3.4399963345549E+01
(PID.TID 0000.0001) %MON dynstat_salt_sd              =   2.8298007982183E-04
(PID.TID 0000.0001) %MON dynstat_salt_del2            =   3.2758010829849E-07
(PID.TID 0000.0001) %MON trAdv_CFL_u_max              =   5.9728546697650E-05
(PID.TID 0000.0001) %MON trAdv_CFL_v_max              =   1.3862016273583E-05
(PID.TID 0000.0001) %MON trAdv_CFL_w_max              =   5.7754332373765E-05
(PID.TID 0000.0001) %MON advcfl_uvel_max              =   6.4731654557707E-05
(PID.TID 0000.0001) %MON advcfl_vvel_max              =   1.2905318075316E-05
(PID.TID 0000.0001) %MON advcfl_wvel_max              =   6.2082759233595E-05
(PID.TID 0000.0001) %MON advcfl_W_hf_max              =   6.9073268754383E-05
(PID.TID 0000.0001) %MON pe_b_mean                    =  -4.2013405513496E-08
(PID.TID 0000.0001) %MON ke_max                       =   2.5080344804580E-08
(PID.TID 0000.0001) %MON ke_mean                      =   1.0789073947434E-10
(PID.TID 0000.0001) %MON ke_vol                       =   3.4703745874272E+14
(PID.TID 0000.0001) %MON vort_r_min                   =  -1.3495651949854E-08
(PID.TID 0000.0001) %MON vort_r_max                   =   1.2881439376569E-08
(PID.TID 0000.0001) %MON vort_a_mean                  =  -1.3992981964323E-04
(PID.TID 0000.0001) %MON vort_a_sd                    =   1.7365053886592E-06
(PID.TID 0000.0001) %MON vort_p_mean                  =  -1.4746660587675E-04
(PID.TID 0000.0001) %MON vort_p_sd                    =   7.7971523969442E-05
(PID.TID 0000.0001) %MON surfExpan_theta_mean         =  -5.1099555733994E-13
(PID.TID 0000.0001) %MON surfExpan_salt_mean          =  -2.0702705826721E-13
(PID.TID 0000.0001) // =======================================================
(PID.TID 0000.0001) // End MONITOR dynamic field statistics
(PID.TID 0000.0001) // =======================================================
 cg2d: Sum(rhs),rhsMax =  -2.70894418008538E-14  1.01107025809730E-04
(PID.TID 0000.0001)      cg2d_init_res =   5.48865818666084E-01
(PID.TID 0000.0001)      cg2d_iters(min,last) =      -1     204
(PID.TID 0000.0001)      cg2d_last_res =   9.58592577032977E-14
(PID.TID 0000.0001) // =======================================================
(PID.TID 0000.0001) // Begin MONITOR dynamic field statistics
(PID.TID 0000.0001) // =======================================================
(PID.TID 0000.0001) %MON time_tsnumber                =                    17
(PID.TID 0000.0001) %MON time_secondsf                =   3.0600000000000E+04
(PID.TID 0000.0001) %MON dynstat_eta_max              =   2.8019550486272E-05
(PID.TID 0000.0001) %MON dynstat_eta_min              =  -1.2789942364674E-05
(PID.TID 0000.0001) %MON dynstat_eta_mean             =  -2.6618583211513E-21
(PID.TID 0000.0001) %MON dynstat_eta_sd               =   1.4659140956849E-05
(PID.TID 0000.0001) %MON dynstat_eta_del2             =   4.3252299640483E-08
(PID.TID 0000.0001) %MON dynstat_uvel_max             =   3.5479707429559E-05
(PID.TID 0000.0001) %MON dynstat_uvel_min             =  -2.3245391651809E-04
(PID.TID 0000.0001) %MON dynstat_uvel_mean            =   4.4221211964017E-09
(PID.TID 0000.0001) %MON dynstat_uvel_sd              =   1.5194313918509E-05
(PID.TID 0000.0001) %MON dynstat_uvel_del2            =   3.2189485565082E-08
(PID.TID 0000.0001) %MON dynstat_vvel_max             =   7.3319660190969E-05
(PID.TID 0000.0001) %MON dynstat_vvel_min             =  -1.2766989412571E-05
(PID.TID 0000.0001) %MON dynstat_vvel_mean            =  -7.0698321022737E-08
(PID.TID 0000.0001) %MON dynstat_vvel_sd              =   3.7801991357557E-06
(PID.TID 0000.0001) %MON dynstat_vvel_del2            =   1.0953819957742E-08
(PID.TID 0000.0001) %MON dynstat_wvel_max             =   1.0985158744239E-06
(PID.TID 0000.0001) %MON dynstat_wvel_min             =  -1.0438492629335E-06
(PID.TID 0000.0001) %MON dynstat_wvel_mean            =  -4.5531143113740E-11
(PID.TID 0000.0001) %MON dynstat_wvel_sd              =   3.3920429655519E-08
(PID.TID 0000.0001) %MON dynstat_wvel_del2            =   1.5981011871085E-10
(PID.TID 0000.0001) %MON dynstat_theta_max            =  -1.9000000000000E+00
(PID.TID 0000.0001) %MON dynstat_theta_min            =  -1.9112778205307E+00
(PID.TID 0000.0001) %MON dynstat_theta_mean           =  -1.9000958532641E+00
(PID.TID 0000.0001) %MON dynstat_theta_sd             =   7.3813475613026E-04
(PID.TID 0000.0001) %MON dynstat_theta_del2           =   8.5432902150180E-07
(PID.TID 0000.0001) %MON dynstat_salt_max             =   3.4400000000000E+01
(PID.TID 0000.0001) %MON dynstat_salt_min             =   3.4395397913388E+01
(PID.TID 0000.0001) %MON dynstat_salt_mean            =   3.4399961077001E+01
(PID.TID 0000.0001) %MON dynstat_salt_sd              =   3.0043403422074E-04
(PID.TID 0000.0001) %MON dynstat_salt_del2            =   3.4735088705527E-07
(PID.TID 0000.0001) %MON trAdv_CFL_u_max              =   6.4731662773706E-05
(PID.TID 0000.0001) %MON trAdv_CFL_v_max              =   1.2968221373854E-05
(PID.TID 0000.0001) %MON trAdv_CFL_w_max              =   6.2082759233595E-05
(PID.TID 0000.0001) %MON advcfl_uvel_max              =   6.9165279385276E-05
(PID.TID 0000.0001) %MON advcfl_vvel_max              =   1.1870695057609E-05
(PID.TID 0000.0001) %MON advcfl_wvel_max              =   6.5910952465432E-05
(PID.TID 0000.0001) %MON advcfl_W_hf_max              =   7.2669037840746E-05
(PID.TID 0000.0001) %MON pe_b_mean                    =  -4.3281941431254E-08
(PID.TID 0000.0001) %MON ke_max                       =   2.8140597246746E-08
(PID.TID 0000.0001) %MON ke_mean                      =   1.2013198152604E-10
(PID.TID 0000.0001) %MON ke_vol                       =   3.4703745874272E+14
(PID.TID 0000.0001) %MON vort_r_min                   =  -1.2413701697656E-08
(PID.TID 0000.0001) %MON vort_r_max                   =   1.1805943465867E-08
(PID.TID 0000.0001) %MON vort_a_mean                  =  -1.3992981965548E-04
(PID.TID 0000.0001) %MON vort_a_sd                    =   1.7365052497733E-06
(PID.TID 0000.0001) %MON vort_p_mean                  =  -1.4746660588966E-04
(PID.TID 0000.0001) %MON vort_p_sd                    =   7.7971378354221E-05
(PID.TID 0000.0001) %MON surfExpan_theta_mean         =  -5.4789979223752E-13
(PID.TID 0000.0001) %MON surfExpan_salt_mean          =  -2.2204025493809E-13
(PID.TID 0000.0001) // =======================================================
(PID.TID 0000.0001) // End MONITOR dynamic field statistics
(PID.TID 0000.0001) // =======================================================
 cg2d: Sum(rhs),rhsMax =  -3.55271367880050E-15  1.07172981720533E-04
(PID.TID 0000.0001)      cg2d_init_res =   5.14674319713706E-01
(PID.TID 0000.0001)      cg2d_iters(min,last) =      -1     204
(PID.TID 0000.0001)      cg2d_last_res =   8.62345148694326E-14
(PID.TID 0000.0001) // =======================================================
(PID.TID 0000.0001) // Begin MONITOR dynamic field statistics
(PID.TID 0000.0001) // =======================================================
(PID.TID 0000.0001) %MON time_tsnumber                =                    18
(PID.TID 0000.0001) %MON time_secondsf                =   3.2400000000000E+04
(PID.TID 0000.0001) %MON dynstat_eta_max              =   2.8651350519811E-05
(PID.TID 0000.0001) %MON dynstat_eta_min              =  -1.3384229644373E-05
(PID.TID 0000.0001) %MON dynstat_eta_mean             =   2.6618583211513E-22
(PID.TID 0000.0001) %MON dynstat_eta_sd               =   1.5136676922616E-05
(PID.TID 0000.0001) %MON dynstat_eta_del2             =   4.5720140571909E-08
(PID.TID 0000.0001) %MON dynstat_uvel_max             =   3.7475064301907E-05
(PID.TID 0000.0001) %MON dynstat_uvel_min             =  -2.4536412233386E-04
(PID.TID 0000.0001) %MON dynstat_uvel_mean            =   8.5067875911724E-09
(PID.TID 0000.0001) %MON dynstat_uvel_sd              =   1.6033595598902E-05
(PID.TID 0000.0001) %MON dynstat_uvel_del2            =   3.4118203978560E-08
(PID.TID 0000.0001) %MON dynstat_vvel_max             =   6.6554389511190E-05
(PID.TID 0000.0001) %MON dynstat_vvel_min             =  -1.1999945027575E-05
(PID.TID 0000.0001) %MON dynstat_vvel_mean            =  -8.0169967548396E-08
(PID.TID 0000.0001) %MON dynstat_vvel_sd              =   3.2968873761001E-06
(PID.TID 0000.0001) %MON dynstat_vvel_del2            =   1.0012804049353E-08
(PID.TID 0000.0001) %MON dynstat_wvel_max             =   1.1568743176682E-06
(PID.TID 0000.0001) %MON dynstat_wvel_min             =  -1.1087195198073E-06
(PID.TID 0000.0001) %MON dynstat_wvel_mean            =  -5.2215099979752E-11
(PID.TID 0000.0001) %MON dynstat_wvel_sd              =   3.5288215679302E-08
(PID.TID 0000.0001) %MON dynstat_wvel_del2            =   1.5697515836294E-10
(PID.TID 0000.0001) %MON dynstat_theta_max            =  -1.9000000000000E+00
(PID.TID 0000.0001) %MON dynstat_theta_min            =  -1.9119330699999E+00
(PID.TID 0000.0001) %MON dynstat_theta_mean           =  -1.9001014340525E+00
(PID.TID 0000.0001) %MON dynstat_theta_sd             =   7.8095503907500E-04
(PID.TID 0000.0001) %MON dynstat_theta_del2           =   9.0276610403891E-07
(PID.TID 0000.0001) %MON dynstat_salt_max             =   3.4400000000000E+01
(PID.TID 0000.0001) %MON dynstat_salt_min             =   3.4395130544956E+01
(PID.TID 0000.0001) %MON dynstat_salt_mean            =   3.4399958811045E+01
(PID.TID 0000.0001) %MON dynstat_salt_sd              =   3.1786112646407E-04
(PID.TID 0000.0001) %MON dynstat_salt_del2            =   3.6704184417204E-07
(PID.TID 0000.0001) %MON trAdv_CFL_u_max              =   6.9165288164008E-05
(PID.TID 0000.0001) %MON trAdv_CFL_v_max              =   1.1928555380826E-05
(PID.TID 0000.0001) %MON trAdv_CFL_w_max              =   6.5910952465432E-05
(PID.TID 0000.0001) %MON advcfl_uvel_max              =   7.3006634289270E-05
(PID.TID 0000.0001) %MON advcfl_vvel_max              =   1.0775375398288E-05
(PID.TID 0000.0001) %MON advcfl_wvel_max              =   6.9412459060092E-05
(PID.TID 0000.0001) %MON advcfl_W_hf_max              =   7.5757676488503E-05
(PID.TID 0000.0001) %MON pe_b_mean                    =  -4.4658436006344E-08
(PID.TID 0000.0001) %MON ke_max                       =   3.0954452213291E-08
(PID.TID 0000.0001) %MON ke_mean                      =   1.3128188511203E-10
(PID.TID 0000.0001) %MON ke_vol                       =   3.4703745874272E+14
(PID.TID 0000.0001) %MON vort_r_min                   =  -1.1268278329572E-08
(PID.TID 0000.0001) %MON vort_r_max                   =   1.1869766422354E-08
(PID.TID 0000.0001) %MON vort_a_mean                  =  -1.3992981966491E-04
(PID.TID 0000.0001) %MON vort_a_sd                    =   1.7365051383108E-06
(PID.TID 0000.0001) %MON vort_p_mean                  =  -1.4746660589960E-04
(PID.TID 0000.0001) %MON vort_p_sd                    =   7.7971252853473E-05
(PID.TID 0000.0001) %MON surfExpan_theta_mean         =  -6.6809439081962E-13
(PID.TID 0000.0001) %MON surfExpan_salt_mean          =  -2.7098344117052E-13
(PID.TID 0000.0001) // =======================================================
(PID.TID 0000.0001) // End MONITOR dynamic field statistics
(PID.TID 0000.0001) // =======================================================
 cg2d: Sum(rhs),rhsMax =  -6.21724893790088E-15  1.13146443357598E-04
(PID.TID 0000.0001)      cg2d_init_res =   4.84558798679301E-01
(PID.TID 0000.0001)      cg2d_iters(min,last) =      -1     203
(PID.TID 0000.0001)      cg2d_last_res =   9.06342841706251E-14
(PID.TID 0000.0001) // =======================================================
(PID.TID 0000.0001) // Begin MONITOR dynamic field statistics
(PID.TID 0000.0001) // =======================================================
(PID.TID 0000.0001) %MON time_tsnumber                =                    19
(PID.TID 0000.0001) %MON time_secondsf                =   3.4200000000000E+04
(PID.TID 0000.0001) %MON dynstat_eta_max              =   2.9322702567131E-05
(PID.TID 0000.0001) %MON dynstat_eta_min              =  -1.3914081393467E-05
(PID.TID 0000.0001) %MON dynstat_eta_mean             =   2.1294866569211E-21
(PID.TID 0000.0001) %MON dynstat_eta_sd               =   1.5679165471071E-05
(PID.TID 0000.0001) %MON dynstat_eta_del2             =   4.8173302010704E-08
(PID.TID 0000.0001) %MON dynstat_uvel_max             =   3.9151710189800E-05
(PID.TID 0000.0001) %MON dynstat_uvel_min             =  -2.5634118327831E-04
(PID.TID 0000.0001) %MON dynstat_uvel_mean            =   1.1887509164846E-08
(PID.TID 0000.0001) %MON dynstat_uvel_sd              =   1.6738589483155E-05
(PID.TID 0000.0001) %MON dynstat_uvel_del2            =   3.5818198982311E-08
(PID.TID 0000.0001) %MON dynstat_vvel_max             =   6.0116567770519E-05
(PID.TID 0000.0001) %MON dynstat_vvel_min             =  -1.1211711126021E-05
(PID.TID 0000.0001) %MON dynstat_vvel_mean            =  -9.7332175690159E-08
(PID.TID 0000.0001) %MON dynstat_vvel_sd              =   2.8256325803855E-06
(PID.TID 0000.0001) %MON dynstat_vvel_del2            =   9.0905883208481E-09
(PID.TID 0000.0001) %MON dynstat_wvel_max             =   1.2106219919835E-06
(PID.TID 0000.0001) %MON dynstat_wvel_min             =  -1.1659481737071E-06
(PID.TID 0000.0001) %MON dynstat_wvel_mean            =  -6.3697962426260E-11
(PID.TID 0000.0001) %MON dynstat_wvel_sd              =   3.6499547010387E-08
(PID.TID 0000.0001) %MON dynstat_wvel_del2            =   1.5492163401857E-10
(PID.TID 0000.0001) %MON dynstat_theta_max            =  -1.9000000000000E+00
(PID.TID 0000.0001) %MON dynstat_theta_min            =  -1.9125874315263E+00
(PID.TID 0000.0001) %MON dynstat_theta_mean           =  -1.9001070085316E+00
(PID.TID 0000.0001) %MON dynstat_theta_sd             =   8.2370987015872E-04
(PID.TID 0000.0001) %MON dynstat_theta_del2           =   9.5100846102863E-07
(PID.TID 0000.0001) %MON dynstat_salt_max             =   3.4400000000000E+01
(PID.TID 0000.0001) %MON dynstat_salt_min             =   3.4394863540603E+01
(PID.TID 0000.0001) %MON dynstat_salt_mean            =   3.4399956547676E+01
(PID.TID 0000.0001) %MON dynstat_salt_sd              =   3.3526141275362E-04
(PID.TID 0000.0001) %MON dynstat_salt_del2            =   3.8665336270947E-07
(PID.TID 0000.0001) %MON trAdv_CFL_u_max              =   7.3006643555562E-05
(PID.TID 0000.0001) %MON trAdv_CFL_v_max              =   1.0827896897687E-05
(PID.TID 0000.0001) %MON trAdv_CFL_w_max              =   6.9412459060092E-05
(PID.TID 0000.0001) %MON advcfl_uvel_max              =   7.6272793442123E-05
(PID.TID 0000.0001) %MON advcfl_vvel_max              =   9.7330708033175E-06
(PID.TID 0000.0001) %MON advcfl_wvel_max              =   7.2637319519012E-05
(PID.TID 0000.0001) %MON advcfl_W_hf_max              =   7.8412476480062E-05
(PID.TID 0000.0001) %MON pe_b_mean                    =  -4.6234785107843E-08
(PID.TID 0000.0001) %MON ke_max                       =   3.3479859789341E-08
(PID.TID 0000.0001) %MON ke_mean                      =   1.4117595859796E-10
(PID.TID 0000.0001) %MON ke_vol                       =   3.4703745874272E+14
(PID.TID 0000.0001) %MON vort_r_min                   =  -1.0146272585077E-08
(PID.TID 0000.0001) %MON vort_r_max                   =   1.2405783571384E-08
(PID.TID 0000.0001) %MON vort_a_mean                  =  -1.3992981967028E-04
(PID.TID 0000.0001) %MON vort_a_sd                    =   1.7365050593809E-06
(PID.TID 0000.0001) %MON vort_p_mean                  =  -1.4746660590525E-04
(PID.TID 0000.0001) %MON vort_p_sd                    =   7.7971147176344E-05
(PID.TID 0000.0001) %MON surfExpan_theta_mean         =  -8.6421893315276E-13
(PID.TID 0000.0001) %MON surfExpan_salt_mean          =  -3.5085502683444E-13
(PID.TID 0000.0001) // =======================================================
(PID.TID 0000.0001) // End MONITOR dynamic field statistics
(PID.TID 0000.0001) // =======================================================
 cg2d: Sum(rhs),rhsMax =  -1.06137321154165E-13  1.19029287822747E-04
(PID.TID 0000.0001)      cg2d_init_res =   4.57837415237735E-01
(PID.TID 0000.0001)      cg2d_iters(min,last) =      -1     202
(PID.TID 0000.0001)      cg2d_last_res =   8.98277012030430E-14
(PID.TID 0000.0001) // =======================================================
(PID.TID 0000.0001) // Begin MONITOR dynamic field statistics
(PID.TID 0000.0001) // =======================================================
(PID.TID 0000.0001) %MON time_tsnumber                =                    20
(PID.TID 0000.0001) %MON time_secondsf                =   3.6000000000000E+04
(PID.TID 0000.0001) %MON dynstat_eta_max              =   3.0097840822147E-05
(PID.TID 0000.0001) %MON dynstat_eta_min              =  -1.4398114493335E-05
(PID.TID 0000.0001) %MON dynstat_eta_mean             =   2.3956724890362E-21
(PID.TID 0000.0001) %MON dynstat_eta_sd               =   1.6305482277808E-05
(PID.TID 0000.0001) %MON dynstat_eta_del2             =   5.0612154128655E-08
(PID.TID 0000.0001) %MON dynstat_uvel_max             =   4.0533681008624E-05
(PID.TID 0000.0001) %MON dynstat_uvel_min             =  -2.6556629278943E-04
(PID.TID 0000.0001) %MON dynstat_uvel_mean            =   1.4335781002740E-08
(PID.TID 0000.0001) %MON dynstat_uvel_sd              =   1.7320570748046E-05
(PID.TID 0000.0001) %MON dynstat_uvel_del2            =   3.7310334624038E-08
(PID.TID 0000.0001) %MON dynstat_vvel_max             =   5.4551280772484E-05
(PID.TID 0000.0001) %MON dynstat_vvel_min             =  -1.0461880156492E-05
(PID.TID 0000.0001) %MON dynstat_vvel_mean            =  -1.1945638702557E-07
(PID.TID 0000.0001) %MON dynstat_vvel_sd              =   2.3990394060725E-06
(PID.TID 0000.0001) %MON dynstat_vvel_del2            =   8.2484636783923E-09
(PID.TID 0000.0001) %MON dynstat_wvel_max             =   1.2575877026440E-06
(PID.TID 0000.0001) %MON dynstat_wvel_min             =  -1.2161058863487E-06
(PID.TID 0000.0001) %MON dynstat_wvel_mean            =  -7.8232442734285E-11
(PID.TID 0000.0001) %MON dynstat_wvel_sd              =   3.7572609860495E-08
(PID.TID 0000.0001) %MON dynstat_wvel_del2            =   1.5397424191790E-10
(PID.TID 0000.0001) %MON dynstat_theta_max            =  -1.9000000000000E+00
(PID.TID 0000.0001) %MON dynstat_theta_min            =  -1.9132409066710E+00
(PID.TID 0000.0001) %MON dynstat_theta_mean           =  -1.9001125767122E+00
(PID.TID 0000.0001) %MON dynstat_theta_sd             =   8.6639938601712E-04
(PID.TID 0000.0001) %MON dynstat_theta_del2           =   9.9905703494856E-07
(PID.TID 0000.0001) %MON dynstat_salt_max             =   3.4400000000000E+01
(PID.TID 0000.0001) %MON dynstat_salt_min             =   3.4394596899685E+01
(PID.TID 0000.0001) %MON dynstat_salt_mean            =   3.4399954286889E+01
(PID.TID 0000.0001) %MON dynstat_salt_sd              =   3.5263494920022E-04
(PID.TID 0000.0001) %MON dynstat_salt_del2            =   4.0618582751659E-07
(PID.TID 0000.0001) %MON trAdv_CFL_u_max              =   7.6272803122969E-05
(PID.TID 0000.0001) %MON trAdv_CFL_v_max              =   9.7791205202711E-06
(PID.TID 0000.0001) %MON trAdv_CFL_w_max              =   7.2637319519012E-05
(PID.TID 0000.0001) %MON advcfl_uvel_max              =   7.9017669872918E-05
(PID.TID 0000.0001) %MON advcfl_vvel_max              =   8.8320324639461E-06
(PID.TID 0000.0001) %MON advcfl_wvel_max              =   7.5455262158639E-05
(PID.TID 0000.0001) %MON advcfl_W_hf_max              =   8.0730013789600E-05
(PID.TID 0000.0001) %MON pe_b_mean                    =  -4.8070760475885E-08
(PID.TID 0000.0001) %MON ke_max                       =   3.5709922712300E-08
(PID.TID 0000.0001) %MON ke_mean                      =   1.4978713292864E-10
(PID.TID 0000.0001) %MON ke_vol                       =   3.4703745874272E+14
(PID.TID 0000.0001) %MON vort_r_min                   =  -9.1275267169620E-09
(PID.TID 0000.0001) %MON vort_r_max                   =   1.2983793517129E-08
(PID.TID 0000.0001) %MON vort_a_mean                  =  -1.3992981967076E-04
(PID.TID 0000.0001) %MON vort_a_sd                    =   1.7365050150615E-06
(PID.TID 0000.0001) %MON vort_p_mean                  =  -1.4746660590577E-04
(PID.TID 0000.0001) %MON vort_p_sd                    =   7.7971059786963E-05
(PID.TID 0000.0001) %MON surfExpan_theta_mean         =  -1.1211167535220E-12
(PID.TID 0000.0001) %MON surfExpan_salt_mean          =  -4.5547789046845E-13
(PID.TID 0000.0001) // =======================================================
(PID.TID 0000.0001) // End MONITOR dynamic field statistics
(PID.TID 0000.0001) // =======================================================
 Computing Diagnostic #    198  SHIfwFlx     Counter:      10   Parms: SM      L1      
 Computing Diagnostic #    199  SHIhtFlx     Counter:      10   Parms: SM      L1      
 Computing Diagnostic #    208  ICFfwFlx     Counter:      10   Parms: SM      MR      
 Computing Diagnostic #    209  ICFhtFlx     Counter:      10   Parms: SM      MR      
(PID.TID 0000.0001) %CHECKPOINT        20 ckptA
(PID.TID 0000.0001)   Seconds in section "ALL                    [THE_MODEL_MAIN]":
(PID.TID 0000.0001)           User time:   25.361593589652330
(PID.TID 0000.0001)         System time:  0.17629600339569151
(PID.TID 0000.0001)     Wall clock time:   25.580801010131836
(PID.TID 0000.0001)          No. starts:           1
(PID.TID 0000.0001)           No. stops:           1
(PID.TID 0000.0001)   Seconds in section "INITIALISE_FIXED       [THE_MODEL_MAIN]":
(PID.TID 0000.0001)           User time:  0.23245599912479520
(PID.TID 0000.0001)         System time:   4.8181999707594514E-002
(PID.TID 0000.0001)     Wall clock time:  0.29112792015075684
(PID.TID 0000.0001)          No. starts:           1
(PID.TID 0000.0001)           No. stops:           1
(PID.TID 0000.0001)   Seconds in section "THE_MAIN_LOOP          [THE_MODEL_MAIN]":
(PID.TID 0000.0001)           User time:   25.129106238484383
(PID.TID 0000.0001)         System time:  0.12804800271987915
(PID.TID 0000.0001)     Wall clock time:   25.289587020874023
(PID.TID 0000.0001)          No. starts:           1
(PID.TID 0000.0001)           No. stops:           1
(PID.TID 0000.0001)   Seconds in section "INITIALISE_VARIA    [THE_MAIN_LOOP]":
(PID.TID 0000.0001)           User time:  0.45779997110366821
(PID.TID 0000.0001)         System time:   6.4302999526262283E-002
(PID.TID 0000.0001)     Wall clock time:  0.52354788780212402
(PID.TID 0000.0001)          No. starts:           1
(PID.TID 0000.0001)           No. stops:           1
(PID.TID 0000.0001)   Seconds in section "MAIN LOOP           [THE_MAIN_LOOP]":
(PID.TID 0000.0001)           User time:   24.671265900135040
(PID.TID 0000.0001)         System time:   6.3740000128746033E-002
(PID.TID 0000.0001)     Wall clock time:   24.766002178192139
(PID.TID 0000.0001)          No. starts:           1
(PID.TID 0000.0001)           No. stops:           1
(PID.TID 0000.0001)   Seconds in section "MAIN_DO_LOOP        [THE_MAIN_LOOP]":
(PID.TID 0000.0001)           User time:   24.671086847782135
(PID.TID 0000.0001)         System time:   6.3736990094184875E-002
(PID.TID 0000.0001)     Wall clock time:   24.765818119049072
(PID.TID 0000.0001)          No. starts:          20
(PID.TID 0000.0001)           No. stops:          20
(PID.TID 0000.0001)   Seconds in section "FORWARD_STEP        [MAIN_DO_LOOP]":
(PID.TID 0000.0001)           User time:   24.670790314674377
(PID.TID 0000.0001)         System time:   6.3735991716384888E-002
(PID.TID 0000.0001)     Wall clock time:   24.765527248382568
(PID.TID 0000.0001)          No. starts:          20
(PID.TID 0000.0001)           No. stops:          20
(PID.TID 0000.0001)   Seconds in section "DO_STATEVARS_DIAGS  [FORWARD_STEP]":
(PID.TID 0000.0001)           User time:   8.0454349517822266E-004
(PID.TID 0000.0001)         System time:   1.2993812561035156E-005
(PID.TID 0000.0001)     Wall clock time:   8.2111358642578125E-004
(PID.TID 0000.0001)          No. starts:          40
(PID.TID 0000.0001)           No. stops:          40
(PID.TID 0000.0001)   Seconds in section "LOAD_FIELDS_DRIVER  [FORWARD_STEP]":
(PID.TID 0000.0001)           User time:   4.3261051177978516E-004
(PID.TID 0000.0001)         System time:   4.0009617805480957E-006
(PID.TID 0000.0001)     Wall clock time:   4.3749809265136719E-004
(PID.TID 0000.0001)          No. starts:          20
(PID.TID 0000.0001)           No. stops:          20
(PID.TID 0000.0001)   Seconds in section "EXTERNAL_FLDS_LOAD [LOAD_FLDS_DRIVER]":
(PID.TID 0000.0001)           User time:   1.5020370483398438E-004
(PID.TID 0000.0001)         System time:   1.9967555999755859E-006
(PID.TID 0000.0001)     Wall clock time:   1.5401840209960938E-004
(PID.TID 0000.0001)          No. starts:          20
(PID.TID 0000.0001)           No. stops:          20
(PID.TID 0000.0001)   Seconds in section "DO_ATMOSPHERIC_PHYS [FORWARD_STEP]":
(PID.TID 0000.0001)           User time:   1.4781951904296875E-004
(PID.TID 0000.0001)         System time:   9.9837779998779297E-007
(PID.TID 0000.0001)     Wall clock time:   1.4591217041015625E-004
(PID.TID 0000.0001)          No. starts:          20
(PID.TID 0000.0001)           No. stops:          20
(PID.TID 0000.0001)   Seconds in section "DO_OCEANIC_PHYS     [FORWARD_STEP]":
(PID.TID 0000.0001)           User time:  0.53942227363586426
(PID.TID 0000.0001)         System time:   4.0559917688369751E-003
(PID.TID 0000.0001)     Wall clock time:  0.54389190673828125
(PID.TID 0000.0001)          No. starts:          20
(PID.TID 0000.0001)           No. stops:          20
(PID.TID 0000.0001)   Seconds in section "SHELFICE_THERMODYNAMICS [DO_OCEANIC_PHYS]":
(PID.TID 0000.0001)           User time:   5.8577597141265869E-002
(PID.TID 0000.0001)         System time:   0.0000000000000000
(PID.TID 0000.0001)     Wall clock time:   5.8633089065551758E-002
(PID.TID 0000.0001)          No. starts:          20
(PID.TID 0000.0001)           No. stops:          20
(PID.TID 0000.0001)   Seconds in section "ICEFRONT_THERMODYNAMICS [DO_OCEANIC_PHYS]":
(PID.TID 0000.0001)           User time:  0.11849886178970337
(PID.TID 0000.0001)         System time:   5.9902667999267578E-006
(PID.TID 0000.0001)     Wall clock time:  0.11868786811828613
(PID.TID 0000.0001)          No. starts:          20
(PID.TID 0000.0001)           No. stops:          20
(PID.TID 0000.0001)   Seconds in section "THERMODYNAMICS      [FORWARD_STEP]":
(PID.TID 0000.0001)           User time:   4.6844942569732666
(PID.TID 0000.0001)         System time:   1.4100968837738037E-004
(PID.TID 0000.0001)     Wall clock time:   4.6895561218261719
(PID.TID 0000.0001)          No. starts:          20
(PID.TID 0000.0001)           No. stops:          20
(PID.TID 0000.0001)   Seconds in section "DYNAMICS            [FORWARD_STEP]":
(PID.TID 0000.0001)           User time:   8.9811757206916809
(PID.TID 0000.0001)         System time:   4.1310042142868042E-003
(PID.TID 0000.0001)     Wall clock time:   8.9975609779357910
(PID.TID 0000.0001)          No. starts:          20
(PID.TID 0000.0001)           No. stops:          20
(PID.TID 0000.0001)   Seconds in section "UPDATE_SURF_DR      [FORWARD_STEP]":
(PID.TID 0000.0001)           User time:  0.12528920173645020
(PID.TID 0000.0001)         System time:   0.0000000000000000
(PID.TID 0000.0001)     Wall clock time:  0.12575674057006836
(PID.TID 0000.0001)          No. starts:          20
(PID.TID 0000.0001)           No. stops:          20
(PID.TID 0000.0001)   Seconds in section "SOLVE_FOR_PRESSURE  [FORWARD_STEP]":
(PID.TID 0000.0001)           User time:   5.0308934450149536
(PID.TID 0000.0001)         System time:   3.9935111999511719E-006
(PID.TID 0000.0001)     Wall clock time:   5.0349440574645996
(PID.TID 0000.0001)          No. starts:          20
(PID.TID 0000.0001)           No. stops:          20
(PID.TID 0000.0001)   Seconds in section "MOM_CORRECTION_STEP [FORWARD_STEP]":
(PID.TID 0000.0001)           User time:  0.32177138328552246
(PID.TID 0000.0001)         System time:   9.0003013610839844E-006
(PID.TID 0000.0001)     Wall clock time:  0.32186460494995117
(PID.TID 0000.0001)          No. starts:          20
(PID.TID 0000.0001)           No. stops:          20
(PID.TID 0000.0001)   Seconds in section "INTEGR_CONTINUITY   [FORWARD_STEP]":
(PID.TID 0000.0001)           User time:  0.54523921012878418
(PID.TID 0000.0001)         System time:   8.9854001998901367E-006
(PID.TID 0000.0001)     Wall clock time:  0.54532170295715332
(PID.TID 0000.0001)          No. starts:          20
(PID.TID 0000.0001)           No. stops:          20
(PID.TID 0000.0001)   Seconds in section "TRC_CORRECTION_STEP [FORWARD_STEP]":
(PID.TID 0000.0001)           User time:   1.0154874324798584
(PID.TID 0000.0001)         System time:   3.7849992513656616E-003
(PID.TID 0000.0001)     Wall clock time:   1.0199620723724365
(PID.TID 0000.0001)          No. starts:          20
(PID.TID 0000.0001)           No. stops:          20
(PID.TID 0000.0001)   Seconds in section "BLOCKING_EXCHANGES  [FORWARD_STEP]":
(PID.TID 0000.0001)           User time:  0.26629650592803955
(PID.TID 0000.0001)         System time:   0.0000000000000000
(PID.TID 0000.0001)     Wall clock time:  0.26679944992065430
(PID.TID 0000.0001)          No. starts:          20
(PID.TID 0000.0001)           No. stops:          20
(PID.TID 0000.0001)   Seconds in section "MONITOR             [FORWARD_STEP]":
(PID.TID 0000.0001)           User time:   3.0151106119155884
(PID.TID 0000.0001)         System time:   7.6030045747756958E-003
(PID.TID 0000.0001)     Wall clock time:   3.0269834995269775
(PID.TID 0000.0001)          No. starts:          20
(PID.TID 0000.0001)           No. stops:          20
(PID.TID 0000.0001)   Seconds in section "DO_THE_MODEL_IO     [FORWARD_STEP]":
(PID.TID 0000.0001)           User time:   7.0235133171081543E-002
(PID.TID 0000.0001)         System time:   1.5969008207321167E-002
(PID.TID 0000.0001)     Wall clock time:   8.6210966110229492E-002
(PID.TID 0000.0001)          No. starts:          20
(PID.TID 0000.0001)           No. stops:          20
(PID.TID 0000.0001)   Seconds in section "DO_WRITE_PICKUP     [FORWARD_STEP]":
(PID.TID 0000.0001)           User time:   7.0713758468627930E-002
(PID.TID 0000.0001)         System time:   2.7998000383377075E-002
(PID.TID 0000.0001)     Wall clock time:  0.10244870185852051
(PID.TID 0000.0001)          No. starts:          20
(PID.TID 0000.0001)           No. stops:          20
(PID.TID 0000.0001) // ======================================================
(PID.TID 0000.0001) // Tile <-> Tile communication statistics
(PID.TID 0000.0001) // ======================================================
(PID.TID 0000.0001) // o Tile number: 000001
(PID.TID 0000.0001) //         No. X exchanges =              0
(PID.TID 0000.0001) //            Max. X spins =              0
(PID.TID 0000.0001) //            Min. X spins =     1000000000
(PID.TID 0000.0001) //          Total. X spins =              0
(PID.TID 0000.0001) //            Avg. X spins =       0.00E+00
(PID.TID 0000.0001) //         No. Y exchanges =              0
(PID.TID 0000.0001) //            Max. Y spins =              0
(PID.TID 0000.0001) //            Min. Y spins =     1000000000
(PID.TID 0000.0001) //          Total. Y spins =              0
(PID.TID 0000.0001) //            Avg. Y spins =       0.00E+00
(PID.TID 0000.0001) // o Tile number: 000002
(PID.TID 0000.0001) //         No. X exchanges =              0
(PID.TID 0000.0001) //            Max. X spins =              0
(PID.TID 0000.0001) //            Min. X spins =     1000000000
(PID.TID 0000.0001) //          Total. X spins =              0
(PID.TID 0000.0001) //            Avg. X spins =       0.00E+00
(PID.TID 0000.0001) //         No. Y exchanges =              0
(PID.TID 0000.0001) //            Max. Y spins =              0
(PID.TID 0000.0001) //            Min. Y spins =     1000000000
(PID.TID 0000.0001) //          Total. Y spins =              0
(PID.TID 0000.0001) //            Avg. Y spins =       0.00E+00
(PID.TID 0000.0001) // o Tile number: 000003
(PID.TID 0000.0001) //         No. X exchanges =              0
(PID.TID 0000.0001) //            Max. X spins =              0
(PID.TID 0000.0001) //            Min. X spins =     1000000000
(PID.TID 0000.0001) //          Total. X spins =              0
(PID.TID 0000.0001) //            Avg. X spins =       0.00E+00
(PID.TID 0000.0001) //         No. Y exchanges =              0
(PID.TID 0000.0001) //            Max. Y spins =              0
(PID.TID 0000.0001) //            Min. Y spins =     1000000000
(PID.TID 0000.0001) //          Total. Y spins =              0
(PID.TID 0000.0001) //            Avg. Y spins =       0.00E+00
(PID.TID 0000.0001) // o Tile number: 000004
(PID.TID 0000.0001) //         No. X exchanges =              0
(PID.TID 0000.0001) //            Max. X spins =              0
(PID.TID 0000.0001) //            Min. X spins =     1000000000
(PID.TID 0000.0001) //          Total. X spins =              0
(PID.TID 0000.0001) //            Avg. X spins =       0.00E+00
(PID.TID 0000.0001) //         No. Y exchanges =              0
(PID.TID 0000.0001) //            Max. Y spins =              0
(PID.TID 0000.0001) //            Min. Y spins =     1000000000
(PID.TID 0000.0001) //          Total. Y spins =              0
(PID.TID 0000.0001) //            Avg. Y spins =       0.00E+00
(PID.TID 0000.0001) // o Tile number: 000005
(PID.TID 0000.0001) //         No. X exchanges =              0
(PID.TID 0000.0001) //            Max. X spins =              0
(PID.TID 0000.0001) //            Min. X spins =     1000000000
(PID.TID 0000.0001) //          Total. X spins =              0
(PID.TID 0000.0001) //            Avg. X spins =       0.00E+00
(PID.TID 0000.0001) //         No. Y exchanges =              0
(PID.TID 0000.0001) //            Max. Y spins =              0
(PID.TID 0000.0001) //            Min. Y spins =     1000000000
(PID.TID 0000.0001) //          Total. Y spins =              0
(PID.TID 0000.0001) //            Avg. Y spins =       0.00E+00
(PID.TID 0000.0001) // o Tile number: 000006
(PID.TID 0000.0001) //         No. X exchanges =              0
(PID.TID 0000.0001) //            Max. X spins =              0
(PID.TID 0000.0001) //            Min. X spins =     1000000000
(PID.TID 0000.0001) //          Total. X spins =              0
(PID.TID 0000.0001) //            Avg. X spins =       0.00E+00
(PID.TID 0000.0001) //         No. Y exchanges =              0
(PID.TID 0000.0001) //            Max. Y spins =              0
(PID.TID 0000.0001) //            Min. Y spins =     1000000000
(PID.TID 0000.0001) //          Total. Y spins =              0
(PID.TID 0000.0001) //            Avg. Y spins =       0.00E+00
(PID.TID 0000.0001) // o Tile number: 000007
(PID.TID 0000.0001) //         No. X exchanges =              0
(PID.TID 0000.0001) //            Max. X spins =              0
(PID.TID 0000.0001) //            Min. X spins =     1000000000
(PID.TID 0000.0001) //          Total. X spins =              0
(PID.TID 0000.0001) //            Avg. X spins =       0.00E+00
(PID.TID 0000.0001) //         No. Y exchanges =              0
(PID.TID 0000.0001) //            Max. Y spins =              0
(PID.TID 0000.0001) //            Min. Y spins =     1000000000
(PID.TID 0000.0001) //          Total. Y spins =              0
(PID.TID 0000.0001) //            Avg. Y spins =       0.00E+00
(PID.TID 0000.0001) // o Tile number: 000008
(PID.TID 0000.0001) //         No. X exchanges =              0
(PID.TID 0000.0001) //            Max. X spins =              0
(PID.TID 0000.0001) //            Min. X spins =     1000000000
(PID.TID 0000.0001) //          Total. X spins =              0
(PID.TID 0000.0001) //            Avg. X spins =       0.00E+00
(PID.TID 0000.0001) //         No. Y exchanges =              0
(PID.TID 0000.0001) //            Max. Y spins =              0
(PID.TID 0000.0001) //            Min. Y spins =     1000000000
(PID.TID 0000.0001) //          Total. Y spins =              0
(PID.TID 0000.0001) //            Avg. Y spins =       0.00E+00
(PID.TID 0000.0001) // o Thread number: 000001
(PID.TID 0000.0001) //            No. barriers =          28552
(PID.TID 0000.0001) //      Max. barrier spins =              1
(PID.TID 0000.0001) //      Min. barrier spins =              1
(PID.TID 0000.0001) //     Total barrier spins =          28552
(PID.TID 0000.0001) //      Avg. barrier spins =       1.00E+00
PROGRAM MAIN: Execution ended Normally
