(PID.TID 0000.0001) 
(PID.TID 0000.0001) // ======================================================
(PID.TID 0000.0001) //                      MITgcm UV
(PID.TID 0000.0001) //                      =========
(PID.TID 0000.0001) // ======================================================
(PID.TID 0000.0001) // execution environment starting up...
(PID.TID 0000.0001) 
(PID.TID 0000.0001) // MITgcmUV version:  checkpoint67k
(PID.TID 0000.0001) // Build user:        jmc
(PID.TID 0000.0001) // Build host:        baudelaire
(PID.TID 0000.0001) // Build date:        Fri Aug 30 13:43:23 EDT 2019
(PID.TID 0000.0001) 
(PID.TID 0000.0001) // =======================================================
(PID.TID 0000.0001) // Execution Environment parameter file "eedata"
(PID.TID 0000.0001) // =======================================================
(PID.TID 0000.0001) ># Example "eedata" file
(PID.TID 0000.0001) ># Lines beginning "#" are comments
(PID.TID 0000.0001) ># nTx - No. threads per process in X
(PID.TID 0000.0001) ># nTy - No. threads per process in Y
(PID.TID 0000.0001) > &EEPARMS
(PID.TID 0000.0001) > /
(PID.TID 0000.0001) ># Note: Some systems use & as the
(PID.TID 0000.0001) ># namelist terminator. Other systems
(PID.TID 0000.0001) ># use a / character (as shown here).
(PID.TID 0000.0001) 
(PID.TID 0000.0001) // =======================================================
(PID.TID 0000.0001) // Computational Grid Specification ( see files "SIZE.h" )
(PID.TID 0000.0001) //                                  ( and "eedata"       )
(PID.TID 0000.0001) // =======================================================
(PID.TID 0000.0001)      nPx =    1 ; /* No. processes in X */
(PID.TID 0000.0001)      nPy =    1 ; /* No. processes in Y */
(PID.TID 0000.0001)      nSx =    1 ; /* No. tiles in X per process */
(PID.TID 0000.0001)      nSy =    1 ; /* No. tiles in Y per process */
(PID.TID 0000.0001)      sNx =    3 ; /* Tile size in X */
(PID.TID 0000.0001)      sNy =  200 ; /* Tile size in Y */
(PID.TID 0000.0001)      OLx =    3 ; /* Tile overlap distance in X */
(PID.TID 0000.0001)      OLy =    3 ; /* Tile overlap distance in Y */
(PID.TID 0000.0001)      nTx =    1 ; /* No. threads in X per process */
(PID.TID 0000.0001)      nTy =    1 ; /* No. threads in Y per process */
(PID.TID 0000.0001)       Nr =   90 ; /* No. levels in the vertical   */
(PID.TID 0000.0001)       Nx =    3 ; /* Total domain size in X ( = nPx*nSx*sNx ) */
(PID.TID 0000.0001)       Ny =  200 ; /* Total domain size in Y ( = nPy*nSy*sNy ) */
(PID.TID 0000.0001)   nTiles =    1 ; /* Total no. tiles per process ( = nSx*nSy ) */
(PID.TID 0000.0001)   nProcs =    1 ; /* Total no. processes ( = nPx*nPy ) */
(PID.TID 0000.0001) nThreads =    1 ; /* Total no. threads per process ( = nTx*nTy ) */
(PID.TID 0000.0001) usingMPI =    F ; /* Flag used to control whether MPI is in use */
(PID.TID 0000.0001)                   /*  note: To execute a program with MPI calls */
(PID.TID 0000.0001)                   /*  it must be launched appropriately e.g     */
(PID.TID 0000.0001)                   /*  "mpirun -np 64 ......"                    */
(PID.TID 0000.0001) useCoupler=    F ;/* Flag used to control communications with   */
(PID.TID 0000.0001)                   /*  other model components, through a coupler */
(PID.TID 0000.0001) useNest2W_parent =    F ;/* Control 2-W Nesting comm */
(PID.TID 0000.0001) useNest2W_child  =    F ;/* Control 2-W Nesting comm */
(PID.TID 0000.0001) debugMode =    F ; /* print debug msg. (sequence of S/R calls)  */
(PID.TID 0000.0001) printMapIncludesZeros=    F ; /* print zeros in Std.Output maps */
(PID.TID 0000.0001) maxLengthPrt1D=   65 /* maxLength of 1D array printed to StdOut */
(PID.TID 0000.0001) 
(PID.TID 0000.0001) // ======================================================
(PID.TID 0000.0001) // Mapping of tiles to threads
(PID.TID 0000.0001) // ======================================================
(PID.TID 0000.0001) // -o- Thread   1, tiles (   1:   1,   1:   1)
(PID.TID 0000.0001) 
(PID.TID 0000.0001) // ======================================================
(PID.TID 0000.0001) // Tile <-> Tile connectvity table
(PID.TID 0000.0001) // ======================================================
(PID.TID 0000.0001) // Tile number: 000001 (process no. = 000000)
(PID.TID 0000.0001) //        WEST: Tile = 000001, Process = 000000, Comm = put
(PID.TID 0000.0001) //                bi = 000001, bj = 000001
(PID.TID 0000.0001) //        EAST: Tile = 000001, Process = 000000, Comm = put
(PID.TID 0000.0001) //                bi = 000001, bj = 000001
(PID.TID 0000.0001) //       SOUTH: Tile = 000001, Process = 000000, Comm = put
(PID.TID 0000.0001) //                bi = 000001, bj = 000001
(PID.TID 0000.0001) //       NORTH: Tile = 000001, Process = 000000, Comm = put
(PID.TID 0000.0001) //                bi = 000001, bj = 000001
(PID.TID 0000.0001) 
(PID.TID 0000.0001)  INI_PARMS: opening model parameter file "data"
(PID.TID 0000.0001)  OPEN_COPY_DATA_FILE: opening file data
(PID.TID 0000.0001) // =======================================================
(PID.TID 0000.0001) // Parameter file "data"
(PID.TID 0000.0001) // =======================================================
(PID.TID 0000.0001) >#:::====================
(PID.TID 0000.0001) ># | Model parameters |
(PID.TID 0000.0001) ># ====================
(PID.TID 0000.0001) >#
(PID.TID 0000.0001) ># Continuous equation parameters
(PID.TID 0000.0001) > &PARM01
(PID.TID 0000.0001) > Tref = 90*-1.9,
(PID.TID 0000.0001) > Sref = 90*34.4,
(PID.TID 0000.0001) > viscAr=1.E-3,
(PID.TID 0000.0001) > viscAhGrid=0.2,
(PID.TID 0000.0001) > viscA4Grid=0.02,
(PID.TID 0000.0001) > no_slip_sides=.FALSE.,
(PID.TID 0000.0001) > no_slip_bottom=.FALSE.,
(PID.TID 0000.0001) > diffKhT= 100.0,
(PID.TID 0000.0001) > diffKrT=5.E-5,
(PID.TID 0000.0001) > diffKhS= 100.0,
(PID.TID 0000.0001) > diffKrS=5.E-5,
(PID.TID 0000.0001) > bottomDragQuadratic=2.5E-3,
(PID.TID 0000.0001) > staggerTimestep = .TRUE.,
(PID.TID 0000.0001) > tempAdvScheme=30,
(PID.TID 0000.0001) > saltAdvScheme=30,
(PID.TID 0000.0001) > vectorInvariantMomentum = .TRUE.,
(PID.TID 0000.0001) >### momImplVertAdv=.TRUE.,
(PID.TID 0000.0001) > tempImplVertAdv=.TRUE.,
(PID.TID 0000.0001) > saltImplVertAdv=.TRUE.,
(PID.TID 0000.0001) > eosType='JMD95Z',
(PID.TID 0000.0001) > HeatCapacity_Cp= 3974.0,
(PID.TID 0000.0001) > rhoConst=1000.,
(PID.TID 0000.0001) > rhoNil=1000.,
(PID.TID 0000.0001) > gravity=9.81,
(PID.TID 0000.0001) > gBaro=9.81,
(PID.TID 0000.0001) >#ivdc_kappa = 0.005.,
(PID.TID 0000.0001) > implicitDiffusion = .TRUE.,
(PID.TID 0000.0001) > implicitViscosity = .TRUE.,
(PID.TID 0000.0001) > implicitFreeSurface=.TRUE.,
(PID.TID 0000.0001) > useRealFreshWaterFlux= .TRUE.,
(PID.TID 0000.0001) > exactConserv=.TRUE.,
(PID.TID 0000.0001) > nonlinFreeSurf=4,
(PID.TID 0000.0001) > hFacInf=0.2,
(PID.TID 0000.0001) > hFacSup=2.0,
(PID.TID 0000.0001) > hFacMin=0.2,
(PID.TID 0000.0001) >#allowFreezing = .TRUE.,
(PID.TID 0000.0001) > useCoriolis=.FALSE.,
(PID.TID 0000.0001) > selectCoriMap = 0,
(PID.TID 0000.0001) > f0 = 0.0,
(PID.TID 0000.0001) >#-
(PID.TID 0000.0001) > readBinaryPrec=64,
(PID.TID 0000.0001) >#writeBinaryPrec=64,
(PID.TID 0000.0001) > useSingleCpuIO=.TRUE.,
(PID.TID 0000.0001) > globalFiles=.TRUE.,
(PID.TID 0000.0001) > debuglevel = 1,
(PID.TID 0000.0001) > /
(PID.TID 0000.0001) >
(PID.TID 0000.0001) ># Elliptic solver parameters
(PID.TID 0000.0001) > &PARM02
(PID.TID 0000.0001) > cg2dMaxIters=300,
(PID.TID 0000.0001) > cg2dTargetResidual=1.E-11,
(PID.TID 0000.0001) > /
(PID.TID 0000.0001) >
(PID.TID 0000.0001) >#Time stepping parameters
(PID.TID 0000.0001) > &PARM03
(PID.TID 0000.0001) > nIter0=11395,
(PID.TID 0000.0001) > nTimeSteps=20,
(PID.TID 0000.0001) > deltaT= 300.,
(PID.TID 0000.0001) > forcing_In_AB=.FALSE.,
(PID.TID 0000.0001) > abEps=0.1,
(PID.TID 0000.0001) > cAdjFreq = -1.,
(PID.TID 0000.0001) > pChkptFreq=31104000.,
(PID.TID 0000.0001) > chkptFreq=  7776000.,
(PID.TID 0000.0001) > dumpFreq = 3000.,
(PID.TID 0000.0001) > monitorSelect=1,
(PID.TID 0000.0001) > monitorFreq= 1.,
(PID.TID 0000.0001) > /
(PID.TID 0000.0001) >
(PID.TID 0000.0001) ># Gridding parameters
(PID.TID 0000.0001) > &PARM04
(PID.TID 0000.0001) > useMin4hFacEdges=.TRUE.,
(PID.TID 0000.0001) > usingSphericalPolarGrid=.TRUE.,
(PID.TID 0000.0001) > delR=90*10.,
(PID.TID 0000.0001) > delX=3*0.125,
(PID.TID 0000.0001) > delY=200*0.0078125,
(PID.TID 0000.0001) ># delYFile='dlat.bin',
(PID.TID 0000.0001) > xgOrigin = -105.5,
(PID.TID 0000.0001) > ygOrigin =  -75.4457,
(PID.TID 0000.0001) > /
(PID.TID 0000.0001) >
(PID.TID 0000.0001) ># Input datasets
(PID.TID 0000.0001) > &PARM05
(PID.TID 0000.0001) > bathyFile='bathy.box',
(PID.TID 0000.0001) > hydrogThetaFile='theta.init',	
(PID.TID 0000.0001) > hydrogSaltFile='salt.init',
(PID.TID 0000.0001) > pSurfInitFile='etainit.round.bin',
(PID.TID 0000.0001) > /
(PID.TID 0000.0001) 
(PID.TID 0000.0001)  INI_PARMS ; starts to read PARM01
(PID.TID 0000.0001)  INI_PARMS ; read PARM01 : OK
(PID.TID 0000.0001)  INI_PARMS ; starts to read PARM02
(PID.TID 0000.0001)  INI_PARMS ; read PARM02 : OK
(PID.TID 0000.0001)  INI_PARMS ; starts to read PARM03
(PID.TID 0000.0001)  INI_PARMS ; read PARM03 : OK
(PID.TID 0000.0001)  INI_PARMS ; starts to read PARM04
(PID.TID 0000.0001)  INI_PARMS ; read PARM04 : OK
(PID.TID 0000.0001)  INI_PARMS ; starts to read PARM05
(PID.TID 0000.0001)  INI_PARMS ; read PARM05 : OK
(PID.TID 0000.0001)  INI_PARMS: finished reading file "data"
(PID.TID 0000.0001)  PACKAGES_BOOT: opening data.pkg
(PID.TID 0000.0001)  OPEN_COPY_DATA_FILE: opening file data.pkg
(PID.TID 0000.0001) // =======================================================
(PID.TID 0000.0001) // Parameter file "data.pkg"
(PID.TID 0000.0001) // =======================================================
(PID.TID 0000.0001) ># Packages
(PID.TID 0000.0001) > &PACKAGES
(PID.TID 0000.0001) > useOBCS      = .TRUE.,
(PID.TID 0000.0001) > useShelfIce  = .TRUE.,
(PID.TID 0000.0001) > useStreamIce = .TRUE.,
(PID.TID 0000.0001) > useDiagnostics=.TRUE.,
(PID.TID 0000.0001) > /
(PID.TID 0000.0001) 
(PID.TID 0000.0001)  PACKAGES_BOOT: finished reading data.pkg
(PID.TID 0000.0001)  PACKAGES_BOOT: On/Off package Summary
 --------  pkgs with a standard "usePKG" On/Off switch in "data.pkg":  --------
 pkg/obcs                 compiled   and   used ( useOBCS                  = T )
 pkg/shelfice             compiled   and   used ( useShelfIce              = T )
 pkg/streamice            compiled   and   used ( useStreamIce             = T )
 pkg/diagnostics          compiled   and   used ( useDiagnostics           = T )
 -------- pkgs without standard "usePKG" On/Off switch in "data.pkg":  --------
 pkg/generic_advdiff      compiled   and   used ( useGAD                   = T )
 pkg/mom_common           compiled   and   used ( momStepping              = T )
 pkg/mom_vecinv           compiled   and   used ( +vectorInvariantMomentum = T )
 pkg/mom_fluxform         compiled but not used ( & not vectorInvariantMom = F )
 pkg/monitor              compiled   and   used ( monitorFreq > 0.         = T )
 pkg/debug                compiled but not used ( debugMode                = F )
 pkg/rw                   compiled   and   used
 pkg/mdsio                compiled   and   used
(PID.TID 0000.0001)  PACKAGES_BOOT: End of package Summary
(PID.TID 0000.0001) 
(PID.TID 0000.0001)  OBCS_READPARMS: opening data.obcs
(PID.TID 0000.0001)  OPEN_COPY_DATA_FILE: opening file data.obcs
(PID.TID 0000.0001) // =======================================================
(PID.TID 0000.0001) // Parameter file "data.obcs"
(PID.TID 0000.0001) // =======================================================
(PID.TID 0000.0001) ># Open-boundaries
(PID.TID 0000.0001) > &OBCS_PARM01
(PID.TID 0000.0001) > OB_Jnorth=3*200,
(PID.TID 0000.0001) > useOBCSprescribe=.true.,
(PID.TID 0000.0001) > useOBCSsponge=.false.,
(PID.TID 0000.0001) ># OBWuFile='uvel.obw',
(PID.TID 0000.0001) > OBNvFile='vvel.obw',
(PID.TID 0000.0001) > OBNtFile='theta.obw',
(PID.TID 0000.0001) > OBNsFile='salt.obw',
(PID.TID 0000.0001) > useOrlanskiNorth=.FALSE.,
(PID.TID 0000.0001) > useOBCSbalance=.TRUE.,
(PID.TID 0000.0001) > OBCS_balanceFacN=1.,
(PID.TID 0000.0001) > /
(PID.TID 0000.0001) >
(PID.TID 0000.0001) ># Orlanski parameters
(PID.TID 0000.0001) > &OBCS_PARM02
(PID.TID 0000.0001) >#Cmax=0.45,
(PID.TID 0000.0001) >#cVelTimeScale=1000.,
(PID.TID 0000.0001) > /
(PID.TID 0000.0001) >
(PID.TID 0000.0001) ># Sponge layer parameters
(PID.TID 0000.0001) > &OBCS_PARM03
(PID.TID 0000.0001) > spongeThickness = 20,
(PID.TID 0000.0001) > Vrelaxobcsbound = 864000.,
(PID.TID 0000.0001) > Urelaxobcsbound = 864000.,
(PID.TID 0000.0001) > /
(PID.TID 0000.0001) 
(PID.TID 0000.0001)  OBCS_READPARMS: finished reading data.obcs
(PID.TID 0000.0001)  OB_indexUnset = /* unset OB index value (i.e. no OB) */
(PID.TID 0000.0001)                       0
(PID.TID 0000.0001)     ;
(PID.TID 0000.0001)  Northern OB global indices : OB_Jnorth =
(PID.TID 0000.0001)     3 @      200                            /* I =  1:  3 */
(PID.TID 0000.0001)  Southern OB global indices : OB_Jsouth =
(PID.TID 0000.0001)     3 @        0                            /* I =  1:  3 */
(PID.TID 0000.0001)  Eastern  OB global indices : OB_Ieast =
(PID.TID 0000.0001)   200 @        0                            /* J =  1:200 */
(PID.TID 0000.0001)  Western  OB global indices : OB_Iwest =
(PID.TID 0000.0001)   200 @        0                            /* J =  1:200 */
(PID.TID 0000.0001) 
(PID.TID 0000.0001) STREAMICE_READPARMS: opening data.streamice
(PID.TID 0000.0001)  OPEN_COPY_DATA_FILE: opening file data.streamice
(PID.TID 0000.0001) // =======================================================
(PID.TID 0000.0001) // Parameter file "data.streamice"
(PID.TID 0000.0001) // =======================================================
(PID.TID 0000.0001) ># ====================================
(PID.TID 0000.0001) ># | Parameters for STREAMICE package |
(PID.TID 0000.0001) ># ====================================
(PID.TID 0000.0001) > &STREAMICE_PARM01
(PID.TID 0000.0001) > streamice_maxnliter_cpl = 1,
(PID.TID 0000.0001) > streamice_maxcgiter_cpl = 700,
(PID.TID 0000.0001) > STREAMICE_allow_cpl=.true.,
(PID.TID 0000.0001) > streamice_vel_update = 43200.,
(PID.TID 0000.0001) > streamice_density = 917.,
(PID.TID 0000.0001) > streamice_density_ocean_avg = 1028.,
(PID.TID 0000.0001) > B_glen_isothermal = 700.,
(PID.TID 0000.0001) > C_basal_fric_const = 5.,
(PID.TID 0000.0001) > n_glen = 3.0,
(PID.TID 0000.0001) > n_basal_friction = 1.,
(PID.TID 0000.0001) > streamice_diagnostic_only=.false.,
(PID.TID 0000.0001) > eps_glen_min = 1.0e-12,
(PID.TID 0000.0001) > eps_u_min = 1.0e-12,
(PID.TID 0000.0001) > streamice_cg_tol = 1.0e-6,
(PID.TID 0000.0001) > STREAMICE_lower_cg_tol = .true.,
(PID.TID 0000.0001) > streamice_nonlin_tol = .000001,
(PID.TID 0000.0001) > streamice_nonlin_tol_fp = .00000001,
(PID.TID 0000.0001) > streamice_max_cg_iter = 700,
(PID.TID 0000.0001) > streamice_max_nl_iter = 70,
(PID.TID 0000.0001) > STREAMICE_calve_to_mask = .false.,
(PID.TID 0000.0001) > streamice_CFL_factor = 0.5,
(PID.TID 0000.0001) > STREAMICE_dump_mdsio = .true.,
(PID.TID 0000.0001) > streamice_bg_surf_slope_x = 0.,
(PID.TID 0000.0001) > STREAMICEthickInit='FILE',
(PID.TID 0000.0001) > STREAMICEthickFile='h0.bin',
(PID.TID 0000.0001) > STREAMICEtopogFile='bathy.box',
(PID.TID 0000.0001) > STREAMICEuFaceBdryFile = 'ufacemask3.box',
(PID.TID 0000.0001) > STREAMICEvFaceBdryFile = 'vfacemask3.box',
(PID.TID 0000.0001) ># STREAMICEvMassFluxFile='vmassflux3.box',
(PID.TID 0000.0001) > STREAMICEvDirichValsFile='vdirich.box',
(PID.TID 0000.0001) > STREAMICEhmaskFile = 'hmask3.box',
(PID.TID 0000.0001) > STREAMICEHBCyFile = 'HBCy.box',
(PID.TID 0000.0001) > STREAMICEbasalTracConfig='UNIFORM',
(PID.TID 0000.0001) > STREAMICEGlenConstConfig='UNIFORM',
(PID.TID 0000.0001) > STREAMICE_chkfixedptconvergence=.true.,
(PID.TID 0000.0001) > STREAMICE_chkresidconvergence=.false.,
(PID.TID 0000.0001) > streamice_buttr_width=200.e3,
(PID.TID 0000.0001) > useStreamiceFlowlineButtr=.true.,
(PID.TID 0000.0001) > /
(PID.TID 0000.0001) >
(PID.TID 0000.0001) > &STREAMICE_PARM02
(PID.TID 0000.0001) > shelf_max_draft = 1300.0,
(PID.TID 0000.0001) > shelf_min_draft = 300.0,
(PID.TID 0000.0001) > shelf_edge_pos = 70.0e3,
(PID.TID 0000.0001) > shelf_slope_scale = 62.0e3,
(PID.TID 0000.0001) > shelf_flat_width = 20.0e3,
(PID.TID 0000.0001) > /
(PID.TID 0000.0001) >
(PID.TID 0000.0001) ># &STREAMICE_PARMPETSC
(PID.TID 0000.0001) ># PETSC_SOLVER_TYPE = 'CG',
(PID.TID 0000.0001) ># PETSC_PRECOND_TYPE = 'GAMG',
(PID.TID 0000.0001) ># &
(PID.TID 0000.0001) >
(PID.TID 0000.0001) > &STREAMICE_PARM03
(PID.TID 0000.0001) > min_x_noflow_north = -200.0,
(PID.TID 0000.0001) > max_x_noflow_north = 0.0,
(PID.TID 0000.0001) > min_x_noflow_south = -200.0,
(PID.TID 0000.0001) > max_x_noflow_south = 0.0,
(PID.TID 0000.0001) > min_y_noflow_WEST = 0.0,
(PID.TID 0000.0001) > max_y_noflow_WEST = 0.0,
(PID.TID 0000.0001) > min_y_noflow_EAST = -180.0,
(PID.TID 0000.0001) > max_y_noflow_EAST = 0.0,
(PID.TID 0000.0001) > min_x_noStress_NORTH = 0.0e3,
(PID.TID 0000.0001) > max_x_noStress_NORTH = 0.0e3,
(PID.TID 0000.0001) > min_x_noStress_SOUTH = 0.0e3,
(PID.TID 0000.0001) > max_x_noStress_SOUTH = 0.0e3,
(PID.TID 0000.0001) > min_y_noStress_WEST = -1.0,
(PID.TID 0000.0001) > max_y_noStress_WEST = -1.0,
(PID.TID 0000.0001) > min_y_noStress_EAST = -1.0,
(PID.TID 0000.0001) > max_y_noStress_EAST = -1.0,
(PID.TID 0000.0001) > min_x_FluxBdry_NORTH = -1.0,
(PID.TID 0000.0001) > max_x_FluxBdry_NORTH = -1.0,
(PID.TID 0000.0001) > min_x_FluxBdry_SOUTH = -1.0,
(PID.TID 0000.0001) > max_x_FluxBdry_SOUTH = -1.0,
(PID.TID 0000.0001) > min_y_FluxBdry_WEST = 0.0,
(PID.TID 0000.0001) > max_y_FluxBdry_WEST = 0.0,
(PID.TID 0000.0001) > min_y_FluxBdry_EAST = -180.0,
(PID.TID 0000.0001) > max_y_FluxBdry_EAST = 0.0,
(PID.TID 0000.0001) > min_x_Dirich_NORTH = -1.0,
(PID.TID 0000.0001) > max_x_Dirich_NORTH = -1.0,
(PID.TID 0000.0001) > min_x_Dirich_SOUTH = -1.0,
(PID.TID 0000.0001) > max_x_Dirich_SOUTH = -1.0,
(PID.TID 0000.0001) > min_y_Dirich_WEST = -1.0,
(PID.TID 0000.0001) > max_y_Dirich_WEST = -1.0,
(PID.TID 0000.0001) > min_y_Dirich_EAST = -1.0,
(PID.TID 0000.0001) > max_y_Dirich_EAST = -1.0,
(PID.TID 0000.0001) > min_x_CFBC_NORTH = -1.0,
(PID.TID 0000.0001) > max_x_CFBC_NORTH = -1.0,
(PID.TID 0000.0001) > min_x_CFBC_SOUTH = -1.0,
(PID.TID 0000.0001) > max_x_CFBC_SOUTH = -1.0,
(PID.TID 0000.0001) > min_y_CFBC_WEST = -180.0,
(PID.TID 0000.0001) > max_y_CFBC_WEST = 0.0,
(PID.TID 0000.0001) > min_y_CFBC_EAST = 0.0,
(PID.TID 0000.0001) > max_y_CFBC_EAST = 0.0e3,
(PID.TID 0000.0001) > flux_bdry_val_EAST =1.5e6,
(PID.TID 0000.0001) > STREAMICE_NS_periodic = .false.,
(PID.TID 0000.0001) > STREAMICE_EW_periodic = .false.,
(PID.TID 0000.0001) > /
(PID.TID 0000.0001) 
(PID.TID 0000.0001) STREAMICE_READPARMS: read first param block
(PID.TID 0000.0001) STREAMICE_READPARMS: read third param block
(PID.TID 0000.0001)  SHELFICE_READPARMS: opening data.shelfice
(PID.TID 0000.0001)  OPEN_COPY_DATA_FILE: opening file data.shelfice
(PID.TID 0000.0001) // =======================================================
(PID.TID 0000.0001) // Parameter file "data.shelfice"
(PID.TID 0000.0001) // =======================================================
(PID.TID 0000.0001) ># ===================================
(PID.TID 0000.0001) ># | Parameters for SHELFICE package |
(PID.TID 0000.0001) ># ===================================
(PID.TID 0000.0001) > &SHELFICE_PARM01
(PID.TID 0000.0001) > SHELFICEwriteState = .true.,
(PID.TID 0000.0001) > SHELFICEconserve = .true.,
(PID.TID 0000.0001) > SHELFICEboundaryLayer = .true.,
(PID.TID 0000.0001) > SHELFICEtopoFile='shelftopo.round.bin',
(PID.TID 0000.0001) > SHELFICErealFWflux =.true.,
(PID.TID 0000.0001) > SHELFICEmassFile = 'shelficemassinit.bin',
(PID.TID 0000.0001) > SHELFICEuseGammaFrict = .true.,
(PID.TID 0000.0001) > SHELFICEDragQuadratic = 0.0075,
(PID.TID 0000.0001) > shiCdrag = 0.0075,
(PID.TID 0000.0001) ># SHELFICEheatTransCoeff = 0.,
(PID.TID 0000.0001) ># SHELFICEsaltTransCoeff = 0.,
(PID.TID 0000.0001) > SHELFICEMassStepping = .true.,
(PID.TID 0000.0001) > SHELFICERemeshFrequency = 3000.0,
(PID.TID 0000.0001) > SHELFICESplitThreshold =1.25,
(PID.TID 0000.0001) > SHELFICEMergeThreshold =0.24,
(PID.TID 0000.0001) ># conserve_ssh = .true.,
(PID.TID 0000.0001) ># shelfice_dig_ice = .false.
(PID.TID 0000.0001) ># shelfice_massmin_trueDens=.false.
(PID.TID 0000.0001) > /
(PID.TID 0000.0001) 
(PID.TID 0000.0001)  SHELFICE_READPARMS: finished reading data.shelfice
(PID.TID 0000.0001)  DIAGNOSTICS_READPARMS: opening data.diagnostics
(PID.TID 0000.0001)  OPEN_COPY_DATA_FILE: opening file data.diagnostics
(PID.TID 0000.0001) // =======================================================
(PID.TID 0000.0001) // Parameter file "data.diagnostics"
(PID.TID 0000.0001) // =======================================================
(PID.TID 0000.0001) ># Diagnostic Package Choices
(PID.TID 0000.0001) >#-----------------
(PID.TID 0000.0001) ># for each output-stream:
(PID.TID 0000.0001) >#  filename(n) : prefix of the output file name (only 8.c long) for outp.stream n
(PID.TID 0000.0001) >#  frequency(n):< 0 : write snap-shot output every |frequency| seconds
(PID.TID 0000.0001) >#               > 0 : write time-average output every frequency seconds
(PID.TID 0000.0001) >#  timePhase(n)     : write at time = timePhase + multiple of |frequency|
(PID.TID 0000.0001) >#  averagingFreq(n) : frequency (in s) for periodic averaging interval
(PID.TID 0000.0001) >#  averagingPhase(n): phase     (in s) for periodic averaging interval
(PID.TID 0000.0001) >#  repeatCycle(n)   : number of averaging intervals in 1 cycle
(PID.TID 0000.0001) >#  levels(:,n) : list of levels to write to file (Notes: declared as REAL)
(PID.TID 0000.0001) >#                 when this entry is missing, select all common levels of this list
(PID.TID 0000.0001) >#  fields(:,n) : list of diagnostics fields (8.c) (see "available_diagnostics.log"
(PID.TID 0000.0001) >#                 file for the list of all available diag. in this particular config)
(PID.TID 0000.0001) >#-----------------
(PID.TID 0000.0001) > &DIAGNOSTICS_LIST
(PID.TID 0000.0001) ># diag_mnc     = .FALSE.,
(PID.TID 0000.0001) ># dumpAtLast   = .TRUE.,
(PID.TID 0000.0001) >  fields(1:13,1) =
(PID.TID 0000.0001) >#       'ETAN    ','oceTAUX ','oceTAUY ',
(PID.TID 0000.0001) >#                 'oceQnet ','oceFWflx','MXLDEPTH',
(PID.TID 0000.0001) >                'SHIfwFlx','SHIhtFlx','SHIgammT','SHIgammS',
(PID.TID 0000.0001) >                'SHI_mass','SHIRshel',
(PID.TID 0000.0001) >                 'SI_Uvel ','SI_Vvel ','SI_Thick','SI_hmask',
(PID.TID 0000.0001) >                 'SI_float','SHIuStar'
(PID.TID 0000.0001) >#                 'SHIuLocM','SHIvLocM','SHIwLocM','SHItLocM','SHIsLocM',
(PID.TID 0000.0001) >#		 'SHItLocB','SHIsLocB'
(PID.TID 0000.0001) >#                'SHIForcT','SHIForcS',
(PID.TID 0000.0001) >#                'surForcT','surForcS','TFLUX   ','SFLUX   ','oceFreez',
(PID.TID 0000.0001) >#                 'TRELAX  ','SRELAX  ',
(PID.TID 0000.0001) >#                'GM_VisbK',
(PID.TID 0000.0001) >#  fields(1,1)='ETAN'
(PID.TID 0000.0001) >   filename(1) = 'surfDiag',
(PID.TID 0000.0001) >  frequency(1) =  300,
(PID.TID 0000.0001) >#   fields(1:7,2) = 'UVEL    ','VVEL    ','WVEL    ',
(PID.TID 0000.0001) >#                 'THETA   ','SALT    ','RHOAnoma', 'CONVADJ',
(PID.TID 0000.0001) >#   filename(2) = 'dynDiag',
(PID.TID 0000.0001) >#  frequency(2) =  2592000.,
(PID.TID 0000.0001) >#   fields(1:5,3) = 'SI_Uvel ','SI_Vvel ','SI_Thick','SI_hmask','SI_float',
(PID.TID 0000.0001) >#   filename(3) = 'streamice',
(PID.TID 0000.0001) >#  frequency(3) =  2592000.,
(PID.TID 0000.0001) >#  fields(1,3) = 'EXFpreci','EXFuwind','EXFvwind','EXFtaux ','EXFtauy ',
(PID.TID 0000.0001) >#                'EXFlwdn ','EXFswdn ','EXFatemp','EXFaqh  ','EXFpress',
(PID.TID 0000.0001) >#                'GM_PsiX ','GM_PsiY ',
(PID.TID 0000.0001) >#                'GM_Kwx  ','GM_Kwy  ','GM_Kwz  ',
(PID.TID 0000.0001) >#                'GM_Kux  ','GM_Kvy  ',
(PID.TID 0000.0001) >#                'GM_Kuz  ','GM_Kvz  ',
(PID.TID 0000.0001) >#- disable this output list by commenting out the file name
(PID.TID 0000.0001) >#  filename(3) = 'diagsEXF',
(PID.TID 0000.0001) ># frequency(3) = 1.,
(PID.TID 0000.0001) >#  fields(1,4) = 'ADVx_TH ','ADVy_TH ','ADVr_TH ',
(PID.TID 0000.0001) >#                'DIFx_TH ','DIFy_TH ','DFrE_TH ',
(PID.TID 0000.0001) >#                'DFrI_TH ',
(PID.TID 0000.0001) >#                'ADVx_SLT',
(PID.TID 0000.0001) >#  filename(4) = 'flxDiag',
(PID.TID 0000.0001) ># frequency(4) = 1296000.,
(PID.TID 0000.0001) > /
(PID.TID 0000.0001) >
(PID.TID 0000.0001) ># Parameter for Diagnostics of per level statistics:
(PID.TID 0000.0001) >#-----------------
(PID.TID 0000.0001) ># for each output-stream:
(PID.TID 0000.0001) >#  stat_fname(n) : prefix of the output file name (only 8.c long) for outp.stream n
(PID.TID 0000.0001) >#  stat_freq(n):< 0 : write snap-shot output every |stat_freq| seconds
(PID.TID 0000.0001) >#               > 0 : write time-average output every stat_freq seconds
(PID.TID 0000.0001) >#  stat_phase(n)    : write at time = stat_phase + multiple of |stat_freq|
(PID.TID 0000.0001) >#  stat_region(:,n) : list of "regions" (default: 1 region only=global)
(PID.TID 0000.0001) >#  stat_fields(:,n) : list of diagnostics fields (8.c) (see "available_diagnostics.log"
(PID.TID 0000.0001) >#                 file for the list of all available diag. in this particular config)
(PID.TID 0000.0001) >#-----------------
(PID.TID 0000.0001) > &DIAG_STATIS_PARMS
(PID.TID 0000.0001) >#- regional mask: 3 lat. band: 1 : y <= -24 ; 2 : -24<y<24 ; 3 : 24 <= y
(PID.TID 0000.0001) ># diagSt_regMaskFile='regMask_lat24.bin',
(PID.TID 0000.0001) ># nSetRegMskFile=1,
(PID.TID 0000.0001) ># set_regMask(1)= 1,  1,  1,
(PID.TID 0000.0001) ># val_regMask(1)= 1., 2., 3.,
(PID.TID 0000.0001) >#---
(PID.TID 0000.0001) >#stat_fields(1,1)= 'ETAN    ','UVEL    ','VVEL    ','WVEL    ',
(PID.TID 0000.0001) >#                  'THETA   ','SALT    ','SIarea  ','SIheff  ',
(PID.TID 0000.0001) >#   stat_fname(1)= 'dynStDiag',
(PID.TID 0000.0001) >#    stat_freq(1)= 864000.,
(PID.TID 0000.0001) > /
(PID.TID 0000.0001) >
(PID.TID 0000.0001) 
(PID.TID 0000.0001) S/R DIAGNOSTICS_READPARMS, read namelist "diagnostics_list": start
(PID.TID 0000.0001) S/R DIAGNOSTICS_READPARMS, read namelist "diagnostics_list": OK
(PID.TID 0000.0001) S/R DIAGNOSTICS_READPARMS, read namelist "DIAG_STATIS_PARMS": start
(PID.TID 0000.0001) S/R DIAGNOSTICS_READPARMS, read namelist "DIAG_STATIS_PARMS": OK
(PID.TID 0000.0001)  DIAGNOSTICS_READPARMS: global parameter summary:
(PID.TID 0000.0001)  dumpAtLast = /* always write time-ave diags at the end */
(PID.TID 0000.0001)                   F
(PID.TID 0000.0001)     ;
(PID.TID 0000.0001)  diag_mnc =   /* write NetCDF output files */
(PID.TID 0000.0001)                   F
(PID.TID 0000.0001)     ;
(PID.TID 0000.0001)  useMissingValue = /* put MissingValue where mask = 0 */
(PID.TID 0000.0001)                   F
(PID.TID 0000.0001)     ;
(PID.TID 0000.0001)  diagCG_maxIters = /* max number of iters in diag_cg2d */
(PID.TID 0000.0001)                     300
(PID.TID 0000.0001)     ;
(PID.TID 0000.0001)  diagCG_resTarget = /* residual target for diag_cg2d */
(PID.TID 0000.0001)                 9.999999999999999E-12
(PID.TID 0000.0001)     ;
(PID.TID 0000.0001)  diagCG_pcOffDFac = /* preconditioner off-diagonal factor */
(PID.TID 0000.0001)                 9.611687812379854E-01
(PID.TID 0000.0001)     ;
(PID.TID 0000.0001) -----------------------------------------------------
(PID.TID 0000.0001)  DIAGNOSTICS_READPARMS: active diagnostics summary:
(PID.TID 0000.0001) -----------------------------------------------------
(PID.TID 0000.0001) Creating Output Stream: surfDiag
(PID.TID 0000.0001) Output Frequency:        300.000000 ; Phase:           0.000000
(PID.TID 0000.0001)  Averaging Freq.:        300.000000 , Phase:           0.000000 , Cycle:   1
(PID.TID 0000.0001)  missing value: -9.990000000000E+02
(PID.TID 0000.0001)  Levels:    will be set later
(PID.TID 0000.0001)  Fields:    SHIfwFlx SHIhtFlx SHIgammT SHIgammS SHI_mass SHIRshel SI_Uvel  SI_Vvel  SI_Thick SI_hmask
(PID.TID 0000.0001)  Fields:    SI_float SHIuStar
(PID.TID 0000.0001) -----------------------------------------------------
(PID.TID 0000.0001)  DIAGNOSTICS_READPARMS: statistics diags. summary:
(PID.TID 0000.0001) -----------------------------------------------------
(PID.TID 0000.0001) 
(PID.TID 0000.0001) SET_PARMS: done
(PID.TID 0000.0001) Enter INI_VERTICAL_GRID: setInterFDr=    T ; setCenterDr=    F
(PID.TID 0000.0001) %MON XC_max                       =  -1.0518750000000E+02
(PID.TID 0000.0001) %MON XC_min                       =  -1.0543750000000E+02
(PID.TID 0000.0001) %MON XC_mean                      =  -1.0531250000000E+02
(PID.TID 0000.0001) %MON XC_sd                        =   1.0206207261597E-01
(PID.TID 0000.0001) %MON XG_max                       =  -1.0525000000000E+02
(PID.TID 0000.0001) %MON XG_min                       =  -1.0550000000000E+02
(PID.TID 0000.0001) %MON XG_mean                      =  -1.0537500000000E+02
(PID.TID 0000.0001) %MON XG_sd                        =   1.0206207261597E-01
(PID.TID 0000.0001) %MON DXC_max                      =   3.8568974527819E+03
(PID.TID 0000.0001) %MON DXC_min                      =   3.4932435587116E+03
(PID.TID 0000.0001) %MON DXC_mean                     =   3.6752948781653E+03
(PID.TID 0000.0001) %MON DXC_sd                       =   1.0550536922206E+02
(PID.TID 0000.0001) %MON DXF_max                      =   3.8568974527819E+03
(PID.TID 0000.0001) %MON DXF_min                      =   3.4932435587116E+03
(PID.TID 0000.0001) %MON DXF_mean                     =   3.6752948781653E+03
(PID.TID 0000.0001) %MON DXF_sd                       =   1.0550536922206E+02
(PID.TID 0000.0001) %MON DXG_max                      =   3.8559871961701E+03
(PID.TID 0000.0001) %MON DXG_min                      =   3.4923265038643E+03
(PID.TID 0000.0001) %MON DXG_mean                     =   3.6743811666547E+03
(PID.TID 0000.0001) %MON DXG_sd                       =   1.0550734153918E+02
(PID.TID 0000.0001) %MON DXV_max                      =   3.8559871961701E+03
(PID.TID 0000.0001) %MON DXV_min                      =   3.4923265038643E+03
(PID.TID 0000.0001) %MON DXV_mean                     =   3.6743811666547E+03
(PID.TID 0000.0001) %MON DXV_sd                       =   1.0550734153918E+02
(PID.TID 0000.0001) %MON YC_max                       =  -7.3887106250000E+01
(PID.TID 0000.0001) %MON YC_min                       =  -7.5441793750000E+01
(PID.TID 0000.0001) %MON YC_mean                      =  -7.4664449999999E+01
(PID.TID 0000.0001) %MON YC_sd                        =   4.5104925958293E-01
(PID.TID 0000.0001) %MON YG_max                       =  -7.3891012500000E+01
(PID.TID 0000.0001) %MON YG_min                       =  -7.5445700000000E+01
(PID.TID 0000.0001) %MON YG_mean                      =  -7.4668356249999E+01
(PID.TID 0000.0001) %MON YG_sd                        =   4.5104925958293E-01
(PID.TID 0000.0001) %MON DYC_max                      =   8.6857401056280E+02
(PID.TID 0000.0001) %MON DYC_min                      =   8.6857401056280E+02
(PID.TID 0000.0001) %MON DYC_mean                     =   8.6857401056280E+02
(PID.TID 0000.0001) %MON DYC_sd                       =   7.6170181273483E-12
(PID.TID 0000.0001) %MON DYF_max                      =   8.6857401056280E+02
(PID.TID 0000.0001) %MON DYF_min                      =   8.6857401056280E+02
(PID.TID 0000.0001) %MON DYF_mean                     =   8.6857401056280E+02
(PID.TID 0000.0001) %MON DYF_sd                       =   7.6170181273483E-12
(PID.TID 0000.0001) %MON DYG_max                      =   8.6857401056280E+02
(PID.TID 0000.0001) %MON DYG_min                      =   8.6857401056280E+02
(PID.TID 0000.0001) %MON DYG_mean                     =   8.6857401056280E+02
(PID.TID 0000.0001) %MON DYG_sd                       =   7.6170181273483E-12
(PID.TID 0000.0001) %MON DYU_max                      =   8.6857401056280E+02
(PID.TID 0000.0001) %MON DYU_min                      =   8.6857401056280E+02
(PID.TID 0000.0001) %MON DYU_mean                     =   8.6857401056280E+02
(PID.TID 0000.0001) %MON DYU_sd                       =   7.6170181273483E-12
(PID.TID 0000.0001) %MON RA_max                       =   3.3500008863052E+06
(PID.TID 0000.0001) %MON RA_min                       =   3.0341405653118E+06
(PID.TID 0000.0001) %MON RA_mean                      =   3.1922656098560E+06
(PID.TID 0000.0001) %MON RA_sd                        =   9.1639221610150E+04
(PID.TID 0000.0001) %MON RAW_max                      =   3.3500008863052E+06
(PID.TID 0000.0001) %MON RAW_min                      =   3.0341405653118E+06
(PID.TID 0000.0001) %MON RAW_mean                     =   3.1922656098560E+06
(PID.TID 0000.0001) %MON RAW_sd                       =   9.1639221610150E+04
(PID.TID 0000.0001) %MON RAS_max                      =   3.3492102610598E+06
(PID.TID 0000.0001) %MON RAS_min                      =   3.0333440353089E+06
(PID.TID 0000.0001) %MON RAS_mean                     =   3.1914719837854E+06
(PID.TID 0000.0001) %MON RAS_sd                       =   9.1640934713506E+04
(PID.TID 0000.0001) %MON RAZ_max                      =   3.3492102610598E+06
(PID.TID 0000.0001) %MON RAZ_min                      =   3.0333440353089E+06
(PID.TID 0000.0001) %MON RAZ_mean                     =   3.1914719837854E+06
(PID.TID 0000.0001) %MON RAZ_sd                       =   9.1640934713506E+04
(PID.TID 0000.0001) %MON AngleCS_max                  =   1.0000000000000E+00
(PID.TID 0000.0001) %MON AngleCS_min                  =   1.0000000000000E+00
(PID.TID 0000.0001) %MON AngleCS_mean                 =   1.0000000000000E+00
(PID.TID 0000.0001) %MON AngleCS_sd                   =   0.0000000000000E+00
(PID.TID 0000.0001) %MON AngleSN_max                  =   0.0000000000000E+00
(PID.TID 0000.0001) %MON AngleSN_min                  =   0.0000000000000E+00
(PID.TID 0000.0001) %MON AngleSN_mean                 =   0.0000000000000E+00
(PID.TID 0000.0001) %MON AngleSN_sd                   =   0.0000000000000E+00
(PID.TID 0000.0001)  nRecords =   2 ; filePrec =  64 ; fileIter =     11395
(PID.TID 0000.0001)     nDims =   2 , dims:
(PID.TID 0000.0001)    1:   3   1   3
(PID.TID 0000.0001)    2: 200   1 200
(PID.TID 0000.0001)     nFlds =   2 , nFl3D =   0 , fields:
(PID.TID 0000.0001)  >SHI_mass< >R_Shelfi<
(PID.TID 0000.0001) missingVal=  1.00000000000000E+00 ; nTimRec =   1 , timeList:
(PID.TID 0000.0001)   3.418500000000E+06
(PID.TID 0000.0001) READ_MFLDS_3D_RL: read field: "SHI_mass", #   1 in fldList, rec=   1
(PID.TID 0000.0001) READ_MFLDS_3D_RL: read field: "R_Shelfi", #   2 in fldList, rec=   2
(PID.TID 0000.0001) READ_MFLDS_CHECK: - normal end ; reset MFLDS file-name: pickup_shelfice.0000011395
(PID.TID 0000.0001) GAD_INIT_FIXED: GAD_OlMinSize=  2  0  1
(PID.TID 0000.0001) 
(PID.TID 0000.0001) // ===================================
(PID.TID 0000.0001) // GAD parameters :
(PID.TID 0000.0001) // ===================================
(PID.TID 0000.0001) tempAdvScheme =   /* Temp. Horiz.Advection scheme selector */
(PID.TID 0000.0001)                      30
(PID.TID 0000.0001)     ;
(PID.TID 0000.0001) tempVertAdvScheme =   /* Temp. Vert. Advection scheme selector */
(PID.TID 0000.0001)                      30
(PID.TID 0000.0001)     ;
(PID.TID 0000.0001) tempMultiDimAdvec =   /* use Muti-Dim Advec method for Temp */
(PID.TID 0000.0001)                   T
(PID.TID 0000.0001)     ;
(PID.TID 0000.0001) tempSOM_Advection = /* use 2nd Order Moment Advection for Temp */
(PID.TID 0000.0001)                   F
(PID.TID 0000.0001)     ;
(PID.TID 0000.0001) AdamsBashforthGt = /* apply Adams-Bashforth extrapolation on Gt */
(PID.TID 0000.0001)                   F
(PID.TID 0000.0001)     ;
(PID.TID 0000.0001) AdamsBashforth_T = /* apply Adams-Bashforth extrapolation on Temp */
(PID.TID 0000.0001)                   F
(PID.TID 0000.0001)     ;
(PID.TID 0000.0001) saltAdvScheme =   /* Salt. Horiz.advection scheme selector */
(PID.TID 0000.0001)                      30
(PID.TID 0000.0001)     ;
(PID.TID 0000.0001) saltVertAdvScheme =   /* Salt. Vert. Advection scheme selector */
(PID.TID 0000.0001)                      30
(PID.TID 0000.0001)     ;
(PID.TID 0000.0001) saltMultiDimAdvec =   /* use Muti-Dim Advec method for Salt */
(PID.TID 0000.0001)                   T
(PID.TID 0000.0001)     ;
(PID.TID 0000.0001) saltSOM_Advection = /* use 2nd Order Moment Advection for Salt */
(PID.TID 0000.0001)                   F
(PID.TID 0000.0001)     ;
(PID.TID 0000.0001) AdamsBashforthGs = /* apply Adams-Bashforth extrapolation on Gs */
(PID.TID 0000.0001)                   F
(PID.TID 0000.0001)     ;
(PID.TID 0000.0001) AdamsBashforth_S = /* apply Adams-Bashforth extrapolation on Salt */
(PID.TID 0000.0001)                   F
(PID.TID 0000.0001)     ;
(PID.TID 0000.0001) // ===================================
(PID.TID 0000.0001) ADDED DIAGS TO LIST
(PID.TID 0000.0001) ------------------------------------------------------------
(PID.TID 0000.0001) DIAGNOSTICS_SET_LEVELS: done
(PID.TID 0000.0001)  Total Nb of available Diagnostics: ndiagt=   217
(PID.TID 0000.0001)  write list of available Diagnostics to file: available_diagnostics.log
(PID.TID 0000.0001) SETDIAG: Allocate  1 x  1 Levels for Diagnostic #   207 SHIfwFlx
(PID.TID 0000.0001) SETDIAG: Allocate  1 x  1 Levels for Diagnostic #   208 SHIhtFlx
(PID.TID 0000.0001) SETDIAG: Allocate  1 x  1 Levels for Diagnostic #   213 SHIgammT
(PID.TID 0000.0001) SETDIAG: Allocate  1 x  1 Levels for Diagnostic #   214 SHIgammS
(PID.TID 0000.0001) SETDIAG: Allocate  1 x  1 Levels for Diagnostic #   216 SHI_mass
(PID.TID 0000.0001) SETDIAG: Allocate  1 x  1 Levels for Diagnostic #   217 SHIRshel
(PID.TID 0000.0001) SETDIAG: Allocate  1 x  1 Levels for Diagnostic #   193 SI_Uvel
(PID.TID 0000.0001) SETDIAG: Allocate  1 x  1 Levels for Diagnostic #   194 SI_Vvel
(PID.TID 0000.0001) SETDIAG: Allocate  1 x  1 Levels for Diagnostic #   195 SI_Thick
(PID.TID 0000.0001) SETDIAG: Allocate  1 x  1 Levels for Diagnostic #   198 SI_hmask
(PID.TID 0000.0001) SETDIAG: Allocate  1 x  1 Levels for Diagnostic #   197 SI_float
(PID.TID 0000.0001) SETDIAG: Allocate  1 x  1 Levels for Diagnostic #   215 SHIuStar
(PID.TID 0000.0001)   space allocated for all diagnostics:      12 levels
(PID.TID 0000.0001) DIAGNOSTICS_SET_POINTERS: Set levels for Outp.Stream: surfDiag
(PID.TID 0000.0001)  Levels:       1.
(PID.TID 0000.0001) DIAGNOSTICS_SET_POINTERS: done
(PID.TID 0000.0001) ------------------------------------------------------------
(PID.TID 0000.0001) DIAGSTATS_SET_REGIONS: define no region
(PID.TID 0000.0001) ------------------------------------------------------------
(PID.TID 0000.0001)   space allocated for all stats-diags:       0 levels
(PID.TID 0000.0001) DIAGSTATS_SET_POINTERS: done
(PID.TID 0000.0001) ------------------------------------------------------------
(PID.TID 0000.0001) %MON fCori_max                    =   0.0000000000000E+00
(PID.TID 0000.0001) %MON fCori_min                    =   0.0000000000000E+00
(PID.TID 0000.0001) %MON fCori_mean                   =   0.0000000000000E+00
(PID.TID 0000.0001) %MON fCori_sd                     =   0.0000000000000E+00
(PID.TID 0000.0001) %MON fCoriG_max                   =   0.0000000000000E+00
(PID.TID 0000.0001) %MON fCoriG_min                   =   0.0000000000000E+00
(PID.TID 0000.0001) %MON fCoriG_mean                  =   0.0000000000000E+00
(PID.TID 0000.0001) %MON fCoriG_sd                    =   0.0000000000000E+00
(PID.TID 0000.0001) %MON fCoriCos_max                 =   0.0000000000000E+00
(PID.TID 0000.0001) %MON fCoriCos_min                 =   0.0000000000000E+00
(PID.TID 0000.0001) %MON fCoriCos_mean                =   0.0000000000000E+00
(PID.TID 0000.0001) %MON fCoriCos_sd                  =   0.0000000000000E+00
(PID.TID 0000.0001) INI_CG2D: CG2D normalisation factor =  2.5039971719217701E-04
(PID.TID 0000.0001) 
(PID.TID 0000.0001) // =======================================================
(PID.TID 0000.0001) // Model configuration
(PID.TID 0000.0001) // =======================================================
(PID.TID 0000.0001) //
(PID.TID 0000.0001) // "Physical" paramters ( PARM01 in namelist )
(PID.TID 0000.0001) //
(PID.TID 0000.0001) buoyancyRelation = /* Type of relation to get Buoyancy */
(PID.TID 0000.0001)               'OCEANIC'
(PID.TID 0000.0001)     ;
(PID.TID 0000.0001) fluidIsAir   =  /* fluid major constituent is Air */
(PID.TID 0000.0001)                   F
(PID.TID 0000.0001)     ;
(PID.TID 0000.0001) fluidIsWater =  /* fluid major constituent is Water */
(PID.TID 0000.0001)                   T
(PID.TID 0000.0001)     ;
(PID.TID 0000.0001) usingPCoords =  /* use p (or p*) vertical coordinate */
(PID.TID 0000.0001)                   F
(PID.TID 0000.0001)     ;
(PID.TID 0000.0001) usingZCoords =  /* use z (or z*) vertical coordinate */
(PID.TID 0000.0001)                   T
(PID.TID 0000.0001)     ;
(PID.TID 0000.0001) tRef =   /* Reference temperature profile ( oC or K ) */
(PID.TID 0000.0001)    90 @ -1.900000000000000E+00              /* K =  1: 90 */
(PID.TID 0000.0001)     ;
(PID.TID 0000.0001) sRef =   /* Reference salinity profile ( psu ) */
(PID.TID 0000.0001)    90 @  3.440000000000000E+01              /* K =  1: 90 */
(PID.TID 0000.0001)     ;
(PID.TID 0000.0001) useStrainTensionVisc= /* Use StrainTension Form of Viscous Operator */
(PID.TID 0000.0001)                   F
(PID.TID 0000.0001)     ;
(PID.TID 0000.0001) useVariableVisc = /* Use variable horizontal viscosity */
(PID.TID 0000.0001)                   T
(PID.TID 0000.0001)     ;
(PID.TID 0000.0001) useHarmonicVisc = /* Use harmonic horizontal viscosity */
(PID.TID 0000.0001)                   T
(PID.TID 0000.0001)     ;
(PID.TID 0000.0001) useBiharmonicVisc= /* Use biharmonic horiz.  viscosity */
(PID.TID 0000.0001)                   T
(PID.TID 0000.0001)     ;
(PID.TID 0000.0001) useSmag3D = /* Use isotropic 3-D Smagorinsky viscosity */
(PID.TID 0000.0001)                   F
(PID.TID 0000.0001)     ;
(PID.TID 0000.0001) viscAh  =   /* Lateral harmonic viscosity ( m^2/s ) */
(PID.TID 0000.0001)                 0.000000000000000E+00
(PID.TID 0000.0001)     ;
(PID.TID 0000.0001) viscAhMax = /* Maximum lateral harmonic viscosity ( m^2/s ) */
(PID.TID 0000.0001)                 1.000000000000000E+21
(PID.TID 0000.0001)     ;
(PID.TID 0000.0001) viscAhGrid = /* Grid dependent lateral harmonic viscosity ( non-dim. ) */
(PID.TID 0000.0001)                 2.000000000000000E-01
(PID.TID 0000.0001)     ;
(PID.TID 0000.0001) useFullLeith = /* Use Full Form of Leith Viscosity on/off flag*/
(PID.TID 0000.0001)                   F
(PID.TID 0000.0001)     ;
(PID.TID 0000.0001) useAreaViscLength = /* Use area for visc length instead of geom. mean*/
(PID.TID 0000.0001)                   F
(PID.TID 0000.0001)     ;
(PID.TID 0000.0001) viscC2leith = /* Leith harmonic visc. factor (on grad(vort),non-dim.) */
(PID.TID 0000.0001)                 0.000000000000000E+00
(PID.TID 0000.0001)     ;
(PID.TID 0000.0001) viscC2leithD = /* Leith harmonic viscosity factor (on grad(div),non-dim.)*/
(PID.TID 0000.0001)                 0.000000000000000E+00
(PID.TID 0000.0001)     ;
(PID.TID 0000.0001) viscC2LeithQG = /* QG Leith harmonic viscosity factor (non-dim.)*/
(PID.TID 0000.0001)                 0.000000000000000E+00
(PID.TID 0000.0001)     ;
(PID.TID 0000.0001) viscC2smag = /* Smagorinsky harmonic viscosity factor (non-dim.) */
(PID.TID 0000.0001)                 0.000000000000000E+00
(PID.TID 0000.0001)     ;
(PID.TID 0000.0001) viscA4  =   /* Lateral biharmonic viscosity ( m^4/s ) */
(PID.TID 0000.0001)                 0.000000000000000E+00
(PID.TID 0000.0001)     ;
(PID.TID 0000.0001) viscA4Max = /* Maximum biharmonic viscosity ( m^2/s ) */
(PID.TID 0000.0001)                 1.000000000000000E+21
(PID.TID 0000.0001)     ;
(PID.TID 0000.0001) viscA4Grid = /* Grid dependent biharmonic viscosity ( non-dim. ) */
(PID.TID 0000.0001)                 2.000000000000000E-02
(PID.TID 0000.0001)     ;
(PID.TID 0000.0001) viscC4leith = /* Leith biharm viscosity factor (on grad(vort), non-dim.)*/
(PID.TID 0000.0001)                 0.000000000000000E+00
(PID.TID 0000.0001)     ;
(PID.TID 0000.0001) viscC4leithD = /* Leith biharm viscosity factor (on grad(div), non-dim.) */
(PID.TID 0000.0001)                 0.000000000000000E+00
(PID.TID 0000.0001)     ;
(PID.TID 0000.0001) viscC4Smag = /* Smagorinsky biharm viscosity factor (non-dim) */
(PID.TID 0000.0001)                 0.000000000000000E+00
(PID.TID 0000.0001)     ;
(PID.TID 0000.0001) no_slip_sides =  /* Viscous BCs: No-slip sides */
(PID.TID 0000.0001)                   F
(PID.TID 0000.0001)     ;
(PID.TID 0000.0001) sideDragFactor = /* side-drag scaling factor (non-dim) */
(PID.TID 0000.0001)                 2.000000000000000E+00
(PID.TID 0000.0001)     ;
(PID.TID 0000.0001) viscArNr = /* vertical profile of vertical viscosity ( m^2/s )*/
(PID.TID 0000.0001)    90 @  1.000000000000000E-03              /* K =  1: 90 */
(PID.TID 0000.0001)     ;
(PID.TID 0000.0001) no_slip_bottom =  /* Viscous BCs: No-slip bottom */
(PID.TID 0000.0001)                   F
(PID.TID 0000.0001)     ;
(PID.TID 0000.0001) bottomVisc_pCell = /* Partial-cell in bottom Visc. BC */
(PID.TID 0000.0001)                   F
(PID.TID 0000.0001)     ;
(PID.TID 0000.0001) bottomDragLinear = /* linear bottom-drag coefficient ( m/s ) */
(PID.TID 0000.0001)                 0.000000000000000E+00
(PID.TID 0000.0001)     ;
(PID.TID 0000.0001) bottomDragQuadratic = /* quadratic bottom-drag coefficient (-) */
(PID.TID 0000.0001)                 2.500000000000000E-03
(PID.TID 0000.0001)     ;
(PID.TID 0000.0001) selectBotDragQuadr = /* select quadratic bottom drag options */
(PID.TID 0000.0001)                       0
(PID.TID 0000.0001)     ;
(PID.TID 0000.0001) diffKhT =   /* Laplacian diffusion of heat laterally ( m^2/s ) */
(PID.TID 0000.0001)                 1.000000000000000E+02
(PID.TID 0000.0001)     ;
(PID.TID 0000.0001) diffK4T =   /* Biharmonic diffusion of heat laterally ( m^4/s ) */
(PID.TID 0000.0001)                 0.000000000000000E+00
(PID.TID 0000.0001)     ;
(PID.TID 0000.0001) diffKhS =   /* Laplacian diffusion of salt laterally ( m^2/s ) */
(PID.TID 0000.0001)                 1.000000000000000E+02
(PID.TID 0000.0001)     ;
(PID.TID 0000.0001) diffK4S =   /* Biharmonic diffusion of salt laterally ( m^4/s ) */
(PID.TID 0000.0001)                 0.000000000000000E+00
(PID.TID 0000.0001)     ;
(PID.TID 0000.0001) diffKrNrT = /* vertical profile of vertical diffusion of Temp ( m^2/s )*/
(PID.TID 0000.0001)    90 @  5.000000000000000E-05              /* K =  1: 90 */
(PID.TID 0000.0001)     ;
(PID.TID 0000.0001) diffKrNrS = /* vertical profile of vertical diffusion of Salt ( m^2/s )*/
(PID.TID 0000.0001)    90 @  5.000000000000000E-05              /* K =  1: 90 */
(PID.TID 0000.0001)     ;
(PID.TID 0000.0001) diffKrBL79surf = /* Surface diffusion for Bryan and Lewis 79 ( m^2/s ) */
(PID.TID 0000.0001)                 0.000000000000000E+00
(PID.TID 0000.0001)     ;
(PID.TID 0000.0001) diffKrBL79deep = /* Deep diffusion for Bryan and Lewis 1979 ( m^2/s ) */
(PID.TID 0000.0001)                 0.000000000000000E+00
(PID.TID 0000.0001)     ;
(PID.TID 0000.0001) diffKrBL79scl = /* Depth scale for Bryan and Lewis 1979 ( m ) */
(PID.TID 0000.0001)                 2.000000000000000E+02
(PID.TID 0000.0001)     ;
(PID.TID 0000.0001) diffKrBL79Ho = /* Turning depth for Bryan and Lewis 1979 ( m ) */
(PID.TID 0000.0001)                -2.000000000000000E+03
(PID.TID 0000.0001)     ;
(PID.TID 0000.0001) ivdc_kappa = /* Implicit Vertical Diffusivity for Convection ( m^2/s) */
(PID.TID 0000.0001)                 0.000000000000000E+00
(PID.TID 0000.0001)     ;
(PID.TID 0000.0001) hMixCriteria=  /* Criteria for mixed-layer diagnostic */
(PID.TID 0000.0001)                -8.000000000000000E-01
(PID.TID 0000.0001)     ;
(PID.TID 0000.0001) dRhoSmall =  /* Parameter for mixed-layer diagnostic */
(PID.TID 0000.0001)                 1.000000000000000E-06
(PID.TID 0000.0001)     ;
(PID.TID 0000.0001) hMixSmooth=  /* Smoothing parameter for mixed-layer diagnostic */
(PID.TID 0000.0001)                 0.000000000000000E+00
(PID.TID 0000.0001)     ;
(PID.TID 0000.0001) eosType =  /* Type of Equation of State */
(PID.TID 0000.0001)               'JMD95Z'
(PID.TID 0000.0001)     ;
(PID.TID 0000.0001) selectP_inEOS_Zc = /* select pressure to use in EOS (0,1,2,3) */
(PID.TID 0000.0001)                       0
(PID.TID 0000.0001)     0= -g*rhoConst*z ; 1= pRef (from tRef,sRef); 2= Hyd P ; 3= Hyd+NH P
(PID.TID 0000.0001)     ;
(PID.TID 0000.0001) HeatCapacity_Cp =  /* Specific heat capacity ( J/kg/K ) */
(PID.TID 0000.0001)                 3.974000000000000E+03
(PID.TID 0000.0001)     ;
(PID.TID 0000.0001) celsius2K = /* 0 degree Celsius converted to Kelvin ( K ) */
(PID.TID 0000.0001)                 2.731500000000000E+02
(PID.TID 0000.0001)     ;
(PID.TID 0000.0001) rhoConst  = /* Reference density (Boussinesq)  ( kg/m^3 ) */
(PID.TID 0000.0001)                 1.000000000000000E+03
(PID.TID 0000.0001)     ;
(PID.TID 0000.0001) rhoFacC = /* normalized Reference density @ cell-Center (-) */
(PID.TID 0000.0001)    90 @  1.000000000000000E+00              /* K =  1: 90 */
(PID.TID 0000.0001)     ;
(PID.TID 0000.0001) rhoFacF = /* normalized Reference density @ W-Interface (-) */
(PID.TID 0000.0001)    91 @  1.000000000000000E+00              /* K =  1: 91 */
(PID.TID 0000.0001)     ;
(PID.TID 0000.0001) rhoConstFresh = /* Fresh-water reference density ( kg/m^3 ) */
(PID.TID 0000.0001)                 1.000000000000000E+03
(PID.TID 0000.0001)     ;
(PID.TID 0000.0001) gravity =   /* Gravitational acceleration ( m/s^2 ) */
(PID.TID 0000.0001)                 9.810000000000000E+00
(PID.TID 0000.0001)     ;
(PID.TID 0000.0001) gBaro =   /* Barotropic gravity ( m/s^2 ) */
(PID.TID 0000.0001)                 9.810000000000000E+00
(PID.TID 0000.0001)     ;
(PID.TID 0000.0001) gravFacC = /* gravity factor (vs surf.) @ cell-Center (-) */
(PID.TID 0000.0001)    90 @  1.000000000000000E+00              /* K =  1: 90 */
(PID.TID 0000.0001)     ;
(PID.TID 0000.0001) gravFacF = /* gravity factor (vs surf.) @ W-Interface (-) */
(PID.TID 0000.0001)    91 @  1.000000000000000E+00              /* K =  1: 91 */
(PID.TID 0000.0001)     ;
(PID.TID 0000.0001) rotationPeriod =   /* Rotation Period ( s ) */
(PID.TID 0000.0001)                 8.616400000000000E+04
(PID.TID 0000.0001)     ;
(PID.TID 0000.0001) omega =   /* Angular velocity ( rad/s ) */
(PID.TID 0000.0001)                 7.292123516990375E-05
(PID.TID 0000.0001)     ;
(PID.TID 0000.0001) f0 =   /* Reference coriolis parameter ( 1/s ) */
(PID.TID 0000.0001)                 0.000000000000000E+00
(PID.TID 0000.0001)     ;
(PID.TID 0000.0001) beta =   /* Beta ( 1/(m.s) ) */
(PID.TID 0000.0001)                 9.999999999999999E-12
(PID.TID 0000.0001)     ;
(PID.TID 0000.0001) fPrime =   /* Second coriolis parameter ( 1/s ) */
(PID.TID 0000.0001)                 0.000000000000000E+00
(PID.TID 0000.0001)     ;
(PID.TID 0000.0001) rigidLid =   /* Rigid lid on/off flag */
(PID.TID 0000.0001)                   F
(PID.TID 0000.0001)     ;
(PID.TID 0000.0001) implicitFreeSurface =   /* Implicit free surface on/off flag */
(PID.TID 0000.0001)                   T
(PID.TID 0000.0001)     ;
(PID.TID 0000.0001) freeSurfFac =   /* Implicit free surface factor */
(PID.TID 0000.0001)                 1.000000000000000E+00
(PID.TID 0000.0001)     ;
(PID.TID 0000.0001) implicSurfPress =  /* Surface Pressure implicit factor (0-1)*/
(PID.TID 0000.0001)                 1.000000000000000E+00
(PID.TID 0000.0001)     ;
(PID.TID 0000.0001) implicDiv2DFlow =  /* Barot. Flow Div. implicit factor (0-1)*/
(PID.TID 0000.0001)                 1.000000000000000E+00
(PID.TID 0000.0001)     ;
(PID.TID 0000.0001) uniformLin_PhiSurf = /* use uniform Bo_surf on/off flag*/
(PID.TID 0000.0001)                   T
(PID.TID 0000.0001)     ;
(PID.TID 0000.0001) uniformFreeSurfLev = /* free-surface level-index is uniform */
(PID.TID 0000.0001)                   F
(PID.TID 0000.0001)     ;
(PID.TID 0000.0001) hFacMin =   /* minimum partial cell factor (hFac) */
(PID.TID 0000.0001)                 2.000000000000000E-01
(PID.TID 0000.0001)     ;
(PID.TID 0000.0001) hFacMinDr = /* minimum partial cell thickness ( m) */
(PID.TID 0000.0001)                 0.000000000000000E+00
(PID.TID 0000.0001)     ;
(PID.TID 0000.0001) exactConserv =  /* Exact Volume Conservation on/off flag*/
(PID.TID 0000.0001)                   T
(PID.TID 0000.0001)     ;
(PID.TID 0000.0001) linFSConserveTr = /* Tracer correction for Lin Free Surface on/off flag*/
(PID.TID 0000.0001)                   F
(PID.TID 0000.0001)     ;
(PID.TID 0000.0001) nonlinFreeSurf = /* Non-linear Free Surf. options (-1,0,1,2,3)*/
(PID.TID 0000.0001)                       4
(PID.TID 0000.0001)      -1,0= Off ; 1,2,3= On, 2=+rescale gU,gV, 3=+update cg2d solv.
(PID.TID 0000.0001)     ;
(PID.TID 0000.0001) hFacInf =   /* lower threshold for hFac (nonlinFreeSurf only)*/
(PID.TID 0000.0001)                 2.000000000000000E-01
(PID.TID 0000.0001)     ;
(PID.TID 0000.0001) hFacSup =   /* upper threshold for hFac (nonlinFreeSurf only)*/
(PID.TID 0000.0001)                 2.000000000000000E+00
(PID.TID 0000.0001)     ;
(PID.TID 0000.0001) select_rStar = /* r* Vertical coord. options (=0 r coord.; >0 uses r*)*/
(PID.TID 0000.0001)                       0
(PID.TID 0000.0001)     ;
(PID.TID 0000.0001) useRealFreshWaterFlux = /* Real Fresh Water Flux on/off flag*/
(PID.TID 0000.0001)                   T
(PID.TID 0000.0001)     ;
(PID.TID 0000.0001) temp_EvPrRn = /* Temp. of Evap/Prec/R (UNSET=use local T)(oC)*/
(PID.TID 0000.0001)                 1.234567000000000E+05
(PID.TID 0000.0001)     ;
(PID.TID 0000.0001) salt_EvPrRn = /* Salin. of Evap/Prec/R (UNSET=use local S)(psu)*/
(PID.TID 0000.0001)                 0.000000000000000E+00
(PID.TID 0000.0001)     ;
(PID.TID 0000.0001) selectAddFluid = /* option for mass source/sink of fluid (=0: off) */
(PID.TID 0000.0001)                       0
(PID.TID 0000.0001)     ;
(PID.TID 0000.0001) temp_addMass = /* Temp. of addMass array (UNSET=use local T)(oC)*/
(PID.TID 0000.0001)                 1.234567000000000E+05
(PID.TID 0000.0001)     ;
(PID.TID 0000.0001) salt_addMass = /* Salin. of addMass array (UNSET=use local S)(psu)*/
(PID.TID 0000.0001)                 0.000000000000000E+00
(PID.TID 0000.0001)     ;
(PID.TID 0000.0001) use3Dsolver = /* use 3-D pressure solver on/off flag */
(PID.TID 0000.0001)                   F
(PID.TID 0000.0001)     ;
(PID.TID 0000.0001) nonHydrostatic =  /* Non-Hydrostatic on/off flag */
(PID.TID 0000.0001)                   F
(PID.TID 0000.0001)     ;
(PID.TID 0000.0001) nh_Am2 = /* Non-Hydrostatic terms scaling factor */
(PID.TID 0000.0001)                 1.000000000000000E+00
(PID.TID 0000.0001)     ;
(PID.TID 0000.0001) implicitNHPress = /* Non-Hyd Pressure implicit factor (0-1)*/
(PID.TID 0000.0001)                 1.000000000000000E+00
(PID.TID 0000.0001)     ;
(PID.TID 0000.0001) selectNHfreeSurf = /* Non-Hyd (free-)Surface option */
(PID.TID 0000.0001)                       0
(PID.TID 0000.0001)     ;
(PID.TID 0000.0001) quasiHydrostatic = /* Quasi-Hydrostatic on/off flag */
(PID.TID 0000.0001)                   F
(PID.TID 0000.0001)     ;
(PID.TID 0000.0001) calc_wVelocity = /* vertical velocity calculation on/off flag */
(PID.TID 0000.0001)                   T
(PID.TID 0000.0001)     ;
(PID.TID 0000.0001) momStepping =  /* Momentum equation on/off flag */
(PID.TID 0000.0001)                   T
(PID.TID 0000.0001)     ;
(PID.TID 0000.0001) vectorInvariantMomentum= /* Vector-Invariant Momentum on/off */
(PID.TID 0000.0001)                   T
(PID.TID 0000.0001)     ;
(PID.TID 0000.0001) momAdvection =  /* Momentum advection on/off flag */
(PID.TID 0000.0001)                   T
(PID.TID 0000.0001)     ;
(PID.TID 0000.0001) momViscosity =  /* Momentum viscosity on/off flag */
(PID.TID 0000.0001)                   T
(PID.TID 0000.0001)     ;
(PID.TID 0000.0001) momImplVertAdv= /* Momentum implicit vert. advection on/off*/
(PID.TID 0000.0001)                   F
(PID.TID 0000.0001)     ;
(PID.TID 0000.0001) implicitViscosity = /* Implicit viscosity on/off flag */
(PID.TID 0000.0001)                   T
(PID.TID 0000.0001)     ;
(PID.TID 0000.0001) selectImplicitDrag= /* Implicit bot Drag options (0,1,2)*/
(PID.TID 0000.0001)                       0
(PID.TID 0000.0001)     0= Expl. ; 1= Impl. on provis. Vel ; 2= Fully Impl (with surf.P)
(PID.TID 0000.0001)     ;
(PID.TID 0000.0001) metricTerms =  /* metric-Terms on/off flag */
(PID.TID 0000.0001)                   T
(PID.TID 0000.0001)     ;
(PID.TID 0000.0001) useNHMTerms = /* Non-Hydrostatic Metric-Terms on/off */
(PID.TID 0000.0001)                   F
(PID.TID 0000.0001)     ;
(PID.TID 0000.0001) selectCoriMap = /* Coriolis Map options (0,1,2,3)*/
(PID.TID 0000.0001)                       0
(PID.TID 0000.0001)     0= f-Plane ; 1= Beta-Plane ; 2= Spherical ; 3= read from file
(PID.TID 0000.0001)     ;
(PID.TID 0000.0001) use3dCoriolis = /* 3-D Coriolis on/off flag */
(PID.TID 0000.0001)                   F
(PID.TID 0000.0001)     ;
(PID.TID 0000.0001) useCoriolis =  /* Coriolis on/off flag */
(PID.TID 0000.0001)                   F
(PID.TID 0000.0001)     ;
(PID.TID 0000.0001) useCDscheme =  /* CD scheme on/off flag */
(PID.TID 0000.0001)                   F
(PID.TID 0000.0001)     ;
(PID.TID 0000.0001) selectCoriScheme= /* Scheme selector for Coriolis-Term */
(PID.TID 0000.0001)                       0
(PID.TID 0000.0001)    = 0 : original discretization (simple averaging, no hFac)
(PID.TID 0000.0001)    = 1 : Wet-point averaging (Jamar & Ozer 1986)
(PID.TID 0000.0001)    = 2 : hFac weighted average (Angular Mom. conserving)
(PID.TID 0000.0001)    = 3 : energy conserving scheme using hFac weighted average
(PID.TID 0000.0001)     ;
(PID.TID 0000.0001) useAbsVorticity= /* V.I Works with f+zeta in Coriolis */
(PID.TID 0000.0001)                   F
(PID.TID 0000.0001)     ;
(PID.TID 0000.0001) selectVortScheme= /* V.I Scheme selector for Vorticity-Term */
(PID.TID 0000.0001)                       1
(PID.TID 0000.0001)    = 0 : enstrophy (Shallow-Water Eq.) conserving scheme by Sadourny, JAS 75
(PID.TID 0000.0001)    = 1 : same as 0 with modified hFac
(PID.TID 0000.0001)    = 2 : energy conserving scheme (used by Sadourny in JAS 75 paper)
(PID.TID 0000.0001)    = 3 : energy (general) and enstrophy (2D, nonDiv.) conserving scheme
(PID.TID 0000.0001)          from Sadourny (Burridge & Haseler, ECMWF Rep.4, 1977)
(PID.TID 0000.0001)     ;
(PID.TID 0000.0001) useJamartMomAdv= /* V.I Non-linear terms Jamart flag */
(PID.TID 0000.0001)                   F
(PID.TID 0000.0001)     ;
(PID.TID 0000.0001) upwindVorticity= /* V.I Upwind bias vorticity flag */
(PID.TID 0000.0001)                   F
(PID.TID 0000.0001)     ;
(PID.TID 0000.0001) highOrderVorticity= /* V.I High order vort. advect. flag */
(PID.TID 0000.0001)                   F
(PID.TID 0000.0001)     ;
(PID.TID 0000.0001) upwindShear= /* V.I Upwind vertical Shear advection flag */
(PID.TID 0000.0001)                   F
(PID.TID 0000.0001)     ;
(PID.TID 0000.0001) selectKEscheme= /* V.I Kinetic Energy scheme selector */
(PID.TID 0000.0001)                       0
(PID.TID 0000.0001)     ;
(PID.TID 0000.0001) momForcing =  /* Momentum forcing on/off flag */
(PID.TID 0000.0001)                   T
(PID.TID 0000.0001)     ;
(PID.TID 0000.0001) momTidalForcing = /* Momentum Tidal forcing on/off flag */
(PID.TID 0000.0001)                   T
(PID.TID 0000.0001)     ;
(PID.TID 0000.0001) momPressureForcing =  /* Momentum pressure term on/off flag */
(PID.TID 0000.0001)                   T
(PID.TID 0000.0001)     ;
(PID.TID 0000.0001) implicitIntGravWave= /* Implicit Internal Gravity Wave flag */
(PID.TID 0000.0001)                   F
(PID.TID 0000.0001)     ;
(PID.TID 0000.0001) staggerTimeStep =    /* Stagger time stepping on/off flag */
(PID.TID 0000.0001)                   T
(PID.TID 0000.0001)     ;
(PID.TID 0000.0001) doResetHFactors = /* reset thickness factors @ each time-step */
(PID.TID 0000.0001)                   F
(PID.TID 0000.0001)     ;
(PID.TID 0000.0001) multiDimAdvection =  /* enable/disable Multi-Dim Advection */
(PID.TID 0000.0001)                   T
(PID.TID 0000.0001)     ;
(PID.TID 0000.0001) useMultiDimAdvec =   /* Multi-Dim Advection is/is-not used */
(PID.TID 0000.0001)                   T
(PID.TID 0000.0001)     ;
(PID.TID 0000.0001) implicitDiffusion = /* Implicit Diffusion on/off flag */
(PID.TID 0000.0001)                   T
(PID.TID 0000.0001)     ;
(PID.TID 0000.0001) tempStepping =  /* Temperature equation on/off flag */
(PID.TID 0000.0001)                   T
(PID.TID 0000.0001)     ;
(PID.TID 0000.0001) tempAdvection = /* Temperature advection on/off flag */
(PID.TID 0000.0001)                   T
(PID.TID 0000.0001)     ;
(PID.TID 0000.0001) tempImplVertAdv = /* Temp. implicit vert. advection on/off */
(PID.TID 0000.0001)                   T
(PID.TID 0000.0001)     ;
(PID.TID 0000.0001) tempForcing  =  /* Temperature forcing on/off flag */
(PID.TID 0000.0001)                   T
(PID.TID 0000.0001)     ;
(PID.TID 0000.0001) doThetaClimRelax = /* apply SST relaxation on/off flag */
(PID.TID 0000.0001)                   F
(PID.TID 0000.0001)     ;
(PID.TID 0000.0001) tempIsActiveTr = /* Temp. is a dynamically Active Tracer */
(PID.TID 0000.0001)                   T
(PID.TID 0000.0001)     ;
(PID.TID 0000.0001) saltStepping =  /* Salinity equation on/off flag */
(PID.TID 0000.0001)                   T
(PID.TID 0000.0001)     ;
(PID.TID 0000.0001) saltAdvection = /* Salinity advection on/off flag */
(PID.TID 0000.0001)                   T
(PID.TID 0000.0001)     ;
(PID.TID 0000.0001) saltImplVertAdv = /* Sali. implicit vert. advection on/off */
(PID.TID 0000.0001)                   T
(PID.TID 0000.0001)     ;
(PID.TID 0000.0001) saltForcing  =  /* Salinity forcing on/off flag */
(PID.TID 0000.0001)                   T
(PID.TID 0000.0001)     ;
(PID.TID 0000.0001) doSaltClimRelax = /* apply SSS relaxation on/off flag */
(PID.TID 0000.0001)                   F
(PID.TID 0000.0001)     ;
(PID.TID 0000.0001) saltIsActiveTr = /* Salt  is a dynamically Active Tracer */
(PID.TID 0000.0001)                   T
(PID.TID 0000.0001)     ;
(PID.TID 0000.0001)  readBinaryPrec = /* Precision used for reading binary files */
(PID.TID 0000.0001)                      64
(PID.TID 0000.0001)     ;
(PID.TID 0000.0001) writeBinaryPrec = /* Precision used for writing binary files */
(PID.TID 0000.0001)                      32
(PID.TID 0000.0001)     ;
(PID.TID 0000.0001)  rwSuffixType =   /* select format of mds file suffix */
(PID.TID 0000.0001)                       0
(PID.TID 0000.0001)    = 0 : myIter (I10.10) ;   = 1 : 100*myTime (100th sec) ;
(PID.TID 0000.0001)    = 2 : myTime (seconds);   = 3 : myTime/360 (10th of hr);
(PID.TID 0000.0001)    = 4 : myTime/3600 (hours)
(PID.TID 0000.0001)     ;
(PID.TID 0000.0001)  globalFiles = /* write "global" (=not per tile) files */
(PID.TID 0000.0001)                   T
(PID.TID 0000.0001)     ;
(PID.TID 0000.0001)  useSingleCpuIO = /* only master MPI process does I/O */
(PID.TID 0000.0001)                   T
(PID.TID 0000.0001)     ;
(PID.TID 0000.0001)  useSingleCpuInput = /* only master process reads input */
(PID.TID 0000.0001)                   T
(PID.TID 0000.0001)     ;
(PID.TID 0000.0001) /* debLev[*]  : level of debug & auxiliary message printing */
(PID.TID 0000.0001) debLevZero =  0 ; /* level of disabled aux. msg printing */
(PID.TID 0000.0001)    debLevA =  1 ; /* level of minimum  aux. msg printing */
(PID.TID 0000.0001)    debLevB =  2 ; /* level of low aux. print (report read-file opening)*/
(PID.TID 0000.0001)    debLevC =  3 ; /* level of moderate debug prt (most pkgs debug msg) */
(PID.TID 0000.0001)    debLevD =  4 ; /* level of enhanced debug prt (add DEBUG_STATS prt) */
(PID.TID 0000.0001)    debLevE =  5 ; /* level of extensive debug printing */
(PID.TID 0000.0001) debugLevel =  /* select debug printing level */
(PID.TID 0000.0001)                       1
(PID.TID 0000.0001)     ;
(PID.TID 0000.0001)  plotLevel =  /* select PLOT_FIELD printing level */
(PID.TID 0000.0001)                       1
(PID.TID 0000.0001)     ;
(PID.TID 0000.0001) //
(PID.TID 0000.0001) // Elliptic solver(s) paramters ( PARM02 in namelist )
(PID.TID 0000.0001) //
(PID.TID 0000.0001) cg2dMaxIters =   /* Upper limit on 2d con. grad iterations  */
(PID.TID 0000.0001)                     300
(PID.TID 0000.0001)     ;
(PID.TID 0000.0001) cg2dChkResFreq =   /* 2d con. grad convergence test frequency */
(PID.TID 0000.0001)                       1
(PID.TID 0000.0001)     ;
(PID.TID 0000.0001) cg2dUseMinResSol= /* use cg2d last-iter(=0) / min-resid.(=1) solution */
(PID.TID 0000.0001)                       0
(PID.TID 0000.0001)     ;
(PID.TID 0000.0001) cg2dTargetResidual =   /* 2d con. grad target residual  */
(PID.TID 0000.0001)                 9.999999999999999E-12
(PID.TID 0000.0001)     ;
(PID.TID 0000.0001) cg2dTargetResWunit =   /* CG2d target residual [W units] */
(PID.TID 0000.0001)                -1.000000000000000E+00
(PID.TID 0000.0001)     ;
(PID.TID 0000.0001) cg2dPreCondFreq =   /* Freq. for updating cg2d preconditioner */
(PID.TID 0000.0001)                       1
(PID.TID 0000.0001)     ;
(PID.TID 0000.0001) useSRCGSolver =  /* use single reduction CG solver(s) */
(PID.TID 0000.0001)                   F
(PID.TID 0000.0001)     ;
(PID.TID 0000.0001) printResidualFreq = /* Freq. for printing CG residual */
(PID.TID 0000.0001)                       0
(PID.TID 0000.0001)     ;
(PID.TID 0000.0001) //
(PID.TID 0000.0001) // Time stepping paramters ( PARM03 in namelist )
(PID.TID 0000.0001) //
(PID.TID 0000.0001) deltaTMom =   /* Momentum equation timestep ( s ) */
(PID.TID 0000.0001)                 3.000000000000000E+02
(PID.TID 0000.0001)     ;
(PID.TID 0000.0001) deltaTFreeSurf = /* FreeSurface equation timestep ( s ) */
(PID.TID 0000.0001)                 3.000000000000000E+02
(PID.TID 0000.0001)     ;
(PID.TID 0000.0001) dTtracerLev =  /* Tracer equation timestep ( s ) */
(PID.TID 0000.0001)    90 @  3.000000000000000E+02              /* K =  1: 90 */
(PID.TID 0000.0001)     ;
(PID.TID 0000.0001) deltaTClock  =   /* Model clock timestep ( s ) */
(PID.TID 0000.0001)                 3.000000000000000E+02
(PID.TID 0000.0001)     ;
(PID.TID 0000.0001) cAdjFreq =   /* Convective adjustment interval ( s ) */
(PID.TID 0000.0001)                 3.000000000000000E+02
(PID.TID 0000.0001)     ;
(PID.TID 0000.0001) momForcingOutAB = /* =1: take Momentum Forcing out of Adams-Bash. stepping */
(PID.TID 0000.0001)                       1
(PID.TID 0000.0001)     ;
(PID.TID 0000.0001) tracForcingOutAB = /* =1: take T,S,pTr Forcing out of Adams-Bash. stepping */
(PID.TID 0000.0001)                       1
(PID.TID 0000.0001)     ;
(PID.TID 0000.0001) momDissip_In_AB = /* put Dissipation Tendency in Adams-Bash. stepping */
(PID.TID 0000.0001)                   T
(PID.TID 0000.0001)     ;
(PID.TID 0000.0001) doAB_onGtGs = /* apply AB on Tendencies (rather than on T,S)*/
(PID.TID 0000.0001)                   T
(PID.TID 0000.0001)     ;
(PID.TID 0000.0001) abEps =   /* Adams-Bashforth-2 stabilizing weight */
(PID.TID 0000.0001)                 1.000000000000000E-01
(PID.TID 0000.0001)     ;
(PID.TID 0000.0001) applyExchUV_early = /* Apply EXCH to U,V earlier in time-step */
(PID.TID 0000.0001)                   F
(PID.TID 0000.0001)     ;
(PID.TID 0000.0001) pickupStrictlyMatch= /* stop if pickup do not strictly match */
(PID.TID 0000.0001)                   T
(PID.TID 0000.0001)     ;
(PID.TID 0000.0001) nIter0   =   /* Run starting timestep number */
(PID.TID 0000.0001)                   11395
(PID.TID 0000.0001)     ;
(PID.TID 0000.0001) nTimeSteps = /* Number of timesteps */
(PID.TID 0000.0001)                      20
(PID.TID 0000.0001)     ;
(PID.TID 0000.0001) nEndIter =   /* Run ending timestep number */
(PID.TID 0000.0001)                   11415
(PID.TID 0000.0001)     ;
(PID.TID 0000.0001) baseTime =   /* Model base time ( s ) */
(PID.TID 0000.0001)                 0.000000000000000E+00
(PID.TID 0000.0001)     ;
(PID.TID 0000.0001) startTime =  /* Run start time ( s ) */
(PID.TID 0000.0001)                 3.418500000000000E+06
(PID.TID 0000.0001)     ;
(PID.TID 0000.0001) endTime  =   /* Integration ending time ( s ) */
(PID.TID 0000.0001)                 3.424500000000000E+06
(PID.TID 0000.0001)     ;
(PID.TID 0000.0001) pChkPtFreq = /* Permanent restart/pickup file interval ( s ) */
(PID.TID 0000.0001)                 3.110400000000000E+07
(PID.TID 0000.0001)     ;
(PID.TID 0000.0001) chkPtFreq  = /* Rolling restart/pickup file interval ( s ) */
(PID.TID 0000.0001)                 7.776000000000000E+06
(PID.TID 0000.0001)     ;
(PID.TID 0000.0001) pickup_write_mdsio =   /* Model IO flag. */
(PID.TID 0000.0001)                   T
(PID.TID 0000.0001)     ;
(PID.TID 0000.0001) pickup_read_mdsio =   /* Model IO flag. */
(PID.TID 0000.0001)                   T
(PID.TID 0000.0001)     ;
(PID.TID 0000.0001) writePickupAtEnd =   /* Model IO flag. */
(PID.TID 0000.0001)                   T
(PID.TID 0000.0001)     ;
(PID.TID 0000.0001) dumpFreq =   /* Model state write out interval ( s ). */
(PID.TID 0000.0001)                 3.000000000000000E+03
(PID.TID 0000.0001)     ;
(PID.TID 0000.0001) dumpInitAndLast= /* write out Initial & Last iter. model state */
(PID.TID 0000.0001)                   T
(PID.TID 0000.0001)     ;
(PID.TID 0000.0001) snapshot_mdsio =   /* Model IO flag. */
(PID.TID 0000.0001)                   T
(PID.TID 0000.0001)     ;
(PID.TID 0000.0001) monitorFreq =   /* Monitor output interval ( s ). */
(PID.TID 0000.0001)                 1.000000000000000E+00
(PID.TID 0000.0001)     ;
(PID.TID 0000.0001) monitorSelect = /* select group of variables to monitor */
(PID.TID 0000.0001)                       1
(PID.TID 0000.0001)     ;
(PID.TID 0000.0001) monitor_stdio =   /* Model IO flag. */
(PID.TID 0000.0001)                   T
(PID.TID 0000.0001)     ;
(PID.TID 0000.0001) externForcingPeriod =   /* forcing period (s) */
(PID.TID 0000.0001)                 0.000000000000000E+00
(PID.TID 0000.0001)     ;
(PID.TID 0000.0001) externForcingCycle =   /* period of the cyle (s). */
(PID.TID 0000.0001)                 0.000000000000000E+00
(PID.TID 0000.0001)     ;
(PID.TID 0000.0001) tauThetaClimRelax =   /* relaxation time scale (s) */
(PID.TID 0000.0001)                 0.000000000000000E+00
(PID.TID 0000.0001)     ;
(PID.TID 0000.0001) tauSaltClimRelax =   /* relaxation time scale (s) */
(PID.TID 0000.0001)                 0.000000000000000E+00
(PID.TID 0000.0001)     ;
(PID.TID 0000.0001) latBandClimRelax =   /* max. Lat. where relaxation */
(PID.TID 0000.0001)                 1.800000000000000E+02
(PID.TID 0000.0001)     ;
(PID.TID 0000.0001) //
(PID.TID 0000.0001) // Gridding paramters ( PARM04 in namelist )
(PID.TID 0000.0001) //
(PID.TID 0000.0001) usingCartesianGrid = /* Cartesian coordinates flag ( True/False ) */
(PID.TID 0000.0001)                   F
(PID.TID 0000.0001)     ;
(PID.TID 0000.0001) usingCylindricalGrid = /* Cylindrical coordinates flag ( True/False ) */
(PID.TID 0000.0001)                   F
(PID.TID 0000.0001)     ;
(PID.TID 0000.0001) usingSphericalPolarGrid = /* Spherical coordinates flag ( True/False ) */
(PID.TID 0000.0001)                   T
(PID.TID 0000.0001)     ;
(PID.TID 0000.0001) usingCurvilinearGrid = /* Curvilinear coordinates flag ( True/False ) */
(PID.TID 0000.0001)                   F
(PID.TID 0000.0001)     ;
(PID.TID 0000.0001) useMin4hFacEdges = /* set hFacW,S as minimum of adjacent hFacC factor */
(PID.TID 0000.0001)                   T
(PID.TID 0000.0001)     ;
(PID.TID 0000.0001) interViscAr_pCell = /* account for partial-cell in interior vert. viscosity */
(PID.TID 0000.0001)                   F
(PID.TID 0000.0001)     ;
(PID.TID 0000.0001) interDiffKr_pCell = /* account for partial-cell in interior vert. diffusion */
(PID.TID 0000.0001)                   F
(PID.TID 0000.0001)     ;
(PID.TID 0000.0001) pCellMix_select = /* option to enhance mixing near surface & bottom */
(PID.TID 0000.0001)                       0
(PID.TID 0000.0001)     ;
(PID.TID 0000.0001) selectSigmaCoord = /* Hybrid-Sigma Vert. Coordinate option */
(PID.TID 0000.0001)                       0
(PID.TID 0000.0001)     ;
(PID.TID 0000.0001) rSigmaBnd = /* r/sigma transition ( units of r ==  m ) */
(PID.TID 0000.0001)                 1.234567000000000E+05
(PID.TID 0000.0001)     ;
(PID.TID 0000.0001) rkSign =   /* index orientation relative to vertical coordinate */
(PID.TID 0000.0001)                -1.000000000000000E+00
(PID.TID 0000.0001)     ;
(PID.TID 0000.0001) gravitySign = /* gravity orientation relative to vertical coordinate */
(PID.TID 0000.0001)                -1.000000000000000E+00
(PID.TID 0000.0001)     ;
(PID.TID 0000.0001) seaLev_Z =  /* reference height of sea-level [m] */
(PID.TID 0000.0001)                 0.000000000000000E+00
(PID.TID 0000.0001)     ;
(PID.TID 0000.0001) top_Pres =  /* reference pressure at the top [Pa] */
(PID.TID 0000.0001)                 0.000000000000000E+00
(PID.TID 0000.0001)     ;
(PID.TID 0000.0001) mass2rUnit = /* convert mass per unit area [kg/m2] to r-units [m] */
(PID.TID 0000.0001)                 1.000000000000000E-03
(PID.TID 0000.0001)     ;
(PID.TID 0000.0001) rUnit2mass = /* convert r-units [m] to mass per unit area [kg/m2] */
(PID.TID 0000.0001)                 1.000000000000000E+03
(PID.TID 0000.0001)     ;
(PID.TID 0000.0001) drC =   /* C spacing ( units of r ) */
(PID.TID 0000.0001)                 5.000000000000000E+00,      /* K =  1 */
(PID.TID 0000.0001)    89 @  1.000000000000000E+01,             /* K =  2: 90 */
(PID.TID 0000.0001)                 5.000000000000000E+00       /* K = 91 */
(PID.TID 0000.0001)     ;
(PID.TID 0000.0001) drF =   /* W spacing ( units of r ) */
(PID.TID 0000.0001)    90 @  1.000000000000000E+01              /* K =  1: 90 */
(PID.TID 0000.0001)     ;
(PID.TID 0000.0001) delX = /* U spacing ( m - cartesian, degrees - spherical ) */
(PID.TID 0000.0001)     3 @  1.250000000000000E-01              /* I =  1:  3 */
(PID.TID 0000.0001)     ;
(PID.TID 0000.0001) delY = /* V spacing ( m - cartesian, degrees - spherical ) */
(PID.TID 0000.0001)   200 @  7.812500000000000E-03              /* J =  1:200 */
(PID.TID 0000.0001)     ;
(PID.TID 0000.0001) xgOrigin = /* X-axis origin of West  edge (cartesian: m, lat-lon: deg) */
(PID.TID 0000.0001)                -1.055000000000000E+02
(PID.TID 0000.0001)     ;
(PID.TID 0000.0001) ygOrigin = /* Y-axis origin of South edge (cartesian: m, lat-lon: deg) */
(PID.TID 0000.0001)                -7.544570000000000E+01
(PID.TID 0000.0001)     ;
(PID.TID 0000.0001) rSphere =  /* Radius ( ignored - cartesian, m - spherical ) */
(PID.TID 0000.0001)                 6.370000000000000E+06
(PID.TID 0000.0001)     ;
(PID.TID 0000.0001) deepAtmosphere = /* Deep/Shallow Atmosphere flag (True/False) */
(PID.TID 0000.0001)                   F
(PID.TID 0000.0001)     ;
(PID.TID 0000.0001) xC =  /* xC(:,1,:,1) : P-point X coord ( deg. or m if cartesian) */
(PID.TID 0000.0001)                -1.054375000000000E+02,      /* I =  1 */
(PID.TID 0000.0001)                -1.053125000000000E+02,      /* I =  2 */
(PID.TID 0000.0001)                -1.051875000000000E+02       /* I =  3 */
(PID.TID 0000.0001)     ;
(PID.TID 0000.0001) yC =  /* yC(1,:,1,:) : P-point Y coord ( deg. or m if cartesian) */
(PID.TID 0000.0001)                -7.544179375000000E+01,      /* J =  1 */
(PID.TID 0000.0001)                -7.543398125000000E+01,      /* J =  2 */
(PID.TID 0000.0001)                -7.542616875000000E+01,      /* J =  3 */
(PID.TID 0000.0001)      . . .
(PID.TID 0000.0001)                -7.507460625000000E+01,      /* J = 48 */
(PID.TID 0000.0001)                -7.506679375000000E+01,      /* J = 49 */
(PID.TID 0000.0001)                -7.505898125000000E+01,      /* J = 50 */
(PID.TID 0000.0001)                -7.505116875000000E+01,      /* J = 51 */
(PID.TID 0000.0001)                -7.504335625000000E+01,      /* J = 52 */
(PID.TID 0000.0001)                -7.503554375000000E+01,      /* J = 53 */
(PID.TID 0000.0001)      . . .
(PID.TID 0000.0001)                -7.468398125000000E+01,      /* J = 98 */
(PID.TID 0000.0001)                -7.467616875000000E+01,      /* J = 99 */
(PID.TID 0000.0001)                -7.466835625000000E+01,      /* J =100 */
(PID.TID 0000.0001)                -7.466054375000000E+01,      /* J =101 */
(PID.TID 0000.0001)                -7.465273125000000E+01,      /* J =102 */
(PID.TID 0000.0001)                -7.464491875000000E+01,      /* J =103 */
(PID.TID 0000.0001)      . . .
(PID.TID 0000.0001)                -7.429335625000000E+01,      /* J =148 */
(PID.TID 0000.0001)                -7.428554375000000E+01,      /* J =149 */
(PID.TID 0000.0001)                -7.427773125000000E+01,      /* J =150 */
(PID.TID 0000.0001)                -7.426991875000000E+01,      /* J =151 */
(PID.TID 0000.0001)                -7.426210625000000E+01,      /* J =152 */
(PID.TID 0000.0001)                -7.425429375000000E+01,      /* J =153 */
(PID.TID 0000.0001)      . . .
(PID.TID 0000.0001)                -7.390273125000000E+01,      /* J =198 */
(PID.TID 0000.0001)                -7.389491875000000E+01,      /* J =199 */
(PID.TID 0000.0001)                -7.388710625000000E+01       /* J =200 */
(PID.TID 0000.0001)     ;
(PID.TID 0000.0001) rcoord = /* P-point R coordinate (  units of r ) */
(PID.TID 0000.0001)                -5.000000000000000E+00,      /* K =  1 */
(PID.TID 0000.0001)                -1.500000000000000E+01,      /* K =  2 */
(PID.TID 0000.0001)                -2.500000000000000E+01,      /* K =  3 */
(PID.TID 0000.0001)                -3.500000000000000E+01,      /* K =  4 */
(PID.TID 0000.0001)                -4.500000000000000E+01,      /* K =  5 */
(PID.TID 0000.0001)                -5.500000000000000E+01,      /* K =  6 */
(PID.TID 0000.0001)                -6.500000000000000E+01,      /* K =  7 */
(PID.TID 0000.0001)                -7.500000000000000E+01,      /* K =  8 */
(PID.TID 0000.0001)                -8.500000000000000E+01,      /* K =  9 */
(PID.TID 0000.0001)                -9.500000000000000E+01,      /* K = 10 */
(PID.TID 0000.0001)                -1.050000000000000E+02,      /* K = 11 */
(PID.TID 0000.0001)                -1.150000000000000E+02,      /* K = 12 */
(PID.TID 0000.0001)                -1.250000000000000E+02,      /* K = 13 */
(PID.TID 0000.0001)                -1.350000000000000E+02,      /* K = 14 */
(PID.TID 0000.0001)                -1.450000000000000E+02,      /* K = 15 */
(PID.TID 0000.0001)                -1.550000000000000E+02,      /* K = 16 */
(PID.TID 0000.0001)                -1.650000000000000E+02,      /* K = 17 */
(PID.TID 0000.0001)                -1.750000000000000E+02,      /* K = 18 */
(PID.TID 0000.0001)                -1.850000000000000E+02,      /* K = 19 */
(PID.TID 0000.0001)                -1.950000000000000E+02,      /* K = 20 */
(PID.TID 0000.0001)                -2.050000000000000E+02,      /* K = 21 */
(PID.TID 0000.0001)                -2.150000000000000E+02,      /* K = 22 */
(PID.TID 0000.0001)                -2.250000000000000E+02,      /* K = 23 */
(PID.TID 0000.0001)                -2.350000000000000E+02,      /* K = 24 */
(PID.TID 0000.0001)                -2.450000000000000E+02,      /* K = 25 */
(PID.TID 0000.0001)                -2.550000000000000E+02,      /* K = 26 */
(PID.TID 0000.0001)                -2.650000000000000E+02,      /* K = 27 */
(PID.TID 0000.0001)                -2.750000000000000E+02,      /* K = 28 */
(PID.TID 0000.0001)                -2.850000000000000E+02,      /* K = 29 */
(PID.TID 0000.0001)                -2.950000000000000E+02,      /* K = 30 */
(PID.TID 0000.0001)                -3.050000000000000E+02,      /* K = 31 */
(PID.TID 0000.0001)                -3.150000000000000E+02,      /* K = 32 */
(PID.TID 0000.0001)                -3.250000000000000E+02,      /* K = 33 */
(PID.TID 0000.0001)                -3.350000000000000E+02,      /* K = 34 */
(PID.TID 0000.0001)                -3.450000000000000E+02,      /* K = 35 */
(PID.TID 0000.0001)                -3.550000000000000E+02,      /* K = 36 */
(PID.TID 0000.0001)                -3.650000000000000E+02,      /* K = 37 */
(PID.TID 0000.0001)                -3.750000000000000E+02,      /* K = 38 */
(PID.TID 0000.0001)                -3.850000000000000E+02,      /* K = 39 */
(PID.TID 0000.0001)                -3.950000000000000E+02,      /* K = 40 */
(PID.TID 0000.0001)                -4.050000000000000E+02,      /* K = 41 */
(PID.TID 0000.0001)                -4.150000000000000E+02,      /* K = 42 */
(PID.TID 0000.0001)                -4.250000000000000E+02,      /* K = 43 */
(PID.TID 0000.0001)                -4.350000000000000E+02,      /* K = 44 */
(PID.TID 0000.0001)                -4.450000000000000E+02,      /* K = 45 */
(PID.TID 0000.0001)                -4.550000000000000E+02,      /* K = 46 */
(PID.TID 0000.0001)                -4.650000000000000E+02,      /* K = 47 */
(PID.TID 0000.0001)                -4.750000000000000E+02,      /* K = 48 */
(PID.TID 0000.0001)                -4.850000000000000E+02,      /* K = 49 */
(PID.TID 0000.0001)                -4.950000000000000E+02,      /* K = 50 */
(PID.TID 0000.0001)                -5.050000000000000E+02,      /* K = 51 */
(PID.TID 0000.0001)                -5.150000000000000E+02,      /* K = 52 */
(PID.TID 0000.0001)                -5.250000000000000E+02,      /* K = 53 */
(PID.TID 0000.0001)                -5.350000000000000E+02,      /* K = 54 */
(PID.TID 0000.0001)                -5.450000000000000E+02,      /* K = 55 */
(PID.TID 0000.0001)                -5.550000000000000E+02,      /* K = 56 */
(PID.TID 0000.0001)                -5.650000000000000E+02,      /* K = 57 */
(PID.TID 0000.0001)                -5.750000000000000E+02,      /* K = 58 */
(PID.TID 0000.0001)                -5.850000000000000E+02,      /* K = 59 */
(PID.TID 0000.0001)                -5.950000000000000E+02,      /* K = 60 */
(PID.TID 0000.0001)                -6.050000000000000E+02,      /* K = 61 */
(PID.TID 0000.0001)                -6.150000000000000E+02,      /* K = 62 */
(PID.TID 0000.0001)                -6.250000000000000E+02,      /* K = 63 */
(PID.TID 0000.0001)                -6.350000000000000E+02,      /* K = 64 */
(PID.TID 0000.0001)                -6.450000000000000E+02,      /* K = 65 */
(PID.TID 0000.0001)                -6.550000000000000E+02,      /* K = 66 */
(PID.TID 0000.0001)                -6.650000000000000E+02,      /* K = 67 */
(PID.TID 0000.0001)                -6.750000000000000E+02,      /* K = 68 */
(PID.TID 0000.0001)                -6.850000000000000E+02,      /* K = 69 */
(PID.TID 0000.0001)                -6.950000000000000E+02,      /* K = 70 */
(PID.TID 0000.0001)                -7.050000000000000E+02,      /* K = 71 */
(PID.TID 0000.0001)                -7.150000000000000E+02,      /* K = 72 */
(PID.TID 0000.0001)                -7.250000000000000E+02,      /* K = 73 */
(PID.TID 0000.0001)                -7.350000000000000E+02,      /* K = 74 */
(PID.TID 0000.0001)                -7.450000000000000E+02,      /* K = 75 */
(PID.TID 0000.0001)                -7.550000000000000E+02,      /* K = 76 */
(PID.TID 0000.0001)                -7.650000000000000E+02,      /* K = 77 */
(PID.TID 0000.0001)                -7.750000000000000E+02,      /* K = 78 */
(PID.TID 0000.0001)                -7.850000000000000E+02,      /* K = 79 */
(PID.TID 0000.0001)                -7.950000000000000E+02,      /* K = 80 */
(PID.TID 0000.0001)                -8.050000000000000E+02,      /* K = 81 */
(PID.TID 0000.0001)                -8.150000000000000E+02,      /* K = 82 */
(PID.TID 0000.0001)                -8.250000000000000E+02,      /* K = 83 */
(PID.TID 0000.0001)                -8.350000000000000E+02,      /* K = 84 */
(PID.TID 0000.0001)                -8.450000000000000E+02,      /* K = 85 */
(PID.TID 0000.0001)                -8.550000000000000E+02,      /* K = 86 */
(PID.TID 0000.0001)                -8.650000000000000E+02,      /* K = 87 */
(PID.TID 0000.0001)                -8.750000000000000E+02,      /* K = 88 */
(PID.TID 0000.0001)                -8.850000000000000E+02,      /* K = 89 */
(PID.TID 0000.0001)                -8.950000000000000E+02       /* K = 90 */
(PID.TID 0000.0001)     ;
(PID.TID 0000.0001) rF =   /* W-Interf. R coordinate (  units of r ) */
(PID.TID 0000.0001)                 0.000000000000000E+00,      /* K =  1 */
(PID.TID 0000.0001)                -1.000000000000000E+01,      /* K =  2 */
(PID.TID 0000.0001)                -2.000000000000000E+01,      /* K =  3 */
(PID.TID 0000.0001)                -3.000000000000000E+01,      /* K =  4 */
(PID.TID 0000.0001)                -4.000000000000000E+01,      /* K =  5 */
(PID.TID 0000.0001)                -5.000000000000000E+01,      /* K =  6 */
(PID.TID 0000.0001)                -6.000000000000000E+01,      /* K =  7 */
(PID.TID 0000.0001)                -7.000000000000000E+01,      /* K =  8 */
(PID.TID 0000.0001)                -8.000000000000000E+01,      /* K =  9 */
(PID.TID 0000.0001)                -9.000000000000000E+01,      /* K = 10 */
(PID.TID 0000.0001)                -1.000000000000000E+02,      /* K = 11 */
(PID.TID 0000.0001)                -1.100000000000000E+02,      /* K = 12 */
(PID.TID 0000.0001)                -1.200000000000000E+02,      /* K = 13 */
(PID.TID 0000.0001)                -1.300000000000000E+02,      /* K = 14 */
(PID.TID 0000.0001)                -1.400000000000000E+02,      /* K = 15 */
(PID.TID 0000.0001)                -1.500000000000000E+02,      /* K = 16 */
(PID.TID 0000.0001)                -1.600000000000000E+02,      /* K = 17 */
(PID.TID 0000.0001)                -1.700000000000000E+02,      /* K = 18 */
(PID.TID 0000.0001)                -1.800000000000000E+02,      /* K = 19 */
(PID.TID 0000.0001)                -1.900000000000000E+02,      /* K = 20 */
(PID.TID 0000.0001)                -2.000000000000000E+02,      /* K = 21 */
(PID.TID 0000.0001)                -2.100000000000000E+02,      /* K = 22 */
(PID.TID 0000.0001)                -2.200000000000000E+02,      /* K = 23 */
(PID.TID 0000.0001)                -2.300000000000000E+02,      /* K = 24 */
(PID.TID 0000.0001)                -2.400000000000000E+02,      /* K = 25 */
(PID.TID 0000.0001)                -2.500000000000000E+02,      /* K = 26 */
(PID.TID 0000.0001)                -2.600000000000000E+02,      /* K = 27 */
(PID.TID 0000.0001)                -2.700000000000000E+02,      /* K = 28 */
(PID.TID 0000.0001)                -2.800000000000000E+02,      /* K = 29 */
(PID.TID 0000.0001)                -2.900000000000000E+02,      /* K = 30 */
(PID.TID 0000.0001)                -3.000000000000000E+02,      /* K = 31 */
(PID.TID 0000.0001)                -3.100000000000000E+02,      /* K = 32 */
(PID.TID 0000.0001)                -3.200000000000000E+02,      /* K = 33 */
(PID.TID 0000.0001)                -3.300000000000000E+02,      /* K = 34 */
(PID.TID 0000.0001)                -3.400000000000000E+02,      /* K = 35 */
(PID.TID 0000.0001)                -3.500000000000000E+02,      /* K = 36 */
(PID.TID 0000.0001)                -3.600000000000000E+02,      /* K = 37 */
(PID.TID 0000.0001)                -3.700000000000000E+02,      /* K = 38 */
(PID.TID 0000.0001)                -3.800000000000000E+02,      /* K = 39 */
(PID.TID 0000.0001)                -3.900000000000000E+02,      /* K = 40 */
(PID.TID 0000.0001)                -4.000000000000000E+02,      /* K = 41 */
(PID.TID 0000.0001)                -4.100000000000000E+02,      /* K = 42 */
(PID.TID 0000.0001)                -4.200000000000000E+02,      /* K = 43 */
(PID.TID 0000.0001)                -4.300000000000000E+02,      /* K = 44 */
(PID.TID 0000.0001)                -4.400000000000000E+02,      /* K = 45 */
(PID.TID 0000.0001)                -4.500000000000000E+02,      /* K = 46 */
(PID.TID 0000.0001)                -4.600000000000000E+02,      /* K = 47 */
(PID.TID 0000.0001)                -4.700000000000000E+02,      /* K = 48 */
(PID.TID 0000.0001)                -4.800000000000000E+02,      /* K = 49 */
(PID.TID 0000.0001)                -4.900000000000000E+02,      /* K = 50 */
(PID.TID 0000.0001)                -5.000000000000000E+02,      /* K = 51 */
(PID.TID 0000.0001)                -5.100000000000000E+02,      /* K = 52 */
(PID.TID 0000.0001)                -5.200000000000000E+02,      /* K = 53 */
(PID.TID 0000.0001)                -5.300000000000000E+02,      /* K = 54 */
(PID.TID 0000.0001)                -5.400000000000000E+02,      /* K = 55 */
(PID.TID 0000.0001)                -5.500000000000000E+02,      /* K = 56 */
(PID.TID 0000.0001)                -5.600000000000000E+02,      /* K = 57 */
(PID.TID 0000.0001)                -5.700000000000000E+02,      /* K = 58 */
(PID.TID 0000.0001)                -5.800000000000000E+02,      /* K = 59 */
(PID.TID 0000.0001)                -5.900000000000000E+02,      /* K = 60 */
(PID.TID 0000.0001)                -6.000000000000000E+02,      /* K = 61 */
(PID.TID 0000.0001)                -6.100000000000000E+02,      /* K = 62 */
(PID.TID 0000.0001)                -6.200000000000000E+02,      /* K = 63 */
(PID.TID 0000.0001)                -6.300000000000000E+02,      /* K = 64 */
(PID.TID 0000.0001)                -6.400000000000000E+02,      /* K = 65 */
(PID.TID 0000.0001)                -6.500000000000000E+02,      /* K = 66 */
(PID.TID 0000.0001)                -6.600000000000000E+02,      /* K = 67 */
(PID.TID 0000.0001)                -6.700000000000000E+02,      /* K = 68 */
(PID.TID 0000.0001)                -6.800000000000000E+02,      /* K = 69 */
(PID.TID 0000.0001)                -6.900000000000000E+02,      /* K = 70 */
(PID.TID 0000.0001)                -7.000000000000000E+02,      /* K = 71 */
(PID.TID 0000.0001)                -7.100000000000000E+02,      /* K = 72 */
(PID.TID 0000.0001)                -7.200000000000000E+02,      /* K = 73 */
(PID.TID 0000.0001)                -7.300000000000000E+02,      /* K = 74 */
(PID.TID 0000.0001)                -7.400000000000000E+02,      /* K = 75 */
(PID.TID 0000.0001)                -7.500000000000000E+02,      /* K = 76 */
(PID.TID 0000.0001)                -7.600000000000000E+02,      /* K = 77 */
(PID.TID 0000.0001)                -7.700000000000000E+02,      /* K = 78 */
(PID.TID 0000.0001)                -7.800000000000000E+02,      /* K = 79 */
(PID.TID 0000.0001)                -7.900000000000000E+02,      /* K = 80 */
(PID.TID 0000.0001)                -8.000000000000000E+02,      /* K = 81 */
(PID.TID 0000.0001)                -8.100000000000000E+02,      /* K = 82 */
(PID.TID 0000.0001)                -8.200000000000000E+02,      /* K = 83 */
(PID.TID 0000.0001)                -8.300000000000000E+02,      /* K = 84 */
(PID.TID 0000.0001)                -8.400000000000000E+02,      /* K = 85 */
(PID.TID 0000.0001)                -8.500000000000000E+02,      /* K = 86 */
(PID.TID 0000.0001)                -8.600000000000000E+02,      /* K = 87 */
(PID.TID 0000.0001)                -8.700000000000000E+02,      /* K = 88 */
(PID.TID 0000.0001)                -8.800000000000000E+02,      /* K = 89 */
(PID.TID 0000.0001)                -8.900000000000000E+02,      /* K = 90 */
(PID.TID 0000.0001)                -9.000000000000000E+02       /* K = 91 */
(PID.TID 0000.0001)     ;
(PID.TID 0000.0001) deepFacC = /* deep-model grid factor @ cell-Center (-) */
(PID.TID 0000.0001)    90 @  1.000000000000000E+00              /* K =  1: 90 */
(PID.TID 0000.0001)     ;
(PID.TID 0000.0001) deepFacF = /* deep-model grid factor @ W-Interface (-) */
(PID.TID 0000.0001)    91 @  1.000000000000000E+00              /* K =  1: 91 */
(PID.TID 0000.0001)     ;
(PID.TID 0000.0001) rVel2wUnit = /* convert units: rVel -> wSpeed (=1 if z-coord)*/
(PID.TID 0000.0001)    91 @  1.000000000000000E+00              /* K =  1: 91 */
(PID.TID 0000.0001)     ;
(PID.TID 0000.0001) wUnit2rVel = /* convert units: wSpeed -> rVel (=1 if z-coord)*/
(PID.TID 0000.0001)    91 @  1.000000000000000E+00              /* K =  1: 91 */
(PID.TID 0000.0001)     ;
(PID.TID 0000.0001) dBdrRef = /* Vertical grad. of reference buoyancy [(m/s/r)^2] */
(PID.TID 0000.0001)    90 @  0.000000000000000E+00              /* K =  1: 90 */
(PID.TID 0000.0001)     ;
(PID.TID 0000.0001) rotateGrid = /* use rotated grid ( True/False ) */
(PID.TID 0000.0001)                   F
(PID.TID 0000.0001)     ;
(PID.TID 0000.0001) phiEuler = /* Euler angle, rotation about original z-coordinate [rad] */
(PID.TID 0000.0001)                 0.000000000000000E+00
(PID.TID 0000.0001)     ;
(PID.TID 0000.0001) thetaEuler = /* Euler angle, rotation about new x-coordinate [rad] */
(PID.TID 0000.0001)                 0.000000000000000E+00
(PID.TID 0000.0001)     ;
(PID.TID 0000.0001) psiEuler = /* Euler angle, rotation about new z-coordinate [rad] */
(PID.TID 0000.0001)                 0.000000000000000E+00
(PID.TID 0000.0001)     ;
(PID.TID 0000.0001) dxF =  /* dxF(:,1,:,1) ( units: m ) */
(PID.TID 0000.0001)     3 @  3.493243558711626E+03              /* I =  1:  3 */
(PID.TID 0000.0001)     ;
(PID.TID 0000.0001) dxF =  /* dxF(1,:,1,:) ( units: m ) */
(PID.TID 0000.0001)                 3.493243558711626E+03,      /* J =  1 */
(PID.TID 0000.0001)                 3.495077619691311E+03,      /* J =  2 */
(PID.TID 0000.0001)                 3.496911615689215E+03,      /* J =  3 */
(PID.TID 0000.0001)      . . .
(PID.TID 0000.0001)                 3.579373626761998E+03,      /* J = 48 */
(PID.TID 0000.0001)                 3.581204596757318E+03,      /* J = 49 */
(PID.TID 0000.0001)                 3.583035500169550E+03,      /* J = 50 */
(PID.TID 0000.0001)                 3.584866336964656E+03,      /* J = 51 */
(PID.TID 0000.0001)                 3.586697107108589E+03,      /* J = 52 */
(PID.TID 0000.0001)                 3.588527810567320E+03,      /* J = 53 */
(PID.TID 0000.0001)      . . .
(PID.TID 0000.0001)                 3.670839895332228E+03,      /* J = 98 */
(PID.TID 0000.0001)                 3.672667494497579E+03,      /* J = 99 */
(PID.TID 0000.0001)                 3.674495025379331E+03,      /* J =100 */
(PID.TID 0000.0001)                 3.676322487943506E+03,      /* J =101 */
(PID.TID 0000.0001)                 3.678149882156126E+03,      /* J =102 */
(PID.TID 0000.0001)                 3.679977207983216E+03,      /* J =103 */
(PID.TID 0000.0001)      . . .
(PID.TID 0000.0001)                 3.762135540512856E+03,      /* J =148 */
(PID.TID 0000.0001)                 3.763959683900060E+03,      /* J =149 */
(PID.TID 0000.0001)                 3.765783757306327E+03,      /* J =150 */
(PID.TID 0000.0001)                 3.767607760697741E+03,      /* J =151 */
(PID.TID 0000.0001)                 3.769431694040391E+03,      /* J =152 */
(PID.TID 0000.0001)                 3.771255557300366E+03,      /* J =153 */
(PID.TID 0000.0001)      . . .
(PID.TID 0000.0001)                 3.853256318813865E+03,      /* J =198 */
(PID.TID 0000.0001)                 3.855076921635369E+03,      /* J =199 */
(PID.TID 0000.0001)                 3.856897452781851E+03       /* J =200 */
(PID.TID 0000.0001)     ;
(PID.TID 0000.0001) dyF =  /* dyF(:,1,:,1) ( units: m ) */
(PID.TID 0000.0001)     3 @  8.685740105628031E+02              /* I =  1:  3 */
(PID.TID 0000.0001)     ;
(PID.TID 0000.0001) dyF =  /* dyF(1,:,1,:) ( units: m ) */
(PID.TID 0000.0001)   200 @  8.685740105628031E+02              /* J =  1:200 */
(PID.TID 0000.0001)     ;
(PID.TID 0000.0001) dxG =  /* dxG(:,1,:,1) ( units: m ) */
(PID.TID 0000.0001)     3 @  3.492326503864269E+03              /* I =  1:  3 */
(PID.TID 0000.0001)     ;
(PID.TID 0000.0001) dxG =  /* dxG(1,:,1,:) ( units: m ) */
(PID.TID 0000.0001)                 3.492326503864269E+03,      /* J =  1 */
(PID.TID 0000.0001)                 3.494160597322058E+03,      /* J =  2 */
(PID.TID 0000.0001)                 3.495994625815115E+03,      /* J =  3 */
(PID.TID 0000.0001)      . . .
(PID.TID 0000.0001)                 3.578458116806316E+03,      /* J = 48 */
(PID.TID 0000.0001)                 3.580289120080414E+03,      /* J = 49 */
(PID.TID 0000.0001)                 3.582120056788447E+03,      /* J = 50 */
(PID.TID 0000.0001)                 3.583950926896370E+03,      /* J = 51 */
(PID.TID 0000.0001)                 3.585781730370146E+03,      /* J = 52 */
(PID.TID 0000.0001)                 3.587612467175734E+03,      /* J = 53 */
(PID.TID 0000.0001)      . . .
(PID.TID 0000.0001)                 3.669926070153822E+03,      /* J = 98 */
(PID.TID 0000.0001)                 3.671753703448232E+03,      /* J = 99 */
(PID.TID 0000.0001)                 3.673581268476031E+03,      /* J =100 */
(PID.TID 0000.0001)                 3.675408765203241E+03,      /* J =101 */
(PID.TID 0000.0001)                 3.677236193595885E+03,      /* J =102 */
(PID.TID 0000.0001)                 3.679063553619987E+03,      /* J =103 */
(PID.TID 0000.0001)      . . .
(PID.TID 0000.0001)                 3.761223442587002E+03,      /* J =148 */
(PID.TID 0000.0001)                 3.763047620951957E+03,      /* J =149 */
(PID.TID 0000.0001)                 3.764871729352928E+03,      /* J =150 */
(PID.TID 0000.0001)                 3.766695767756008E+03,      /* J =151 */
(PID.TID 0000.0001)                 3.768519736127280E+03,      /* J =152 */
(PID.TID 0000.0001)                 3.770343634432832E+03,      /* J =153 */
(PID.TID 0000.0001)      . . .
(PID.TID 0000.0001)                 3.852345990535555E+03,      /* J =198 */
(PID.TID 0000.0001)                 3.854166629181878E+03,      /* J =199 */
(PID.TID 0000.0001)                 3.855987196170102E+03       /* J =200 */
(PID.TID 0000.0001)     ;
(PID.TID 0000.0001) dyG =  /* dyG(:,1,:,1) ( units: m ) */
(PID.TID 0000.0001)     3 @  8.685740105628031E+02              /* I =  1:  3 */
(PID.TID 0000.0001)     ;
(PID.TID 0000.0001) dyG =  /* dyG(1,:,1,:) ( units: m ) */
(PID.TID 0000.0001)   200 @  8.685740105628031E+02              /* J =  1:200 */
(PID.TID 0000.0001)     ;
(PID.TID 0000.0001) dxC =  /* dxC(:,1,:,1) ( units: m ) */
(PID.TID 0000.0001)     3 @  3.493243558711626E+03              /* I =  1:  3 */
(PID.TID 0000.0001)     ;
(PID.TID 0000.0001) dxC =  /* dxC(1,:,1,:) ( units: m ) */
(PID.TID 0000.0001)                 3.493243558711626E+03,      /* J =  1 */
(PID.TID 0000.0001)                 3.495077619691311E+03,      /* J =  2 */
(PID.TID 0000.0001)                 3.496911615689215E+03,      /* J =  3 */
(PID.TID 0000.0001)      . . .
(PID.TID 0000.0001)                 3.579373626761998E+03,      /* J = 48 */
(PID.TID 0000.0001)                 3.581204596757318E+03,      /* J = 49 */
(PID.TID 0000.0001)                 3.583035500169550E+03,      /* J = 50 */
(PID.TID 0000.0001)                 3.584866336964656E+03,      /* J = 51 */
(PID.TID 0000.0001)                 3.586697107108589E+03,      /* J = 52 */
(PID.TID 0000.0001)                 3.588527810567320E+03,      /* J = 53 */
(PID.TID 0000.0001)      . . .
(PID.TID 0000.0001)                 3.670839895332228E+03,      /* J = 98 */
(PID.TID 0000.0001)                 3.672667494497579E+03,      /* J = 99 */
(PID.TID 0000.0001)                 3.674495025379331E+03,      /* J =100 */
(PID.TID 0000.0001)                 3.676322487943506E+03,      /* J =101 */
(PID.TID 0000.0001)                 3.678149882156126E+03,      /* J =102 */
(PID.TID 0000.0001)                 3.679977207983216E+03,      /* J =103 */
(PID.TID 0000.0001)      . . .
(PID.TID 0000.0001)                 3.762135540512856E+03,      /* J =148 */
(PID.TID 0000.0001)                 3.763959683900060E+03,      /* J =149 */
(PID.TID 0000.0001)                 3.765783757306327E+03,      /* J =150 */
(PID.TID 0000.0001)                 3.767607760697741E+03,      /* J =151 */
(PID.TID 0000.0001)                 3.769431694040391E+03,      /* J =152 */
(PID.TID 0000.0001)                 3.771255557300366E+03,      /* J =153 */
(PID.TID 0000.0001)      . . .
(PID.TID 0000.0001)                 3.853256318813865E+03,      /* J =198 */
(PID.TID 0000.0001)                 3.855076921635369E+03,      /* J =199 */
(PID.TID 0000.0001)                 3.856897452781851E+03       /* J =200 */
(PID.TID 0000.0001)     ;
(PID.TID 0000.0001) dyC =  /* dyC(:,1,:,1) ( units: m ) */
(PID.TID 0000.0001)     3 @  8.685740105628031E+02              /* I =  1:  3 */
(PID.TID 0000.0001)     ;
(PID.TID 0000.0001) dyC =  /* dyC(1,:,1,:) ( units: m ) */
(PID.TID 0000.0001)   200 @  8.685740105628031E+02              /* J =  1:200 */
(PID.TID 0000.0001)     ;
(PID.TID 0000.0001) dxV =  /* dxV(:,1,:,1) ( units: m ) */
(PID.TID 0000.0001)     3 @  3.492326503864269E+03              /* I =  1:  3 */
(PID.TID 0000.0001)     ;
(PID.TID 0000.0001) dxV =  /* dxV(1,:,1,:) ( units: m ) */
(PID.TID 0000.0001)                 3.492326503864269E+03,      /* J =  1 */
(PID.TID 0000.0001)                 3.494160597322058E+03,      /* J =  2 */
(PID.TID 0000.0001)                 3.495994625815115E+03,      /* J =  3 */
(PID.TID 0000.0001)      . . .
(PID.TID 0000.0001)                 3.578458116806316E+03,      /* J = 48 */
(PID.TID 0000.0001)                 3.580289120080414E+03,      /* J = 49 */
(PID.TID 0000.0001)                 3.582120056788447E+03,      /* J = 50 */
(PID.TID 0000.0001)                 3.583950926896370E+03,      /* J = 51 */
(PID.TID 0000.0001)                 3.585781730370146E+03,      /* J = 52 */
(PID.TID 0000.0001)                 3.587612467175734E+03,      /* J = 53 */
(PID.TID 0000.0001)      . . .
(PID.TID 0000.0001)                 3.669926070153822E+03,      /* J = 98 */
(PID.TID 0000.0001)                 3.671753703448232E+03,      /* J = 99 */
(PID.TID 0000.0001)                 3.673581268476031E+03,      /* J =100 */
(PID.TID 0000.0001)                 3.675408765203241E+03,      /* J =101 */
(PID.TID 0000.0001)                 3.677236193595885E+03,      /* J =102 */
(PID.TID 0000.0001)                 3.679063553619987E+03,      /* J =103 */
(PID.TID 0000.0001)      . . .
(PID.TID 0000.0001)                 3.761223442587002E+03,      /* J =148 */
(PID.TID 0000.0001)                 3.763047620951957E+03,      /* J =149 */
(PID.TID 0000.0001)                 3.764871729352928E+03,      /* J =150 */
(PID.TID 0000.0001)                 3.766695767756008E+03,      /* J =151 */
(PID.TID 0000.0001)                 3.768519736127280E+03,      /* J =152 */
(PID.TID 0000.0001)                 3.770343634432832E+03,      /* J =153 */
(PID.TID 0000.0001)      . . .
(PID.TID 0000.0001)                 3.852345990535555E+03,      /* J =198 */
(PID.TID 0000.0001)                 3.854166629181878E+03,      /* J =199 */
(PID.TID 0000.0001)                 3.855987196170102E+03       /* J =200 */
(PID.TID 0000.0001)     ;
(PID.TID 0000.0001) dyU =  /* dyU(:,1,:,1) ( units: m ) */
(PID.TID 0000.0001)     3 @  8.685740105628031E+02              /* I =  1:  3 */
(PID.TID 0000.0001)     ;
(PID.TID 0000.0001) dyU =  /* dyU(1,:,1,:) ( units: m ) */
(PID.TID 0000.0001)   200 @  8.685740105628031E+02              /* J =  1:200 */
(PID.TID 0000.0001)     ;
(PID.TID 0000.0001) rA  =  /* rA (:,1,:,1) ( units: m^2 ) */
(PID.TID 0000.0001)     3 @  3.034140565311787E+06              /* I =  1:  3 */
(PID.TID 0000.0001)     ;
(PID.TID 0000.0001) rA  =  /* rA (1,:,1,:) ( units: m^2 ) */
(PID.TID 0000.0001)                 3.034140565311787E+06,      /* J =  1 */
(PID.TID 0000.0001)                 3.035733583016748E+06,      /* J =  2 */
(PID.TID 0000.0001)                 3.037326544268204E+06,      /* J =  3 */
(PID.TID 0000.0001)      . . .
(PID.TID 0000.0001)                 3.108950903892753E+06,      /* J = 48 */
(PID.TID 0000.0001)                 3.110541236842415E+06,      /* J = 49 */
(PID.TID 0000.0001)                 3.112131511962616E+06,      /* J = 50 */
(PID.TID 0000.0001)                 3.113721729214045E+06,      /* J = 51 */
(PID.TID 0000.0001)                 3.115311888586871E+06,      /* J = 52 */
(PID.TID 0000.0001)                 3.116901990022127E+06,      /* J = 53 */
(PID.TID 0000.0001)      . . .
(PID.TID 0000.0001)                 3.188396127550019E+06,      /* J = 98 */
(PID.TID 0000.0001)                 3.189983532691603E+06,      /* J = 99 */
(PID.TID 0000.0001)                 3.191570878509831E+06,      /* J =100 */
(PID.TID 0000.0001)                 3.193158165004705E+06,      /* J =101 */
(PID.TID 0000.0001)                 3.194745392117253E+06,      /* J =102 */
(PID.TID 0000.0001)                 3.196332559837649E+06,      /* J =103 */
(PID.TID 0000.0001)      . . .
(PID.TID 0000.0001)                 3.267693152168335E+06,      /* J =148 */
(PID.TID 0000.0001)                 3.269277555701464E+06,      /* J =149 */
(PID.TID 0000.0001)                 3.270861898466484E+06,      /* J =150 */
(PID.TID 0000.0001)                 3.272446180404426E+06,      /* J =151 */
(PID.TID 0000.0001)                 3.274030401495632E+06,      /* J =152 */
(PID.TID 0000.0001)                 3.275614561720447E+06,      /* J =153 */
(PID.TID 0000.0001)      . . .
(PID.TID 0000.0001)                 3.346838291964839E+06,      /* J =198 */
(PID.TID 0000.0001)                 3.348419620256216E+06,      /* J =199 */
(PID.TID 0000.0001)                 3.350000886305247E+06       /* J =200 */
(PID.TID 0000.0001)     ;
(PID.TID 0000.0001) rAw =  /* rAw(:,1,:,1) ( units: m^2 ) */
(PID.TID 0000.0001)     3 @  3.034140565311787E+06              /* I =  1:  3 */
(PID.TID 0000.0001)     ;
(PID.TID 0000.0001) rAw =  /* rAw(1,:,1,:) ( units: m^2 ) */
(PID.TID 0000.0001)                 3.034140565311787E+06,      /* J =  1 */
(PID.TID 0000.0001)                 3.035733583016748E+06,      /* J =  2 */
(PID.TID 0000.0001)                 3.037326544268204E+06,      /* J =  3 */
(PID.TID 0000.0001)      . . .
(PID.TID 0000.0001)                 3.108950903892753E+06,      /* J = 48 */
(PID.TID 0000.0001)                 3.110541236842415E+06,      /* J = 49 */
(PID.TID 0000.0001)                 3.112131511962616E+06,      /* J = 50 */
(PID.TID 0000.0001)                 3.113721729214045E+06,      /* J = 51 */
(PID.TID 0000.0001)                 3.115311888586871E+06,      /* J = 52 */
(PID.TID 0000.0001)                 3.116901990022127E+06,      /* J = 53 */
(PID.TID 0000.0001)      . . .
(PID.TID 0000.0001)                 3.188396127550019E+06,      /* J = 98 */
(PID.TID 0000.0001)                 3.189983532691603E+06,      /* J = 99 */
(PID.TID 0000.0001)                 3.191570878509831E+06,      /* J =100 */
(PID.TID 0000.0001)                 3.193158165004705E+06,      /* J =101 */
(PID.TID 0000.0001)                 3.194745392117253E+06,      /* J =102 */
(PID.TID 0000.0001)                 3.196332559837649E+06,      /* J =103 */
(PID.TID 0000.0001)      . . .
(PID.TID 0000.0001)                 3.267693152168335E+06,      /* J =148 */
(PID.TID 0000.0001)                 3.269277555701464E+06,      /* J =149 */
(PID.TID 0000.0001)                 3.270861898466484E+06,      /* J =150 */
(PID.TID 0000.0001)                 3.272446180404426E+06,      /* J =151 */
(PID.TID 0000.0001)                 3.274030401495632E+06,      /* J =152 */
(PID.TID 0000.0001)                 3.275614561720447E+06,      /* J =153 */
(PID.TID 0000.0001)      . . .
(PID.TID 0000.0001)                 3.346838291964839E+06,      /* J =198 */
(PID.TID 0000.0001)                 3.348419620256216E+06,      /* J =199 */
(PID.TID 0000.0001)                 3.350000886305247E+06       /* J =200 */
(PID.TID 0000.0001)     ;
(PID.TID 0000.0001) rAs =  /* rAs(:,1,:,1) ( units: m^2 ) */
(PID.TID 0000.0001)     3 @  3.033344035308899E+06              /* I =  1:  3 */
(PID.TID 0000.0001)     ;
(PID.TID 0000.0001) rAs =  /* rAs(1,:,1,:) ( units: m^2 ) */
(PID.TID 0000.0001)                 3.033344035308899E+06,      /* J =  1 */
(PID.TID 0000.0001)                 3.034937081211127E+06,      /* J =  2 */
(PID.TID 0000.0001)                 3.036530070699164E+06,      /* J =  3 */
(PID.TID 0000.0001)      . . .
(PID.TID 0000.0001)                 3.108155715741703E+06,      /* J = 48 */
(PID.TID 0000.0001)                 3.109746077586438E+06,      /* J = 49 */
(PID.TID 0000.0001)                 3.111336381641027E+06,      /* J = 50 */
(PID.TID 0000.0001)                 3.112926627817013E+06,      /* J = 51 */
(PID.TID 0000.0001)                 3.114516816134055E+06,      /* J = 52 */
(PID.TID 0000.0001)                 3.116106946543010E+06,      /* J = 53 */
(PID.TID 0000.0001)      . . .
(PID.TID 0000.0001)                 3.187602402747711E+06,      /* J = 98 */
(PID.TID 0000.0001)                 3.189189837531316E+06,      /* J = 99 */
(PID.TID 0000.0001)                 3.190777213021051E+06,      /* J =100 */
(PID.TID 0000.0001)                 3.192364529177601E+06,      /* J =101 */
(PID.TID 0000.0001)                 3.193951785981312E+06,      /* J =102 */
(PID.TID 0000.0001)                 3.195538983412527E+06,      /* J =103 */
(PID.TID 0000.0001)      . . .
(PID.TID 0000.0001)                 3.266900927619873E+06,      /* J =148 */
(PID.TID 0000.0001)                 3.268485361541970E+06,      /* J =149 */
(PID.TID 0000.0001)                 3.270069734686131E+06,      /* J =150 */
(PID.TID 0000.0001)                 3.271654047032697E+06,      /* J =151 */
(PID.TID 0000.0001)                 3.273238298552185E+06,      /* J =152 */
(PID.TID 0000.0001)                 3.274822489224938E+06,      /* J =153 */
(PID.TID 0000.0001)      . . .
(PID.TID 0000.0001)                 3.346047604486870E+06,      /* J =198 */
(PID.TID 0000.0001)                 3.347628963894507E+06,      /* J =199 */
(PID.TID 0000.0001)                 3.349210261059796E+06       /* J =200 */
(PID.TID 0000.0001)     ;
(PID.TID 0000.0001) globalArea = /* Integrated horizontal Area (m^2) */
(PID.TID 0000.0001)                 1.896206941558748E+09
(PID.TID 0000.0001)     ;
(PID.TID 0000.0001) // =======================================================
(PID.TID 0000.0001) // End of Model config. summary
(PID.TID 0000.0001) // =======================================================
(PID.TID 0000.0001) 
(PID.TID 0000.0001) == Packages configuration : Check & print summary ==
(PID.TID 0000.0001) 
(PID.TID 0000.0001) OBCS_CHECK: #define ALLOW_OBCS
(PID.TID 0000.0001) OBCS_CHECK: start summary:
(PID.TID 0000.0001) useOBCSprescribe = /* prescribe OB values */
(PID.TID 0000.0001)                   T
(PID.TID 0000.0001)     ;
(PID.TID 0000.0001) useOBCSbalance = /* balance the flow through OB */
(PID.TID 0000.0001)                   T
(PID.TID 0000.0001)     ;
(PID.TID 0000.0001) OBCSbalanceSurf = /* include surf. flux in balance */
(PID.TID 0000.0001)                   F
(PID.TID 0000.0001)     ;
(PID.TID 0000.0001) OBCS_balanceFacN = /* Northern OB Factor for balancing OB flow [-] */
(PID.TID 0000.0001)                 1.000000000000000E+00
(PID.TID 0000.0001)     ;
(PID.TID 0000.0001) OBCS_balanceFacS = /* Southern OB Factor for balancing OB flow [-] */
(PID.TID 0000.0001)                 1.000000000000000E+00
(PID.TID 0000.0001)     ;
(PID.TID 0000.0001) OBCS_balanceFacE = /* Eastern  OB Factor for balancing OB flow [-] */
(PID.TID 0000.0001)                 1.000000000000000E+00
(PID.TID 0000.0001)     ;
(PID.TID 0000.0001) OBCS_balanceFacW = /* Western  OB Factor for balancing OB flow [-] */
(PID.TID 0000.0001)                 1.000000000000000E+00
(PID.TID 0000.0001)     ;
(PID.TID 0000.0001) OBCS_uvApplyFac = /* Factor to apply to U,V 2nd column/row */
(PID.TID 0000.0001)                 1.000000000000000E+00
(PID.TID 0000.0001)     ;
(PID.TID 0000.0001) OBCS_u1_adv_T = /* Temp uses upwind adv-scheme @ OB */
(PID.TID 0000.0001)                       0
(PID.TID 0000.0001)     ;
(PID.TID 0000.0001) OBCS_u1_adv_S = /* Salt uses upwind adv-scheme @ OB */
(PID.TID 0000.0001)                       0
(PID.TID 0000.0001)     ;
(PID.TID 0000.0001) OBCS_monitorFreq = /* monitor output frequency [s] */
(PID.TID 0000.0001)                 1.000000000000000E+00
(PID.TID 0000.0001)     ;
(PID.TID 0000.0001) OBCS_monSelect = /* select group of variables to monitor */
(PID.TID 0000.0001)                       0
(PID.TID 0000.0001)     ;
(PID.TID 0000.0001) useOBCStides = /* apply tidal forcing through OB */
(PID.TID 0000.0001)                   F
(PID.TID 0000.0001)     ;
(PID.TID 0000.0001) tidalPeriod = /* (s) */
(PID.TID 0000.0001)    10 @  0.000000000000000E+00              /* I =  1: 10 */
(PID.TID 0000.0001)     ;
(PID.TID 0000.0001) OB_indexNone = /* null value for OB index (i.e. no OB) */
(PID.TID 0000.0001)                     -99
(PID.TID 0000.0001)     ;
(PID.TID 0000.0001) ======== Tile bi=   1 , bj=   1 ========
(PID.TID 0000.0001)  OB_Jn = /* Northern OB local indices */
(PID.TID 0000.0001)     9 @      200                            /* I = -2:  6 */
(PID.TID 0000.0001)  OB_Js = /* Southern OB local indices */
(PID.TID 0000.0001)     9 @      -99                            /* I = -2:  6 */
(PID.TID 0000.0001)  OB_Ie = /* Eastern OB local indices */
(PID.TID 0000.0001)   206 @      -99                            /* J = -2:203 */
(PID.TID 0000.0001)  OB_Iw = /* Western OB local indices */
(PID.TID 0000.0001)   206 @      -99                            /* J = -2:203 */
(PID.TID 0000.0001) OBCS_CHECK: end summary.
(PID.TID 0000.0001) OBCS_CHECK: #define ALLOW_ORLANSKI
(PID.TID 0000.0001) OBCS_CHECK: set-up OK
(PID.TID 0000.0001) OBCS_CHECK: check Inside Mask and OB locations: OK
(PID.TID 0000.0001) SHELFICE_CHECK: #define ALLOW_SHELFICE
(PID.TID 0000.0001) 
(PID.TID 0000.0001) SHELFICE_CHECK: start of SHELFICE config. summary
(PID.TID 0000.0001) SHELFICEisOn = /* package is turned on */
(PID.TID 0000.0001)                   T
(PID.TID 0000.0001)     ;
(PID.TID 0000.0001) useISOMIPTD = /* use simple isomip thermodynamics */
(PID.TID 0000.0001)                   F
(PID.TID 0000.0001)     ;
(PID.TID 0000.0001) SHELFICEconserve = /* use a conservative form of boundary conditions */
(PID.TID 0000.0001)                   T
(PID.TID 0000.0001)     ;
(PID.TID 0000.0001) SHELFICEboundaryLayer = /* use simple boundary layer scheme to suppress noise */
(PID.TID 0000.0001)                   T
(PID.TID 0000.0001)     ;
(PID.TID 0000.0001) SHELFICEadvDiffHeatFlux = /* use adv.-diff. instead of just diff. heat flux into the ice shelf */
(PID.TID 0000.0001)                   F
(PID.TID 0000.0001)     ;
(PID.TID 0000.0001) SHELFICEMassStepping = /* step forward ice shelf mass/thickness */
(PID.TID 0000.0001)                   T
(PID.TID 0000.0001)     ;
(PID.TID 0000.0001) no_slip_shelfice = /* use no slip boundary conditions */
(PID.TID 0000.0001)                   F
(PID.TID 0000.0001)     ;
(PID.TID 0000.0001) SHELFICEdragLinear    = /* linear drag coefficient */
(PID.TID 0000.0001)                 0.000000000000000E+00
(PID.TID 0000.0001)     ;
(PID.TID 0000.0001) SHELFICEdragQuadratic = /* quadratic drag coefficient */
(PID.TID 0000.0001)                 7.500000000000000E-03
(PID.TID 0000.0001)     ;
(PID.TID 0000.0001) SHELFICEselectDragQuadr = /* select quadratic drag option */
(PID.TID 0000.0001)                       0
(PID.TID 0000.0001)     ;
(PID.TID 0000.0001) SHELFICElatentHeat      = /* latent heat of ice */
(PID.TID 0000.0001)                 3.340000000000000E+05
(PID.TID 0000.0001)     ;
(PID.TID 0000.0001) SHELFICEheatCapacity_Cp = /* heat capacity of ice shelf */
(PID.TID 0000.0001)                 2.000000000000000E+03
(PID.TID 0000.0001)     ;
(PID.TID 0000.0001) rhoShelfice   = /* density of ice shelf */
(PID.TID 0000.0001)                 9.170000000000000E+02
(PID.TID 0000.0001)     ;
(PID.TID 0000.0001) SHELFICEkappa = /* thermal conductivity of ice shelf */
(PID.TID 0000.0001)                 1.540000000000000E-06
(PID.TID 0000.0001)     ;
(PID.TID 0000.0001) SHELFICEthetaSurface = /* surface temperature above i.s. */
(PID.TID 0000.0001)                -2.000000000000000E+01
(PID.TID 0000.0001)     ;
(PID.TID 0000.0001) SHELFICEheatTransCoeff = /* heat transfer coefficient */
(PID.TID 0000.0001)                 1.000000000000000E-04
(PID.TID 0000.0001)     ;
(PID.TID 0000.0001) SHELFICEsaltTransCoeff = /* salt transfer coefficient */
(PID.TID 0000.0001)                 5.050000000000000E-07
(PID.TID 0000.0001)     ;
(PID.TID 0000.0001) SHELFICEuseGammaFrict = /* use velocity dependent exchange coefficients */
(PID.TID 0000.0001)                   T
(PID.TID 0000.0001)     ;
(PID.TID 0000.0001) SHELFICE_oldCalcUStar = /* use old uStar expression */
(PID.TID 0000.0001)                   T
(PID.TID 0000.0001)     ;
(PID.TID 0000.0001) shiCdrag   = /* quadr. drag coefficient for uStar */
(PID.TID 0000.0001)                 7.500000000000000E-03
(PID.TID 0000.0001)     ;
(PID.TID 0000.0001) shiZetaN   = /* parameter for gammaTurb */
(PID.TID 0000.0001)                 5.200000000000000E-02
(PID.TID 0000.0001)     ;
(PID.TID 0000.0001) shiRc      = /* parameter for gammaTurb (not used) */
(PID.TID 0000.0001)                 2.000000000000000E-01
(PID.TID 0000.0001)     ;
(PID.TID 0000.0001) shiPrandtl = /* const. Prandtl No. for gammaTurb */
(PID.TID 0000.0001)                 1.380000000000000E+01
(PID.TID 0000.0001)     ;
(PID.TID 0000.0001) shiSchmidt = /* const. Schmidt No. for gammaTurb */
(PID.TID 0000.0001)                 2.432000000000000E+03
(PID.TID 0000.0001)     ;
(PID.TID 0000.0001) shiKinVisc = /* const. kin. viscosity for gammaTurb */
(PID.TID 0000.0001)                 1.950000000000000E-06
(PID.TID 0000.0001)     ;
(PID.TID 0000.0001) SHELFICEloadAnomalyFile = /* file name of loaded loadAnomaly field */
(PID.TID 0000.0001)               ''
(PID.TID 0000.0001)     ;
(PID.TID 0000.0001) SHELFICEmassFile = /* file name of loaded mass field */
(PID.TID 0000.0001)               'shelficemassinit.bin'
(PID.TID 0000.0001)     ;
(PID.TID 0000.0001) SHELFICEtopoFile = /* file name of loaded under-ice topography */
(PID.TID 0000.0001)               'shelftopo.round.bin'
(PID.TID 0000.0001)     ;
(PID.TID 0000.0001) SHELFICEMassDynTendFile = /* file name of loaded dynamic mass tendency field */
(PID.TID 0000.0001)               ''
(PID.TID 0000.0001)     ;
(PID.TID 0000.0001) SHELFICEwriteState  = /* do simple standard output */
(PID.TID 0000.0001)                   T
(PID.TID 0000.0001)     ;
(PID.TID 0000.0001) SHELFICE_dump_mdsio = /* use mdsio for snapshots */
(PID.TID 0000.0001)                   T
(PID.TID 0000.0001)     ;
(PID.TID 0000.0001) SHELFICE_tave_mdsio = /* use mdsio for time averages */
(PID.TID 0000.0001)                   T
(PID.TID 0000.0001)     ;
(PID.TID 0000.0001) SHELFICE_dump_mnc   = /* use netcdf for snapshots */
(PID.TID 0000.0001)                   F
(PID.TID 0000.0001)     ;
(PID.TID 0000.0001) SHELFICE_tave_mnc   = /* use netcdf for time averages */
(PID.TID 0000.0001)                   F
(PID.TID 0000.0001)     ;
(PID.TID 0000.0001) SHELFICE_dumpFreq = /* analoguous to dumpFreq */
(PID.TID 0000.0001)                 3.000000000000000E+03
(PID.TID 0000.0001)     ;
(PID.TID 0000.0001) SHELFICE_taveFreq = /* analoguous to taveFreq */
(PID.TID 0000.0001)                 0.000000000000000E+00
(PID.TID 0000.0001)     ;
(PID.TID 0000.0001) SHELFICE_CHECK: end of SHELFICE config. summary
(PID.TID 0000.0001) STREAMICE_CHECK: #define STREAMICE
(PID.TID 0000.0001)  max cg interations = /* user defined parameter */
(PID.TID 0000.0001)                     700
(PID.TID 0000.0001)     ;
(PID.TID 0000.0001)  max nonlin interations = /* user defined parameter */
(PID.TID 0000.0001)                      70
(PID.TID 0000.0001)     ;
(PID.TID 0000.0001)  # of timesteps per velocity solve  = /* user defined parameter */
(PID.TID 0000.0001)                     144
(PID.TID 0000.0001)     ;
(PID.TID 0000.0001)  streamice_density = /* user defined parameter */
(PID.TID 0000.0001)                 9.170000000000000E+02
(PID.TID 0000.0001)     ;
(PID.TID 0000.0001)  streamice_density_ocean_avg = /* user defined parameter */
(PID.TID 0000.0001)                 1.028000000000000E+03
(PID.TID 0000.0001)     ;
(PID.TID 0000.0001)  glens law stifness = /* user defined parameter */
(PID.TID 0000.0001)                 7.000000000000000E+02
(PID.TID 0000.0001)     ;
(PID.TID 0000.0001)  glens law exponent = /* user defined parameter */
(PID.TID 0000.0001)                 3.000000000000000E+00
(PID.TID 0000.0001)     ;
(PID.TID 0000.0001)  basal trac coeff = /* user defined parameter */
(PID.TID 0000.0001)                 5.000000000000000E+00
(PID.TID 0000.0001)     ;
(PID.TID 0000.0001)  basal exponent = /* user defined parameter */
(PID.TID 0000.0001)                 1.000000000000000E+00
(PID.TID 0000.0001)     ;
(PID.TID 0000.0001)  uniform input flux (m^2/a) = /* user defined parameter */
(PID.TID 0000.0001)                 0.000000000000000E+00
(PID.TID 0000.0001)     ;
(PID.TID 0000.0001)  time for ice vel update (sec) = /* user defined parameter */
(PID.TID 0000.0001)                 4.320000000000000E+04
(PID.TID 0000.0001)     ;
(PID.TID 0000.0001)  conj grad tolerance = /* user defined parameter */
(PID.TID 0000.0001)                 1.000000000000000E-06
(PID.TID 0000.0001)     ;
(PID.TID 0000.0001)  ice velocity nonlinear iter tol = /* user defined parameter */
(PID.TID 0000.0001)                 1.000000000000000E-06
(PID.TID 0000.0001)     ;
(PID.TID 0000.0001)  max shelf draft for analytic init (m) = /* user defined parameter */
(PID.TID 0000.0001)                 0.000000000000000E+00
(PID.TID 0000.0001)     ;
(PID.TID 0000.0001)  min shelf draft for analytic init (m) = /* user defined parameter */
(PID.TID 0000.0001)                 0.000000000000000E+00
(PID.TID 0000.0001)     ;
(PID.TID 0000.0001)  shelf extent for analytic init (km) = /* user defined parameter */
(PID.TID 0000.0001)                 0.000000000000000E+00
(PID.TID 0000.0001)     ;
(PID.TID 0000.0001)  slope scale for analytic init (km) = /* user defined parameter */
(PID.TID 0000.0001)                 0.000000000000000E+00
(PID.TID 0000.0001)     ;
(PID.TID 0000.0001)  flat shelf width for analytic init (km) = /* user defined parameter */
(PID.TID 0000.0001)                 0.000000000000000E+00
(PID.TID 0000.0001)     ;
(PID.TID 0000.0001)  flow direction for analytic init = /* user defined parameter */
(PID.TID 0000.0001)                 0.000000000000000E+00
(PID.TID 0000.0001)     ;
(PID.TID 0000.0001)  min range on no bd for no-slip (km) = /* user defined parameter */
(PID.TID 0000.0001)                -2.000000000000000E+02
(PID.TID 0000.0001)     ;
(PID.TID 0000.0001)  max range on no bd for no-slip (km) = /* user defined parameter */
(PID.TID 0000.0001)                 0.000000000000000E+00
(PID.TID 0000.0001)     ;
(PID.TID 0000.0001)  min range on so bd for no-slip (km) = /* user defined parameter */
(PID.TID 0000.0001)                -2.000000000000000E+02
(PID.TID 0000.0001)     ;
(PID.TID 0000.0001)  max range on so bd for no-slip (km) = /* user defined parameter */
(PID.TID 0000.0001)                 0.000000000000000E+00
(PID.TID 0000.0001)     ;
(PID.TID 0000.0001)  min range on east bd for no-slip (km) = /* user defined parameter */
(PID.TID 0000.0001)                -1.800000000000000E+02
(PID.TID 0000.0001)     ;
(PID.TID 0000.0001)  max range on east bd for no-slip (km) = /* user defined parameter */
(PID.TID 0000.0001)                 0.000000000000000E+00
(PID.TID 0000.0001)     ;
(PID.TID 0000.0001)  min range on west bd for no-slip (km) = /* user defined parameter */
(PID.TID 0000.0001)                 0.000000000000000E+00
(PID.TID 0000.0001)     ;
(PID.TID 0000.0001)  max range on west bd for no-slip (km) = /* user defined parameter */
(PID.TID 0000.0001)                 0.000000000000000E+00
(PID.TID 0000.0001)     ;
(PID.TID 0000.0001)  min range on no bd for no-stress (km) = /* user defined parameter */
(PID.TID 0000.0001)                 0.000000000000000E+00
(PID.TID 0000.0001)     ;
(PID.TID 0000.0001)  max range on no bd for no-stress (km) = /* user defined parameter */
(PID.TID 0000.0001)                 0.000000000000000E+00
(PID.TID 0000.0001)     ;
(PID.TID 0000.0001)  min range on so bd for no-stress (km) = /* user defined parameter */
(PID.TID 0000.0001)                 0.000000000000000E+00
(PID.TID 0000.0001)     ;
(PID.TID 0000.0001)  max range on so bd for no-stress (km) = /* user defined parameter */
(PID.TID 0000.0001)                 0.000000000000000E+00
(PID.TID 0000.0001)     ;
(PID.TID 0000.0001)  min range on east bd for no-stress (km) = /* user defined parameter */
(PID.TID 0000.0001)                -1.000000000000000E+00
(PID.TID 0000.0001)     ;
(PID.TID 0000.0001)  max range on east bd for no-stress (km) = /* user defined parameter */
(PID.TID 0000.0001)                -1.000000000000000E+00
(PID.TID 0000.0001)     ;
(PID.TID 0000.0001)  min range on west bd for no-stress (km) = /* user defined parameter */
(PID.TID 0000.0001)                -1.000000000000000E+00
(PID.TID 0000.0001)     ;
(PID.TID 0000.0001)  max range on west bd for no-stress (km) = /* user defined parameter */
(PID.TID 0000.0001)                -1.000000000000000E+00
(PID.TID 0000.0001)     ;
(PID.TID 0000.0001)  min range on no bd for FluxBdry (km) = /* user defined parameter */
(PID.TID 0000.0001)                -1.000000000000000E+00
(PID.TID 0000.0001)     ;
(PID.TID 0000.0001)  max range on no bd for FluxBdry (km) = /* user defined parameter */
(PID.TID 0000.0001)                -1.000000000000000E+00
(PID.TID 0000.0001)     ;
(PID.TID 0000.0001)  min range on so bd for FluxBdry (km) = /* user defined parameter */
(PID.TID 0000.0001)                -1.000000000000000E+00
(PID.TID 0000.0001)     ;
(PID.TID 0000.0001)  max range on so bd for FluxBdry (km) = /* user defined parameter */
(PID.TID 0000.0001)                -1.000000000000000E+00
(PID.TID 0000.0001)     ;
(PID.TID 0000.0001)  min range on east bd for FluxBdry (km) = /* user defined parameter */
(PID.TID 0000.0001)                -1.800000000000000E+02
(PID.TID 0000.0001)     ;
(PID.TID 0000.0001)  max range on east bd for FluxBdry (km) = /* user defined parameter */
(PID.TID 0000.0001)                 0.000000000000000E+00
(PID.TID 0000.0001)     ;
(PID.TID 0000.0001)  min range on west bd for FluxBdry (km) = /* user defined parameter */
(PID.TID 0000.0001)                 0.000000000000000E+00
(PID.TID 0000.0001)     ;
(PID.TID 0000.0001)  max range on west bd for FluxBdry (km) = /* user defined parameter */
(PID.TID 0000.0001)                 0.000000000000000E+00
(PID.TID 0000.0001)     ;
(PID.TID 0000.0001)  min range on no bd for Dirich (km) = /* user defined parameter */
(PID.TID 0000.0001)                -1.000000000000000E+00
(PID.TID 0000.0001)     ;
(PID.TID 0000.0001)  max range on no bd for Dirich (km) = /* user defined parameter */
(PID.TID 0000.0001)                -1.000000000000000E+00
(PID.TID 0000.0001)     ;
(PID.TID 0000.0001)  min range on so bd for Dirich (km) = /* user defined parameter */
(PID.TID 0000.0001)                -1.000000000000000E+00
(PID.TID 0000.0001)     ;
(PID.TID 0000.0001)  max range on so bd for Dirich (km) = /* user defined parameter */
(PID.TID 0000.0001)                -1.000000000000000E+00
(PID.TID 0000.0001)     ;
(PID.TID 0000.0001)  min range on east bd for Dirich (km) = /* user defined parameter */
(PID.TID 0000.0001)                -1.000000000000000E+00
(PID.TID 0000.0001)     ;
(PID.TID 0000.0001)  max range on east bd for Dirich (km) = /* user defined parameter */
(PID.TID 0000.0001)                -1.000000000000000E+00
(PID.TID 0000.0001)     ;
(PID.TID 0000.0001)  min range on west bd for Dirich (km) = /* user defined parameter */
(PID.TID 0000.0001)                -1.000000000000000E+00
(PID.TID 0000.0001)     ;
(PID.TID 0000.0001)  max range on west bd for Dirich (km) = /* user defined parameter */
(PID.TID 0000.0001)                -1.000000000000000E+00
(PID.TID 0000.0001)     ;
(PID.TID 0000.0001)  min range on no bd for CFBC (km) = /* user defined parameter */
(PID.TID 0000.0001)                -1.000000000000000E+00
(PID.TID 0000.0001)     ;
(PID.TID 0000.0001)  max range on no bd for CFBC (km) = /* user defined parameter */
(PID.TID 0000.0001)                -1.000000000000000E+00
(PID.TID 0000.0001)     ;
(PID.TID 0000.0001)  min range on so bd for CFBC (km) = /* user defined parameter */
(PID.TID 0000.0001)                -1.000000000000000E+00
(PID.TID 0000.0001)     ;
(PID.TID 0000.0001)  max range on so bd for CFBC (km) = /* user defined parameter */
(PID.TID 0000.0001)                -1.000000000000000E+00
(PID.TID 0000.0001)     ;
(PID.TID 0000.0001)  min range on east bd for CFBC (km) = /* user defined parameter */
(PID.TID 0000.0001)                 0.000000000000000E+00
(PID.TID 0000.0001)     ;
(PID.TID 0000.0001)  max range on east bd for CFBC (km) = /* user defined parameter */
(PID.TID 0000.0001)                 0.000000000000000E+00
(PID.TID 0000.0001)     ;
(PID.TID 0000.0001)  min range on west bd for CFBC (km) = /* user defined parameter */
(PID.TID 0000.0001)                -1.800000000000000E+02
(PID.TID 0000.0001)     ;
(PID.TID 0000.0001)  max range on west bd for CFBC (km) = /* user defined parameter */
(PID.TID 0000.0001)                 0.000000000000000E+00
(PID.TID 0000.0001)     ;
(PID.TID 0000.0001)  val (m^2/a) for north flux bdry = /* user defined parameter */
(PID.TID 0000.0001)                 0.000000000000000E+00
(PID.TID 0000.0001)     ;
(PID.TID 0000.0001)  val (m^2/a) for south flux bdry = /* user defined parameter */
(PID.TID 0000.0001)                 0.000000000000000E+00
(PID.TID 0000.0001)     ;
(PID.TID 0000.0001)  val (m^2/a) for east flux bdry = /* user defined parameter */
(PID.TID 0000.0001)                 1.500000000000000E+06
(PID.TID 0000.0001)     ;
(PID.TID 0000.0001)  val (m^2/a) for west flux bdry = /* user defined parameter */
(PID.TID 0000.0001)                 0.000000000000000E+00
(PID.TID 0000.0001)     ;
(PID.TID 0000.0001)  streamice_dump_mdsio = /* user defined parameter */
(PID.TID 0000.0001)                   T
(PID.TID 0000.0001)     ;
(PID.TID 0000.0001)  streamice_dump_mdsio = /* user defined parameter */
(PID.TID 0000.0001)                   T
(PID.TID 0000.0001)     ;
(PID.TID 0000.0001)  streamice_dump_mnc = /* user defined parameter */
(PID.TID 0000.0001)                   F
(PID.TID 0000.0001)     ;
(PID.TID 0000.0001)  streamice_tave_mnc = /* user defined parameter */
(PID.TID 0000.0001)                   F
(PID.TID 0000.0001)     ;
(PID.TID 0000.0001)  streamice_move_front = /* user defined parameter */
(PID.TID 0000.0001)                   F
(PID.TID 0000.0001)     ;
(PID.TID 0000.0001)  streamice_calve_to_mask = /* user defined parameter */
(PID.TID 0000.0001)                   F
(PID.TID 0000.0001)     ;
(PID.TID 0000.0001) STREAMICEthickInit = /* user defined parameter */
(PID.TID 0000.0001)               'FILE'
(PID.TID 0000.0001)     ;
(PID.TID 0000.0001) STREAMICEthickFile = /* user defined parameter */
(PID.TID 0000.0001)               'h0.bin'
(PID.TID 0000.0001)     ;
(PID.TID 0000.0001) STREAMICEcalveMaskFile = /* user defined parameter */
(PID.TID 0000.0001)               ''
(PID.TID 0000.0001)     ;
(PID.TID 0000.0001) GAD_CHECK: #define ALLOW_GENERIC_ADVDIFF
(PID.TID 0000.0001) // =======================================================
(PID.TID 0000.0001) // Check Model config. (CONFIG_CHECK):
(PID.TID 0000.0001) // CONFIG_CHECK : Normal End
(PID.TID 0000.0001) // =======================================================
(PID.TID 0000.0001) 
(PID.TID 0000.0001)  nRecords = 543 ; filePrec =  64 ; fileIter =     11395
(PID.TID 0000.0001)     nDims =   2 , dims:
(PID.TID 0000.0001)    1:   3   1   3
(PID.TID 0000.0001)    2: 200   1 200
(PID.TID 0000.0001)     nFlds =   9 , nFl3D =   6 , fields:
(PID.TID 0000.0001)  >Uvel    < >Vvel    < >Theta   < >Salt    < >GuNm1   < >GvNm1   < >EtaN    < >dEtaHdt < >EtaH    <
(PID.TID 0000.0001) missingVal=  1.00000000000000E+00 ; nTimRec =   1 , timeList:
(PID.TID 0000.0001)   3.418500000000E+06
(PID.TID 0000.0001) READ_MFLDS_3D_RL: read field: "Uvel    ", #   1 in fldList, rec=   1
(PID.TID 0000.0001) READ_MFLDS_3D_RL: read field: "Vvel    ", #   2 in fldList, rec=   2
(PID.TID 0000.0001) READ_MFLDS_3D_RL: read field: "Theta   ", #   3 in fldList, rec=   3
(PID.TID 0000.0001) READ_MFLDS_3D_RL: read field: "Salt    ", #   4 in fldList, rec=   4
(PID.TID 0000.0001) READ_MFLDS_3D_RL: read field: "GuNm1   ", #   5 in fldList, rec=   5
(PID.TID 0000.0001) READ_MFLDS_3D_RL: read field: "GvNm1   ", #   6 in fldList, rec=   6
(PID.TID 0000.0001) READ_MFLDS_3D_RL: read field: "EtaN    ", #   7 in fldList, rec= 541
(PID.TID 0000.0001) READ_MFLDS_3D_RL: read field: "dEtaHdt ", #   8 in fldList, rec= 542
(PID.TID 0000.0001) READ_MFLDS_3D_RL: read field: "EtaH    ", #   9 in fldList, rec= 543
(PID.TID 0000.0001) READ_MFLDS_CHECK: - normal end ; reset MFLDS file-name: pickup.0000011395
(PID.TID 0000.0001)  nRecords =  99 ; filePrec =  64 ; fileIter =     11395
(PID.TID 0000.0001)     nDims =   2 , dims:
(PID.TID 0000.0001)    1:   3   1   3
(PID.TID 0000.0001)    2: 200   1 200
(PID.TID 0000.0001)     nFlds =  10 , nFl3D =   1 , fields:
(PID.TID 0000.0001)  >visc3d  < >SI_area < >SI_hmask< >SI_uvel < >SI_vvel < >SI_thick< >SI_betaF< >SI_visc < >SI_taubx< >SI_tauby<
(PID.TID 0000.0001) missingVal=  1.00000000000000E+00 ; nTimRec =   1 , timeList:
(PID.TID 0000.0001)   3.418500000000E+06
(PID.TID 0000.0001) READ_MFLDS_3D_RL: read field: "visc3d  ", #   1 in fldList, rec=   1
(PID.TID 0000.0001) READ_MFLDS_3D_RL: read field: "SI_area ", #   2 in fldList, rec=  91
(PID.TID 0000.0001) READ_MFLDS_LEV_RS: read field: "SI_hmask", #   3 in fldList, rec=  92
(PID.TID 0000.0001) READ_MFLDS_3D_RL: read field: "SI_uvel ", #   4 in fldList, rec=  93
(PID.TID 0000.0001) READ_MFLDS_3D_RL: read field: "SI_vvel ", #   5 in fldList, rec=  94
(PID.TID 0000.0001) READ_MFLDS_3D_RL: read field: "SI_thick", #   6 in fldList, rec=  95
(PID.TID 0000.0001) READ_MFLDS_3D_RL: read field: "SI_betaF", #   7 in fldList, rec=  96
(PID.TID 0000.0001) READ_MFLDS_3D_RL: read field: "SI_visc ", #   8 in fldList, rec=  97
(PID.TID 0000.0001) READ_MFLDS_3D_RL: read field: "SI_taubx", #   9 in fldList, rec=  98
(PID.TID 0000.0001) READ_MFLDS_3D_RL: read field: "SI_tauby", #  10 in fldList, rec=  99
(PID.TID 0000.0001) READ_MFLDS_CHECK: - normal end ; reset MFLDS file-name: pickup_streamice.0000011395
(PID.TID 0000.0001)  nRecords =   2 ; filePrec =  64 ; fileIter =     11395
(PID.TID 0000.0001)     nDims =   2 , dims:
(PID.TID 0000.0001)    1:   3   1   3
(PID.TID 0000.0001)    2: 200   1 200
(PID.TID 0000.0001)     nFlds =   2 , nFl3D =   0 , fields:
(PID.TID 0000.0001)  >SHI_mass< >R_Shelfi<
(PID.TID 0000.0001) missingVal=  1.00000000000000E+00 ; nTimRec =   1 , timeList:
(PID.TID 0000.0001)   3.418500000000E+06
(PID.TID 0000.0001) READ_MFLDS_3D_RL: read field: "SHI_mass", #   1 in fldList, rec=   1
(PID.TID 0000.0001) READ_MFLDS_3D_RL: read field: "R_Shelfi", #   2 in fldList, rec=   2
(PID.TID 0000.0001) READ_MFLDS_CHECK: - normal end ; reset MFLDS file-name: pickup_shelfice.0000011395
(PID.TID 0000.0001)  OBCS_FIELDS_LOAD: Reading initial data:     11395  3.418500000000E+06
(PID.TID 0000.0001) // =======================================================
(PID.TID 0000.0001) // Model current state
(PID.TID 0000.0001) // =======================================================
(PID.TID 0000.0001) 
(PID.TID 0000.0001) // =======================================================
(PID.TID 0000.0001) // Begin MONITOR dynamic field statistics
(PID.TID 0000.0001) // =======================================================
(PID.TID 0000.0001) %MON time_tsnumber                =                 11395
(PID.TID 0000.0001) %MON time_secondsf                =   3.4185000000000E+06
(PID.TID 0000.0001) %MON dynstat_eta_max              =   2.4999963769890E+00
(PID.TID 0000.0001) %MON dynstat_eta_min              =  -7.4559274521965E+00
(PID.TID 0000.0001) %MON dynstat_eta_mean             =  -1.2866326834960E+00
(PID.TID 0000.0001) %MON dynstat_eta_sd               =   2.4094601033586E+00
(PID.TID 0000.0001) %MON dynstat_eta_del2             =   1.8293494433536E-01
(PID.TID 0000.0001) %MON dynstat_uvel_max             =   5.6679065996592E-12
(PID.TID 0000.0001) %MON dynstat_uvel_min             =  -5.7013937370441E-12
(PID.TID 0000.0001) %MON dynstat_uvel_mean            =  -8.7760202178692E-26
(PID.TID 0000.0001) %MON dynstat_uvel_sd              =   9.1995768923982E-13
(PID.TID 0000.0001) %MON dynstat_uvel_del2            =   2.2438431953217E-14
(PID.TID 0000.0001) %MON dynstat_vvel_max             =   1.9868511475419E-01
(PID.TID 0000.0001) %MON dynstat_vvel_min             =  -1.1046057309893E-01
(PID.TID 0000.0001) %MON dynstat_vvel_mean            =   5.7104612449006E-07
(PID.TID 0000.0001) %MON dynstat_vvel_sd              =   5.1882364479194E-02
(PID.TID 0000.0001) %MON dynstat_vvel_del2            =   1.5358216232328E-05
(PID.TID 0000.0001) %MON dynstat_wvel_max             =   1.2388897115162E-02
(PID.TID 0000.0001) %MON dynstat_wvel_min             =  -7.7712523810149E-03
(PID.TID 0000.0001) %MON dynstat_wvel_mean            =   3.0022119538242E-05
(PID.TID 0000.0001) %MON dynstat_wvel_sd              =   6.8027407258778E-04
(PID.TID 0000.0001) %MON dynstat_wvel_del2            =   3.9278775556707E-06
(PID.TID 0000.0001) %MON dynstat_theta_max            =   1.9439517945228E+00
(PID.TID 0000.0001) %MON dynstat_theta_min            =  -1.8515728032292E+00
(PID.TID 0000.0001) %MON dynstat_theta_mean           =   2.2418370659901E-02
(PID.TID 0000.0001) %MON dynstat_theta_sd             =   1.2764707420041E+00
(PID.TID 0000.0001) %MON dynstat_theta_del2           =   5.7672222554711E-05
(PID.TID 0000.0001) %MON dynstat_salt_max             =   3.4692814332631E+01
(PID.TID 0000.0001) %MON dynstat_salt_min             =   3.3812115784173E+01
(PID.TID 0000.0001) %MON dynstat_salt_mean            =   3.4431621788538E+01
(PID.TID 0000.0001) %MON dynstat_salt_sd              =   1.8349309263810E-01
(PID.TID 0000.0001) %MON dynstat_salt_del2            =   1.5925619814638E-05
(PID.TID 0000.0001) %MON advcfl_uvel_max              =   4.5092449197060E-13
(PID.TID 0000.0001) %MON advcfl_vvel_max              =   6.8624588925515E-02
(PID.TID 0000.0001) %MON advcfl_wvel_max              =   3.7166691345486E-01
(PID.TID 0000.0001) %MON advcfl_W_hf_max              =   3.7166691345486E-01
(PID.TID 0000.0001) %MON pe_b_mean                    =   5.2673466335883E-02
(PID.TID 0000.0001) %MON ke_max                       =   1.9723738987803E-02
(PID.TID 0000.0001) %MON ke_mean                      =   1.3458557656010E-03
(PID.TID 0000.0001) %MON ke_vol                       =   1.3174232507485E+12
(PID.TID 0000.0001) // =======================================================
(PID.TID 0000.0001) // End MONITOR dynamic field statistics
(PID.TID 0000.0001) // =======================================================
(PID.TID 0000.0001) // =======================================================
(PID.TID 0000.0001) // Begin OBCS MONITOR field statistics
(PID.TID 0000.0001) // =======================================================
(PID.TID 0000.0001) %MON obc_N_vVel_max               =   2.5000000000000E-02
(PID.TID 0000.0001) %MON obc_N_vVel_min               =  -2.5000000000000E-02
(PID.TID 0000.0001) %MON obc_N_vVel_mean              =   1.0701309254946E-18
(PID.TID 0000.0001) %MON obc_N_vVel_sd                =   1.4595032760272E-02
(PID.TID 0000.0001) %MON obc_N_vVel_Int               =   1.1141310096718E-11
(PID.TID 0000.0001) // =======================================================
(PID.TID 0000.0001) // End OBCS MONITOR field statistics
(PID.TID 0000.0001) // =======================================================
(PID.TID 0000.0001) streamice solo_time_step: nIter0000011395 0.11E+00seconds
 time_step_loc   9.51293759512937678E-006
(PID.TID 0000.0001) END STREAMICE_ADVECT_THICKNESS
(PID.TID 0000.0001) SOLVE_FOR_PRESSURE: putPmEinXvector =    F
 cg2d: Sum(rhs),rhsMax =   1.18807323702558E-01  5.71294881489659E+01
(PID.TID 0000.0001)      cg2d_init_res =   6.75388268866800E-05
(PID.TID 0000.0001)      cg2d_iters(min,last) =      -1     115
(PID.TID 0000.0001)      cg2d_last_res =   5.46198339065729E-12
(PID.TID 0000.0001) CALLING FILL DIAGNOSTICS
(PID.TID 0000.0001) // =======================================================
(PID.TID 0000.0001) // Begin MONITOR dynamic field statistics
(PID.TID 0000.0001) // =======================================================
(PID.TID 0000.0001) %MON time_tsnumber                =                 11396
(PID.TID 0000.0001) %MON time_secondsf                =   3.4188000000000E+06
(PID.TID 0000.0001) %MON dynstat_eta_max              =   2.5001771693232E+00
(PID.TID 0000.0001) %MON dynstat_eta_min              =  -7.4557834034868E+00
(PID.TID 0000.0001) %MON dynstat_eta_mean             =  -1.2865494671107E+00
(PID.TID 0000.0001) %MON dynstat_eta_sd               =   2.4094108643736E+00
(PID.TID 0000.0001) %MON dynstat_eta_del2             =   1.8293495095301E-01
(PID.TID 0000.0001) %MON dynstat_uvel_max             =   7.1513398081464E-12
(PID.TID 0000.0001) %MON dynstat_uvel_min             =  -7.1746936213458E-12
(PID.TID 0000.0001) %MON dynstat_uvel_mean            =  -8.8240003451802E-26
(PID.TID 0000.0001) %MON dynstat_uvel_sd              =   9.4214656727034E-13
(PID.TID 0000.0001) %MON dynstat_uvel_del2            =   2.2979032421439E-14
(PID.TID 0000.0001) %MON dynstat_vvel_max             =   1.9868740511382E-01
(PID.TID 0000.0001) %MON dynstat_vvel_min             =  -1.1045815953922E-01
(PID.TID 0000.0001) %MON dynstat_vvel_mean            =   5.7104005360441E-07
(PID.TID 0000.0001) %MON dynstat_vvel_sd              =   5.1884482337380E-02
(PID.TID 0000.0001) %MON dynstat_vvel_del2            =   1.5358392443641E-05
(PID.TID 0000.0001) %MON dynstat_wvel_max             =   1.2388608748116E-02
(PID.TID 0000.0001) %MON dynstat_wvel_min             =  -7.7724937769512E-03
(PID.TID 0000.0001) %MON dynstat_wvel_mean            =   3.0022119551777E-05
(PID.TID 0000.0001) %MON dynstat_wvel_sd              =   6.8029501250870E-04
(PID.TID 0000.0001) %MON dynstat_wvel_del2            =   3.9281178150177E-06
(PID.TID 0000.0001) %MON dynstat_theta_max            =   1.9439525160585E+00
(PID.TID 0000.0001) %MON dynstat_theta_min            =  -1.8515653453669E+00
(PID.TID 0000.0001) %MON dynstat_theta_mean           =   2.2430033472691E-02
(PID.TID 0000.0001) %MON dynstat_theta_sd             =   1.2764676397098E+00
(PID.TID 0000.0001) %MON dynstat_theta_del2           =   5.7675219132959E-05
(PID.TID 0000.0001) %MON dynstat_salt_max             =   3.4692814425136E+01
(PID.TID 0000.0001) %MON dynstat_salt_min             =   3.3812115970492E+01
(PID.TID 0000.0001) %MON dynstat_salt_mean            =   3.4431622519005E+01
(PID.TID 0000.0001) %MON dynstat_salt_sd              =   1.8349369621358E-01
(PID.TID 0000.0001) %MON dynstat_salt_del2            =   1.5925634268323E-05
(PID.TID 0000.0001) %MON advcfl_uvel_max              =   5.6717552602289E-13
(PID.TID 0000.0001) %MON advcfl_vvel_max              =   6.8625380001322E-02
(PID.TID 0000.0001) %MON advcfl_wvel_max              =   3.7165826244347E-01
(PID.TID 0000.0001) %MON advcfl_W_hf_max              =   3.7165826244347E-01
(PID.TID 0000.0001) %MON pe_b_mean                    =  -2.7187431854199E-01
(PID.TID 0000.0001) %MON ke_max                       =   1.9724262651566E-02
(PID.TID 0000.0001) %MON ke_mean                      =   1.3459656744129E-03
(PID.TID 0000.0001) %MON ke_vol                       =   1.3174234085524E+12
(PID.TID 0000.0001) // =======================================================
(PID.TID 0000.0001) // End MONITOR dynamic field statistics
(PID.TID 0000.0001) // =======================================================
(PID.TID 0000.0001) // =======================================================
(PID.TID 0000.0001) // Begin OBCS MONITOR field statistics
(PID.TID 0000.0001) // =======================================================
(PID.TID 0000.0001) %MON obc_N_vVel_max               =   2.5000000000000E-02
(PID.TID 0000.0001) %MON obc_N_vVel_min               =  -2.5000000000000E-02
(PID.TID 0000.0001) %MON obc_N_vVel_mean              =   1.0701309254946E-18
(PID.TID 0000.0001) %MON obc_N_vVel_sd                =   1.4595032760272E-02
(PID.TID 0000.0001) %MON obc_N_vVel_Int               =   1.1141310096718E-11
(PID.TID 0000.0001) // =======================================================
(PID.TID 0000.0001) // End OBCS MONITOR field statistics
(PID.TID 0000.0001) // =======================================================
(PID.TID 0000.0001) streamice solo_time_step: nIter0000011396 0.11E+00seconds
 time_step_loc   9.51293759512937678E-006
(PID.TID 0000.0001) END STREAMICE_ADVECT_THICKNESS
 cg2d: Sum(rhs),rhsMax =   1.18799876908922E-01  5.71293739504056E+01
(PID.TID 0000.0001)      cg2d_init_res =   6.75396119496470E-05
(PID.TID 0000.0001)      cg2d_iters(min,last) =      -1     115
(PID.TID 0000.0001)      cg2d_last_res =   5.46216143463692E-12
(PID.TID 0000.0001) CALLING FILL DIAGNOSTICS
(PID.TID 0000.0001) // =======================================================
(PID.TID 0000.0001) // Begin MONITOR dynamic field statistics
(PID.TID 0000.0001) // =======================================================
(PID.TID 0000.0001) %MON time_tsnumber                =                 11397
(PID.TID 0000.0001) %MON time_secondsf                =   3.4191000000000E+06
(PID.TID 0000.0001) %MON dynstat_eta_max              =   2.5003579567971E+00
(PID.TID 0000.0001) %MON dynstat_eta_min              =  -7.4556393847188E+00
(PID.TID 0000.0001) %MON dynstat_eta_mean             =  -1.2864662551481E+00
(PID.TID 0000.0001) %MON dynstat_eta_sd               =   2.4093616305014E+00
(PID.TID 0000.0001) %MON dynstat_eta_del2             =   1.8293495760155E-01
(PID.TID 0000.0001) %MON dynstat_uvel_max             =   6.2559896326833E-12
(PID.TID 0000.0001) %MON dynstat_uvel_min             =  -6.3000591509313E-12
(PID.TID 0000.0001) %MON dynstat_uvel_mean            =  -8.9743192933858E-26
(PID.TID 0000.0001) %MON dynstat_uvel_sd              =   9.2901482574562E-13
(PID.TID 0000.0001) %MON dynstat_uvel_del2            =   2.2659033369067E-14
(PID.TID 0000.0001) %MON dynstat_vvel_max             =   1.9868981222705E-01
(PID.TID 0000.0001) %MON dynstat_vvel_min             =  -1.1045574144383E-01
(PID.TID 0000.0001) %MON dynstat_vvel_mean            =   5.7104337736401E-07
(PID.TID 0000.0001) %MON dynstat_vvel_sd              =   5.1886594806170E-02
(PID.TID 0000.0001) %MON dynstat_vvel_del2            =   1.5358569109259E-05
(PID.TID 0000.0001) %MON dynstat_wvel_max             =   1.2388320389392E-02
(PID.TID 0000.0001) %MON dynstat_wvel_min             =  -7.7737362140494E-03
(PID.TID 0000.0001) %MON dynstat_wvel_mean            =   3.0022119612724E-05
(PID.TID 0000.0001) %MON dynstat_wvel_sd              =   6.8031598058214E-04
(PID.TID 0000.0001) %MON dynstat_wvel_del2            =   3.9283584852861E-06
(PID.TID 0000.0001) %MON dynstat_theta_max            =   1.9439532376756E+00
(PID.TID 0000.0001) %MON dynstat_theta_min            =  -1.8515578763915E+00
(PID.TID 0000.0001) %MON dynstat_theta_mean           =   2.2441689261146E-02
(PID.TID 0000.0001) %MON dynstat_theta_sd             =   1.2764645394557E+00
(PID.TID 0000.0001) %MON dynstat_theta_del2           =   5.7678220374544E-05
(PID.TID 0000.0001) %MON dynstat_salt_max             =   3.4692814517651E+01
(PID.TID 0000.0001) %MON dynstat_salt_min             =   3.3812116173061E+01
(PID.TID 0000.0001) %MON dynstat_salt_mean            =   3.4431623249179E+01
(PID.TID 0000.0001) %MON dynstat_salt_sd              =   1.8349429912006E-01
(PID.TID 0000.0001) %MON dynstat_salt_del2            =   1.5925647877896E-05
(PID.TID 0000.0001) %MON advcfl_uvel_max              =   4.9827307199647E-13
(PID.TID 0000.0001) %MON advcfl_vvel_max              =   6.8626211403093E-02
(PID.TID 0000.0001) %MON advcfl_wvel_max              =   3.7164961168177E-01
(PID.TID 0000.0001) %MON advcfl_W_hf_max              =   3.7164961168177E-01
(PID.TID 0000.0001) %MON pe_b_mean                    =  -2.7185735531321E-01
(PID.TID 0000.0001) %MON ke_max                       =   1.9724807697928E-02
(PID.TID 0000.0001) %MON ke_mean                      =   1.3460753080047E-03
(PID.TID 0000.0001) %MON ke_vol                       =   1.3174235663479E+12
(PID.TID 0000.0001) // =======================================================
(PID.TID 0000.0001) // End MONITOR dynamic field statistics
(PID.TID 0000.0001) // =======================================================
(PID.TID 0000.0001) // =======================================================
(PID.TID 0000.0001) // Begin OBCS MONITOR field statistics
(PID.TID 0000.0001) // =======================================================
(PID.TID 0000.0001) %MON obc_N_vVel_max               =   2.5000000000000E-02
(PID.TID 0000.0001) %MON obc_N_vVel_min               =  -2.5000000000000E-02
(PID.TID 0000.0001) %MON obc_N_vVel_mean              =   1.0701309254946E-18
(PID.TID 0000.0001) %MON obc_N_vVel_sd                =   1.4595032760272E-02
(PID.TID 0000.0001) %MON obc_N_vVel_Int               =   1.1141310096718E-11
(PID.TID 0000.0001) // =======================================================
(PID.TID 0000.0001) // End OBCS MONITOR field statistics
(PID.TID 0000.0001) // =======================================================
(PID.TID 0000.0001) streamice solo_time_step: nIter0000011397 0.11E+00seconds
 time_step_loc   9.51293759512937678E-006
(PID.TID 0000.0001) END STREAMICE_ADVECT_THICKNESS
 cg2d: Sum(rhs),rhsMax =   1.18792430491169E-01  5.71292597531632E+01
(PID.TID 0000.0001)      cg2d_init_res =   6.75404070970764E-05
(PID.TID 0000.0001)      cg2d_iters(min,last) =      -1     115
(PID.TID 0000.0001)      cg2d_last_res =   5.46231868407884E-12
(PID.TID 0000.0001) CALLING FILL DIAGNOSTICS
(PID.TID 0000.0001) // =======================================================
(PID.TID 0000.0001) // Begin MONITOR dynamic field statistics
(PID.TID 0000.0001) // =======================================================
(PID.TID 0000.0001) %MON time_tsnumber                =                 11398
(PID.TID 0000.0001) %MON time_secondsf                =   3.4194000000000E+06
(PID.TID 0000.0001) %MON dynstat_eta_max              =   2.5005387391678E+00
(PID.TID 0000.0001) %MON dynstat_eta_min              =  -7.4554953957085E+00
(PID.TID 0000.0001) %MON dynstat_eta_mean             =  -1.2863830476078E+00
(PID.TID 0000.0001) %MON dynstat_eta_sd               =   2.4093124017722E+00
(PID.TID 0000.0001) %MON dynstat_eta_del2             =   1.8293496428136E-01
(PID.TID 0000.0001) %MON dynstat_uvel_max             =   6.9090893729062E-12
(PID.TID 0000.0001) %MON dynstat_uvel_min             =  -6.9444121419835E-12
(PID.TID 0000.0001) %MON dynstat_uvel_mean            =  -8.8535142327090E-26
(PID.TID 0000.0001) %MON dynstat_uvel_sd              =   9.3845932579804E-13
(PID.TID 0000.0001) %MON dynstat_uvel_del2            =   2.2889031473313E-14
(PID.TID 0000.0001) %MON dynstat_vvel_max             =   1.9869233440131E-01
(PID.TID 0000.0001) %MON dynstat_vvel_min             =  -1.1045331882066E-01
(PID.TID 0000.0001) %MON dynstat_vvel_mean            =   5.7105413166636E-07
(PID.TID 0000.0001) %MON dynstat_vvel_sd              =   5.1888701879297E-02
(PID.TID 0000.0001) %MON dynstat_vvel_del2            =   1.5358745941014E-05
(PID.TID 0000.0001) %MON dynstat_wvel_max             =   1.2388032060322E-02
(PID.TID 0000.0001) %MON dynstat_wvel_min             =  -7.7749796933460E-03
(PID.TID 0000.0001) %MON dynstat_wvel_mean            =   3.0022119704855E-05
(PID.TID 0000.0001) %MON dynstat_wvel_sd              =   6.8033697492561E-04
(PID.TID 0000.0001) %MON dynstat_wvel_del2            =   3.9285994302908E-06
(PID.TID 0000.0001) %MON dynstat_theta_max            =   1.9439539593630E+00
(PID.TID 0000.0001) %MON dynstat_theta_min            =  -1.8515503962151E+00
(PID.TID 0000.0001) %MON dynstat_theta_mean           =   2.2453338020937E-02
(PID.TID 0000.0001) %MON dynstat_theta_sd             =   1.2764614412477E+00
(PID.TID 0000.0001) %MON dynstat_theta_del2           =   5.7681225830640E-05
(PID.TID 0000.0001) %MON dynstat_salt_max             =   3.4692814610175E+01
(PID.TID 0000.0001) %MON dynstat_salt_min             =   3.3812116391773E+01
(PID.TID 0000.0001) %MON dynstat_salt_mean            =   3.4431623979060E+01
(PID.TID 0000.0001) %MON dynstat_salt_sd              =   1.8349490135784E-01
(PID.TID 0000.0001) %MON dynstat_salt_del2            =   1.5925660664176E-05
(PID.TID 0000.0001) %MON advcfl_uvel_max              =   5.4897126168998E-13
(PID.TID 0000.0001) %MON advcfl_vvel_max              =   6.8627082546219E-02
(PID.TID 0000.0001) %MON advcfl_wvel_max              =   3.7164096180965E-01
(PID.TID 0000.0001) %MON advcfl_W_hf_max              =   3.7164096180965E-01
(PID.TID 0000.0001) %MON pe_b_mean                    =  -2.7184039332324E-01
(PID.TID 0000.0001) %MON ke_max                       =   1.9725373876808E-02
(PID.TID 0000.0001) %MON ke_mean                      =   1.3461846660173E-03
(PID.TID 0000.0001) %MON ke_vol                       =   1.3174237241350E+12
(PID.TID 0000.0001) // =======================================================
(PID.TID 0000.0001) // End MONITOR dynamic field statistics
(PID.TID 0000.0001) // =======================================================
(PID.TID 0000.0001) // =======================================================
(PID.TID 0000.0001) // Begin OBCS MONITOR field statistics
(PID.TID 0000.0001) // =======================================================
(PID.TID 0000.0001) %MON obc_N_vVel_max               =   2.5000000000000E-02
(PID.TID 0000.0001) %MON obc_N_vVel_min               =  -2.5000000000000E-02
(PID.TID 0000.0001) %MON obc_N_vVel_mean              =   1.0701309254946E-18
(PID.TID 0000.0001) %MON obc_N_vVel_sd                =   1.4595032760272E-02
(PID.TID 0000.0001) %MON obc_N_vVel_Int               =   1.1141310096718E-11
(PID.TID 0000.0001) // =======================================================
(PID.TID 0000.0001) // End OBCS MONITOR field statistics
(PID.TID 0000.0001) // =======================================================
(PID.TID 0000.0001) streamice solo_time_step: nIter0000011398 0.11E+00seconds
 time_step_loc   9.51293759512937678E-006
(PID.TID 0000.0001) END STREAMICE_ADVECT_THICKNESS
 cg2d: Sum(rhs),rhsMax =   1.18784984448863E-01  5.71291455574298E+01
(PID.TID 0000.0001)      cg2d_init_res =   6.75411981495684E-05
(PID.TID 0000.0001)      cg2d_iters(min,last) =      -1     115
(PID.TID 0000.0001)      cg2d_last_res =   5.46253345434689E-12
(PID.TID 0000.0001) CALLING FILL DIAGNOSTICS
(PID.TID 0000.0001) // =======================================================
(PID.TID 0000.0001) // Begin MONITOR dynamic field statistics
(PID.TID 0000.0001) // =======================================================
(PID.TID 0000.0001) %MON time_tsnumber                =                 11399
(PID.TID 0000.0001) %MON time_secondsf                =   3.4197000000000E+06
(PID.TID 0000.0001) %MON dynstat_eta_max              =   2.5007195163921E+00
(PID.TID 0000.0001) %MON dynstat_eta_min              =  -7.4553514363628E+00
(PID.TID 0000.0001) %MON dynstat_eta_mean             =  -1.2862998444896E+00
(PID.TID 0000.0001) %MON dynstat_eta_sd               =   2.4092631781949E+00
(PID.TID 0000.0001) %MON dynstat_eta_del2             =   1.8293497099233E-01
(PID.TID 0000.0001) %MON dynstat_uvel_max             =   6.4907522476701E-12
(PID.TID 0000.0001) %MON dynstat_uvel_min             =  -6.5252598331727E-12
(PID.TID 0000.0001) %MON dynstat_uvel_mean            =  -8.9677178132661E-26
(PID.TID 0000.0001) %MON dynstat_uvel_sd              =   9.3233916076728E-13
(PID.TID 0000.0001) %MON dynstat_uvel_del2            =   2.2740590545496E-14
(PID.TID 0000.0001) %MON dynstat_vvel_max             =   1.9869497058785E-01
(PID.TID 0000.0001) %MON dynstat_vvel_min             =  -1.1045089153360E-01
(PID.TID 0000.0001) %MON dynstat_vvel_mean            =   5.7106710055059E-07
(PID.TID 0000.0001) %MON dynstat_vvel_sd              =   5.1890803549401E-02
(PID.TID 0000.0001) %MON dynstat_vvel_del2            =   1.5358923162446E-05
(PID.TID 0000.0001) %MON dynstat_wvel_max             =   1.2387743777534E-02
(PID.TID 0000.0001) %MON dynstat_wvel_min             =  -7.7762242179520E-03
(PID.TID 0000.0001) %MON dynstat_wvel_mean            =   3.0022119799721E-05
(PID.TID 0000.0001) %MON dynstat_wvel_sd              =   6.8035799665555E-04
(PID.TID 0000.0001) %MON dynstat_wvel_del2            =   3.9288406782666E-06
(PID.TID 0000.0001) %MON dynstat_theta_max            =   1.9439546811101E+00
(PID.TID 0000.0001) %MON dynstat_theta_min            =  -1.8515429047506E+00
(PID.TID 0000.0001) %MON dynstat_theta_mean           =   2.2464979747844E-02
(PID.TID 0000.0001) %MON dynstat_theta_sd             =   1.2764583450915E+00
(PID.TID 0000.0001) %MON dynstat_theta_del2           =   5.7684235212967E-05
(PID.TID 0000.0001) %MON dynstat_salt_max             =   3.4692814702706E+01
(PID.TID 0000.0001) %MON dynstat_salt_min             =   3.3812116626524E+01
(PID.TID 0000.0001) %MON dynstat_salt_mean            =   3.4431624708648E+01
(PID.TID 0000.0001) %MON dynstat_salt_sd              =   1.8349550292719E-01
(PID.TID 0000.0001) %MON dynstat_salt_del2            =   1.5925672671409E-05
(PID.TID 0000.0001) %MON advcfl_uvel_max              =   5.1608424377564E-13
(PID.TID 0000.0001) %MON advcfl_vvel_max              =   6.8627993068466E-02
(PID.TID 0000.0001) %MON advcfl_wvel_max              =   3.7163231332601E-01
(PID.TID 0000.0001) %MON advcfl_W_hf_max              =   3.7163231332601E-01
(PID.TID 0000.0001) %MON pe_b_mean                    =  -2.7182343257220E-01
(PID.TID 0000.0001) %MON ke_max                       =   1.9725960908921E-02
(PID.TID 0000.0001) %MON ke_mean                      =   1.3462937480345E-03
(PID.TID 0000.0001) %MON ke_vol                       =   1.3174238819137E+12
(PID.TID 0000.0001) // =======================================================
(PID.TID 0000.0001) // End MONITOR dynamic field statistics
(PID.TID 0000.0001) // =======================================================
(PID.TID 0000.0001) // =======================================================
(PID.TID 0000.0001) // Begin OBCS MONITOR field statistics
(PID.TID 0000.0001) // =======================================================
(PID.TID 0000.0001) %MON obc_N_vVel_max               =   2.5000000000000E-02
(PID.TID 0000.0001) %MON obc_N_vVel_min               =  -2.5000000000000E-02
(PID.TID 0000.0001) %MON obc_N_vVel_mean              =   1.0701309254946E-18
(PID.TID 0000.0001) %MON obc_N_vVel_sd                =   1.4595032760272E-02
(PID.TID 0000.0001) %MON obc_N_vVel_Int               =   1.1141310096718E-11
(PID.TID 0000.0001) // =======================================================
(PID.TID 0000.0001) // End OBCS MONITOR field statistics
(PID.TID 0000.0001) // =======================================================
(PID.TID 0000.0001) streamice solo_time_step: nIter0000011399 0.11E+00seconds
 time_step_loc   9.51293759512937678E-006
(PID.TID 0000.0001) END STREAMICE_ADVECT_THICKNESS
 cg2d: Sum(rhs),rhsMax =   1.18777538782406E-01  5.71290313629975E+01
(PID.TID 0000.0001)      cg2d_init_res =   6.75419905588313E-05
(PID.TID 0000.0001)      cg2d_iters(min,last) =      -1     115
(PID.TID 0000.0001)      cg2d_last_res =   5.46268070384583E-12
(PID.TID 0000.0001) CALLING FILL DIAGNOSTICS
(PID.TID 0000.0001) // =======================================================
(PID.TID 0000.0001) // Begin MONITOR dynamic field statistics
(PID.TID 0000.0001) // =======================================================
(PID.TID 0000.0001) %MON time_tsnumber                =                 11400
(PID.TID 0000.0001) %MON time_secondsf                =   3.4200000000000E+06
(PID.TID 0000.0001) %MON dynstat_eta_max              =   2.5009002885051E+00
(PID.TID 0000.0001) %MON dynstat_eta_min              =  -7.4552075066671E+00
(PID.TID 0000.0001) %MON dynstat_eta_mean             =  -1.2862166457930E+00
(PID.TID 0000.0001) %MON dynstat_eta_sd               =   2.4092139597624E+00
(PID.TID 0000.0001) %MON dynstat_eta_del2             =   1.8293497773469E-01
(PID.TID 0000.0001) %MON dynstat_uvel_max             =   6.7791317133808E-12
(PID.TID 0000.0001) %MON dynstat_uvel_min             =  -6.8093410782365E-12
(PID.TID 0000.0001) %MON dynstat_uvel_mean            =  -8.9282537867870E-26
(PID.TID 0000.0001) %MON dynstat_uvel_sd              =   9.3668986836544E-13
(PID.TID 0000.0001) %MON dynstat_uvel_del2            =   2.2845734629154E-14
(PID.TID 0000.0001) %MON dynstat_vvel_max             =   1.9869771939776E-01
(PID.TID 0000.0001) %MON dynstat_vvel_min             =  -1.1044845952686E-01
(PID.TID 0000.0001) %MON dynstat_vvel_mean            =   5.7107692244570E-07
(PID.TID 0000.0001) %MON dynstat_vvel_sd              =   5.1892899809273E-02
(PID.TID 0000.0001) %MON dynstat_vvel_del2            =   1.5359100754251E-05
(PID.TID 0000.0001) %MON dynstat_wvel_max             =   1.2387455562416E-02
(PID.TID 0000.0001) %MON dynstat_wvel_min             =  -7.7774697891303E-03
(PID.TID 0000.0001) %MON dynstat_wvel_mean            =   3.0022119876690E-05
(PID.TID 0000.0001) %MON dynstat_wvel_sd              =   6.8037904616150E-04
(PID.TID 0000.0001) %MON dynstat_wvel_del2            =   3.9290822131571E-06
(PID.TID 0000.0001) %MON dynstat_theta_max            =   1.9439554029057E+00
(PID.TID 0000.0001) %MON dynstat_theta_min            =  -1.8515354019115E+00
(PID.TID 0000.0001) %MON dynstat_theta_mean           =   2.2476614437650E-02
(PID.TID 0000.0001) %MON dynstat_theta_sd             =   1.2764552509930E+00
(PID.TID 0000.0001) %MON dynstat_theta_del2           =   5.7687248257194E-05
(PID.TID 0000.0001) %MON dynstat_salt_max             =   3.4692814795244E+01
(PID.TID 0000.0001) %MON dynstat_salt_min             =   3.3812116877206E+01
(PID.TID 0000.0001) %MON dynstat_salt_mean            =   3.4431625437942E+01
(PID.TID 0000.0001) %MON dynstat_salt_sd              =   1.8349610382835E-01
(PID.TID 0000.0001) %MON dynstat_salt_del2            =   1.5925683926129E-05
(PID.TID 0000.0001) %MON advcfl_uvel_max              =   5.3829359297347E-13
(PID.TID 0000.0001) %MON advcfl_vvel_max              =   6.8628942490122E-02
(PID.TID 0000.0001) %MON advcfl_wvel_max              =   3.7162366687248E-01
(PID.TID 0000.0001) %MON advcfl_W_hf_max              =   3.7162366687248E-01
(PID.TID 0000.0001) %MON pe_b_mean                    =  -2.7180647305844E-01
(PID.TID 0000.0001) %MON ke_max                       =   1.9726568518200E-02
(PID.TID 0000.0001) %MON ke_mean                      =   1.3464025536479E-03
(PID.TID 0000.0001) %MON ke_vol                       =   1.3174240396840E+12
(PID.TID 0000.0001) // =======================================================
(PID.TID 0000.0001) // End MONITOR dynamic field statistics
(PID.TID 0000.0001) // =======================================================
(PID.TID 0000.0001) // =======================================================
(PID.TID 0000.0001) // Begin OBCS MONITOR field statistics
(PID.TID 0000.0001) // =======================================================
(PID.TID 0000.0001) %MON obc_N_vVel_max               =   2.5000000000000E-02
(PID.TID 0000.0001) %MON obc_N_vVel_min               =  -2.5000000000000E-02
(PID.TID 0000.0001) %MON obc_N_vVel_mean              =   1.0701309254946E-18
(PID.TID 0000.0001) %MON obc_N_vVel_sd                =   1.4595032760272E-02
(PID.TID 0000.0001) %MON obc_N_vVel_Int               =   1.1141310096718E-11
(PID.TID 0000.0001) // =======================================================
(PID.TID 0000.0001) // End OBCS MONITOR field statistics
(PID.TID 0000.0001) // =======================================================
(PID.TID 0000.0001) streamice solo_time_step: nIter0000011400 0.11E+00seconds
 time_step_loc   9.51293759512937678E-006
(PID.TID 0000.0001) END STREAMICE_ADVECT_THICKNESS
 cg2d: Sum(rhs),rhsMax =   1.23358792440349E-01  5.71289171700618E+01
(PID.TID 0000.0001)      cg2d_init_res =   7.87201178603202E-05
(PID.TID 0000.0001)      cg2d_iters(min,last) =      -1     115
(PID.TID 0000.0001)      cg2d_last_res =   5.44769558351197E-12
(PID.TID 0000.0001) CALLING FILL DIAGNOSTICS
(PID.TID 0000.0001) // =======================================================
(PID.TID 0000.0001) // Begin MONITOR dynamic field statistics
(PID.TID 0000.0001) // =======================================================
(PID.TID 0000.0001) %MON time_tsnumber                =                 11401
(PID.TID 0000.0001) %MON time_secondsf                =   3.4203000000000E+06
(PID.TID 0000.0001) %MON dynstat_eta_max              =   2.4707427995918E+00
(PID.TID 0000.0001) %MON dynstat_eta_min              =  -7.4988230843714E+00
(PID.TID 0000.0001) %MON dynstat_eta_mean             =  -1.3358233948674E+00
(PID.TID 0000.0001) %MON dynstat_eta_sd               =   2.4335420967649E+00
(PID.TID 0000.0001) %MON dynstat_eta_del2             =   1.8281100684741E-01
(PID.TID 0000.0001) %MON dynstat_uvel_max             =   6.5290550178009E-12
(PID.TID 0000.0001) %MON dynstat_uvel_min             =  -6.5946742530567E-12
(PID.TID 0000.0001) %MON dynstat_uvel_mean            =  -9.0301953174549E-26
(PID.TID 0000.0001) %MON dynstat_uvel_sd              =   9.4766989538406E-13
(PID.TID 0000.0001) %MON dynstat_uvel_del2            =   2.3112704641848E-14
(PID.TID 0000.0001) %MON dynstat_vvel_max             =   1.9870052481970E-01
(PID.TID 0000.0001) %MON dynstat_vvel_min             =  -1.1044604126275E-01
(PID.TID 0000.0001) %MON dynstat_vvel_mean            =   5.9445564991921E-07
(PID.TID 0000.0001) %MON dynstat_vvel_sd              =   5.1894788657549E-02
(PID.TID 0000.0001) %MON dynstat_vvel_del2            =   1.5279662689684E-05
(PID.TID 0000.0001) %MON dynstat_wvel_max             =   1.2387161340792E-02
(PID.TID 0000.0001) %MON dynstat_wvel_min             =  -7.7787164563918E-03
(PID.TID 0000.0001) %MON dynstat_wvel_mean            =   3.0019990131339E-05
(PID.TID 0000.0001) %MON dynstat_wvel_sd              =   6.8037049104371E-04
(PID.TID 0000.0001) %MON dynstat_wvel_del2            =   3.9289476073658E-06
(PID.TID 0000.0001) %MON dynstat_theta_max            =   1.9439561247390E+00
(PID.TID 0000.0001) %MON dynstat_theta_min            =  -1.8515278876049E+00
(PID.TID 0000.0001) %MON dynstat_theta_mean           =   2.2488243446181E-02
(PID.TID 0000.0001) %MON dynstat_theta_sd             =   1.2764521434940E+00
(PID.TID 0000.0001) %MON dynstat_theta_del2           =   5.7998640264046E-05
(PID.TID 0000.0001) %MON dynstat_salt_max             =   3.4692814887787E+01
(PID.TID 0000.0001) %MON dynstat_salt_min             =   3.3812117141309E+01
(PID.TID 0000.0001) %MON dynstat_salt_mean            =   3.4431626167485E+01
(PID.TID 0000.0001) %MON dynstat_salt_sd              =   1.8349668652296E-01
(PID.TID 0000.0001) %MON dynstat_salt_del2            =   1.6113117800336E-05
(PID.TID 0000.0001) %MON advcfl_uvel_max              =   5.2157424560067E-13
(PID.TID 0000.0001) %MON advcfl_vvel_max              =   6.8629911465214E-02
(PID.TID 0000.0001) %MON advcfl_wvel_max              =   3.7161484022377E-01
(PID.TID 0000.0001) %MON advcfl_W_hf_max              =   3.7161484022377E-01
(PID.TID 0000.0001) %MON pe_b_mean                    =  -2.8129482108518E-01
(PID.TID 0000.0001) %MON ke_max                       =   1.9727185325512E-02
(PID.TID 0000.0001) %MON ke_mean                      =   1.3465005974174E-03
(PID.TID 0000.0001) %MON ke_vol                       =   1.3174241974459E+12
(PID.TID 0000.0001) // =======================================================
(PID.TID 0000.0001) // End MONITOR dynamic field statistics
(PID.TID 0000.0001) // =======================================================
(PID.TID 0000.0001) // =======================================================
(PID.TID 0000.0001) // Begin OBCS MONITOR field statistics
(PID.TID 0000.0001) // =======================================================
(PID.TID 0000.0001) %MON obc_N_vVel_max               =   2.5000000000000E-02
(PID.TID 0000.0001) %MON obc_N_vVel_min               =  -2.5000000000000E-02
(PID.TID 0000.0001) %MON obc_N_vVel_mean              =   1.0701309254946E-18
(PID.TID 0000.0001) %MON obc_N_vVel_sd                =   1.4595032760272E-02
(PID.TID 0000.0001) %MON obc_N_vVel_Int               =   1.1141310096718E-11
(PID.TID 0000.0001) // =======================================================
(PID.TID 0000.0001) // End OBCS MONITOR field statistics
(PID.TID 0000.0001) // =======================================================
(PID.TID 0000.0001) streamice solo_time_step: nIter0000011401 0.11E+00seconds
 time_step_loc   9.51293759512937678E-006
(PID.TID 0000.0001) END STREAMICE_ADVECT_THICKNESS
 cg2d: Sum(rhs),rhsMax =   1.23351357711696E-01  5.71288029509875E+01
(PID.TID 0000.0001)      cg2d_init_res =   6.75992887721415E-05
(PID.TID 0000.0001)      cg2d_iters(min,last) =      -1     115
(PID.TID 0000.0001)      cg2d_last_res =   5.54710453909774E-12
(PID.TID 0000.0001) CALLING FILL DIAGNOSTICS
(PID.TID 0000.0001) // =======================================================
(PID.TID 0000.0001) // Begin MONITOR dynamic field statistics
(PID.TID 0000.0001) // =======================================================
(PID.TID 0000.0001) %MON time_tsnumber                =                 11402
(PID.TID 0000.0001) %MON time_secondsf                =   3.4206000000000E+06
(PID.TID 0000.0001) %MON dynstat_eta_max              =   2.4709270951203E+00
(PID.TID 0000.0001) %MON dynstat_eta_min              =  -7.4986395860706E+00
(PID.TID 0000.0001) %MON dynstat_eta_mean             =  -1.3357402153572E+00
(PID.TID 0000.0001) %MON dynstat_eta_sd               =   2.4334914481486E+00
(PID.TID 0000.0001) %MON dynstat_eta_del2             =   1.8281099151337E-01
(PID.TID 0000.0001) %MON dynstat_uvel_max             =   6.6687327877898E-12
(PID.TID 0000.0001) %MON dynstat_uvel_min             =  -6.7216245217808E-12
(PID.TID 0000.0001) %MON dynstat_uvel_mean            =  -9.0097938113885E-26
(PID.TID 0000.0001) %MON dynstat_uvel_sd              =   9.5261424437663E-13
(PID.TID 0000.0001) %MON dynstat_uvel_del2            =   2.3233370168437E-14
(PID.TID 0000.0001) %MON dynstat_vvel_max             =   1.9870380477197E-01
(PID.TID 0000.0001) %MON dynstat_vvel_min             =  -1.1044350544581E-01
(PID.TID 0000.0001) %MON dynstat_vvel_mean            =   6.9879147346441E-07
(PID.TID 0000.0001) %MON dynstat_vvel_sd              =   5.1897098090779E-02
(PID.TID 0000.0001) %MON dynstat_vvel_del2            =   1.5269110137073E-05
(PID.TID 0000.0001) %MON dynstat_wvel_max             =   1.2386906418741E-02
(PID.TID 0000.0001) %MON dynstat_wvel_min             =  -7.7799639848108E-03
(PID.TID 0000.0001) %MON dynstat_wvel_mean            =   3.0020417994791E-05
(PID.TID 0000.0001) %MON dynstat_wvel_sd              =   6.8039129950874E-04
(PID.TID 0000.0001) %MON dynstat_wvel_del2            =   3.9291539424696E-06
(PID.TID 0000.0001) %MON dynstat_theta_max            =   1.9439568465993E+00
(PID.TID 0000.0001) %MON dynstat_theta_min            =  -1.8515203617720E+00
(PID.TID 0000.0001) %MON dynstat_theta_mean           =   2.2499865724958E-02
(PID.TID 0000.0001) %MON dynstat_theta_sd             =   1.2764490409252E+00
(PID.TID 0000.0001) %MON dynstat_theta_del2           =   5.7934040558504E-05
(PID.TID 0000.0001) %MON dynstat_salt_max             =   3.4692814980333E+01
(PID.TID 0000.0001) %MON dynstat_salt_min             =   3.3812117436732E+01
(PID.TID 0000.0001) %MON dynstat_salt_mean            =   3.4431626896769E+01
(PID.TID 0000.0001) %MON dynstat_salt_sd              =   1.8349727226840E-01
(PID.TID 0000.0001) %MON dynstat_salt_del2            =   1.6071841408505E-05
(PID.TID 0000.0001) %MON advcfl_uvel_max              =   5.3135940363044E-13
(PID.TID 0000.0001) %MON advcfl_vvel_max              =   6.8631044340095E-02
(PID.TID 0000.0001) %MON advcfl_wvel_max              =   3.7160719256224E-01
(PID.TID 0000.0001) %MON advcfl_W_hf_max              =   3.7160719256224E-01
(PID.TID 0000.0001) %MON pe_b_mean                    =  -2.8127777555969E-01
(PID.TID 0000.0001) %MON ke_max                       =   1.9727896091510E-02
(PID.TID 0000.0001) %MON ke_mean                      =   1.3466204772364E-03
(PID.TID 0000.0001) %MON ke_vol                       =   1.3174243551802E+12
(PID.TID 0000.0001) // =======================================================
(PID.TID 0000.0001) // End MONITOR dynamic field statistics
(PID.TID 0000.0001) // =======================================================
(PID.TID 0000.0001) // =======================================================
(PID.TID 0000.0001) // Begin OBCS MONITOR field statistics
(PID.TID 0000.0001) // =======================================================
(PID.TID 0000.0001) %MON obc_N_vVel_max               =   2.5000000000000E-02
(PID.TID 0000.0001) %MON obc_N_vVel_min               =  -2.5000000000000E-02
(PID.TID 0000.0001) %MON obc_N_vVel_mean              =   1.0701309254946E-18
(PID.TID 0000.0001) %MON obc_N_vVel_sd                =   1.4595032760272E-02
(PID.TID 0000.0001) %MON obc_N_vVel_Int               =   1.1141310096718E-11
(PID.TID 0000.0001) // =======================================================
(PID.TID 0000.0001) // End OBCS MONITOR field statistics
(PID.TID 0000.0001) // =======================================================
(PID.TID 0000.0001) streamice solo_time_step: nIter0000011402 0.11E+00seconds
 time_step_loc   9.51293759512937678E-006
(PID.TID 0000.0001) END STREAMICE_ADVECT_THICKNESS
 cg2d: Sum(rhs),rhsMax =   1.23343921729962E-01  5.71286889114566E+01
(PID.TID 0000.0001)      cg2d_init_res =   6.74851898848910E-05
(PID.TID 0000.0001)      cg2d_iters(min,last) =      -1     115
(PID.TID 0000.0001)      cg2d_last_res =   5.50544024351707E-12
(PID.TID 0000.0001) CALLING FILL DIAGNOSTICS
(PID.TID 0000.0001) // =======================================================
(PID.TID 0000.0001) // Begin MONITOR dynamic field statistics
(PID.TID 0000.0001) // =======================================================
(PID.TID 0000.0001) %MON time_tsnumber                =                 11403
(PID.TID 0000.0001) %MON time_secondsf                =   3.4209000000000E+06
(PID.TID 0000.0001) %MON dynstat_eta_max              =   2.4711109728637E+00
(PID.TID 0000.0001) %MON dynstat_eta_min              =  -7.4984658023869E+00
(PID.TID 0000.0001) %MON dynstat_eta_mean             =  -1.3356570267974E+00
(PID.TID 0000.0001) %MON dynstat_eta_sd               =   2.4334411453364E+00
(PID.TID 0000.0001) %MON dynstat_eta_del2             =   1.8281098272108E-01
(PID.TID 0000.0001) %MON dynstat_uvel_max             =   6.8528020073112E-12
(PID.TID 0000.0001) %MON dynstat_uvel_min             =  -6.8977506309016E-12
(PID.TID 0000.0001) %MON dynstat_uvel_mean            =  -8.9157685528214E-26
(PID.TID 0000.0001) %MON dynstat_uvel_sd              =   9.4328768840292E-13
(PID.TID 0000.0001) %MON dynstat_uvel_del2            =   2.3005389082525E-14
(PID.TID 0000.0001) %MON dynstat_vvel_max             =   1.9870706251132E-01
(PID.TID 0000.0001) %MON dynstat_vvel_min             =  -1.1044093767435E-01
(PID.TID 0000.0001) %MON dynstat_vvel_mean            =   7.5394906516378E-07
(PID.TID 0000.0001) %MON dynstat_vvel_sd              =   5.1899365983436E-02
(PID.TID 0000.0001) %MON dynstat_vvel_del2            =   1.5248541334656E-05
(PID.TID 0000.0001) %MON dynstat_wvel_max             =   1.2386647572542E-02
(PID.TID 0000.0001) %MON dynstat_wvel_min             =  -7.7812119883356E-03
(PID.TID 0000.0001) %MON dynstat_wvel_mean            =   3.0020759381466E-05
(PID.TID 0000.0001) %MON dynstat_wvel_sd              =   6.8041448580746E-04
(PID.TID 0000.0001) %MON dynstat_wvel_del2            =   3.9294684820739E-06
(PID.TID 0000.0001) %MON dynstat_theta_max            =   1.9439575684775E+00
(PID.TID 0000.0001) %MON dynstat_theta_min            =  -1.8515128244131E+00
(PID.TID 0000.0001) %MON dynstat_theta_mean           =   2.2511478982733E-02
(PID.TID 0000.0001) %MON dynstat_theta_sd             =   1.2764459452835E+00
(PID.TID 0000.0001) %MON dynstat_theta_del2           =   5.7884547082608E-05
(PID.TID 0000.0001) %MON dynstat_salt_max             =   3.4692815072882E+01
(PID.TID 0000.0001) %MON dynstat_salt_min             =   3.3812117744524E+01
(PID.TID 0000.0001) %MON dynstat_salt_mean            =   3.4431627624982E+01
(PID.TID 0000.0001) %MON dynstat_salt_sd              =   1.8349786273559E-01
(PID.TID 0000.0001) %MON dynstat_salt_del2            =   1.6039730825341E-05
(PID.TID 0000.0001) %MON advcfl_uvel_max              =   5.4554462337340E-13
(PID.TID 0000.0001) %MON advcfl_vvel_max              =   6.8632169542778E-02
(PID.TID 0000.0001) %MON advcfl_wvel_max              =   3.7159942717625E-01
(PID.TID 0000.0001) %MON advcfl_W_hf_max              =   3.7159942717625E-01
(PID.TID 0000.0001) %MON pe_b_mean                    =  -2.8126075764167E-01
(PID.TID 0000.0001) %MON ke_max                       =   1.9728599694057E-02
(PID.TID 0000.0001) %MON ke_mean                      =   1.3467382058900E-03
(PID.TID 0000.0001) %MON ke_vol                       =   1.3174245129058E+12
(PID.TID 0000.0001) // =======================================================
(PID.TID 0000.0001) // End MONITOR dynamic field statistics
(PID.TID 0000.0001) // =======================================================
(PID.TID 0000.0001) // =======================================================
(PID.TID 0000.0001) // Begin OBCS MONITOR field statistics
(PID.TID 0000.0001) // =======================================================
(PID.TID 0000.0001) %MON obc_N_vVel_max               =   2.5000000000000E-02
(PID.TID 0000.0001) %MON obc_N_vVel_min               =  -2.5000000000000E-02
(PID.TID 0000.0001) %MON obc_N_vVel_mean              =   1.0701309254946E-18
(PID.TID 0000.0001) %MON obc_N_vVel_sd                =   1.4595032760272E-02
(PID.TID 0000.0001) %MON obc_N_vVel_Int               =   1.1141310096718E-11
(PID.TID 0000.0001) // =======================================================
(PID.TID 0000.0001) // End OBCS MONITOR field statistics
(PID.TID 0000.0001) // =======================================================
(PID.TID 0000.0001) streamice solo_time_step: nIter0000011403 0.11E+00seconds
 time_step_loc   9.51293759512937678E-006
(PID.TID 0000.0001) END STREAMICE_ADVECT_THICKNESS
 cg2d: Sum(rhs),rhsMax =   1.23336485334220E-01  5.71285748533462E+01
(PID.TID 0000.0001)      cg2d_init_res =   6.75076852114249E-05
(PID.TID 0000.0001)      cg2d_iters(min,last) =      -1     115
(PID.TID 0000.0001)      cg2d_last_res =   5.52804336610472E-12
(PID.TID 0000.0001) CALLING FILL DIAGNOSTICS
(PID.TID 0000.0001) // =======================================================
(PID.TID 0000.0001) // Begin MONITOR dynamic field statistics
(PID.TID 0000.0001) // =======================================================
(PID.TID 0000.0001) %MON time_tsnumber                =                 11404
(PID.TID 0000.0001) %MON time_secondsf                =   3.4212000000000E+06
(PID.TID 0000.0001) %MON dynstat_eta_max              =   2.4712950348584E+00
(PID.TID 0000.0001) %MON dynstat_eta_min              =  -7.4982915042409E+00
(PID.TID 0000.0001) %MON dynstat_eta_mean             =  -1.3355738336414E+00
(PID.TID 0000.0001) %MON dynstat_eta_sd               =   2.4333909123287E+00
(PID.TID 0000.0001) %MON dynstat_eta_del2             =   1.8281097413899E-01
(PID.TID 0000.0001) %MON dynstat_uvel_max             =   6.6990601402068E-12
(PID.TID 0000.0001) %MON dynstat_uvel_min             =  -6.7450208197764E-12
(PID.TID 0000.0001) %MON dynstat_uvel_mean            =  -8.9906903063467E-26
(PID.TID 0000.0001) %MON dynstat_uvel_sd              =   9.4497525238485E-13
(PID.TID 0000.0001) %MON dynstat_uvel_del2            =   2.3047227108285E-14
(PID.TID 0000.0001) %MON dynstat_vvel_max             =   1.9871030434384E-01
(PID.TID 0000.0001) %MON dynstat_vvel_min             =  -1.1043841725120E-01
(PID.TID 0000.0001) %MON dynstat_vvel_mean            =   7.9252287118778E-07
(PID.TID 0000.0001) %MON dynstat_vvel_sd              =   5.1901675672174E-02
(PID.TID 0000.0001) %MON dynstat_vvel_del2            =   1.5243996687204E-05
(PID.TID 0000.0001) %MON dynstat_wvel_max             =   1.2386367354112E-02
(PID.TID 0000.0001) %MON dynstat_wvel_min             =  -7.7824606184333E-03
(PID.TID 0000.0001) %MON dynstat_wvel_mean            =   3.0020920614268E-05
(PID.TID 0000.0001) %MON dynstat_wvel_sd              =   6.8043586407424E-04
(PID.TID 0000.0001) %MON dynstat_wvel_del2            =   3.9297102844281E-06
(PID.TID 0000.0001) %MON dynstat_theta_max            =   1.9439582903660E+00
(PID.TID 0000.0001) %MON dynstat_theta_min            =  -1.8515052755149E+00
(PID.TID 0000.0001) %MON dynstat_theta_mean           =   2.2523083959591E-02
(PID.TID 0000.0001) %MON dynstat_theta_sd             =   1.2764428551201E+00
(PID.TID 0000.0001) %MON dynstat_theta_del2           =   5.7847073710124E-05
(PID.TID 0000.0001) %MON dynstat_salt_max             =   3.4692815165432E+01
(PID.TID 0000.0001) %MON dynstat_salt_min             =   3.3812118061541E+01
(PID.TID 0000.0001) %MON dynstat_salt_mean            =   3.4431628352452E+01
(PID.TID 0000.0001) %MON dynstat_salt_sd              =   1.8349845634781E-01
(PID.TID 0000.0001) %MON dynstat_salt_del2            =   1.6014944528502E-05
(PID.TID 0000.0001) %MON advcfl_uvel_max              =   5.3320893314668E-13
(PID.TID 0000.0001) %MON advcfl_vvel_max              =   6.8633289251338E-02
(PID.TID 0000.0001) %MON advcfl_wvel_max              =   3.7159102062336E-01
(PID.TID 0000.0001) %MON advcfl_W_hf_max              =   3.7159102062336E-01
(PID.TID 0000.0001) %MON pe_b_mean                    =  -2.8124375212634E-01
(PID.TID 0000.0001) %MON ke_max                       =   1.9729297351990E-02
(PID.TID 0000.0001) %MON ke_mean                      =   1.3468581094958E-03
(PID.TID 0000.0001) %MON ke_vol                       =   1.3174246706485E+12
(PID.TID 0000.0001) // =======================================================
(PID.TID 0000.0001) // End MONITOR dynamic field statistics
(PID.TID 0000.0001) // =======================================================
(PID.TID 0000.0001) // =======================================================
(PID.TID 0000.0001) // Begin OBCS MONITOR field statistics
(PID.TID 0000.0001) // =======================================================
(PID.TID 0000.0001) %MON obc_N_vVel_max               =   2.5000000000000E-02
(PID.TID 0000.0001) %MON obc_N_vVel_min               =  -2.5000000000000E-02
(PID.TID 0000.0001) %MON obc_N_vVel_mean              =   1.0701309254946E-18
(PID.TID 0000.0001) %MON obc_N_vVel_sd                =   1.4595032760272E-02
(PID.TID 0000.0001) %MON obc_N_vVel_Int               =   1.1141310096718E-11
(PID.TID 0000.0001) // =======================================================
(PID.TID 0000.0001) // End OBCS MONITOR field statistics
(PID.TID 0000.0001) // =======================================================
(PID.TID 0000.0001) streamice solo_time_step: nIter0000011404 0.11E+00seconds
 time_step_loc   9.51293759512937678E-006
(PID.TID 0000.0001) END STREAMICE_ADVECT_THICKNESS
 cg2d: Sum(rhs),rhsMax =   1.23329048437541E-01  5.71284607217183E+01
(PID.TID 0000.0001)      cg2d_init_res =   6.75260479722678E-05
(PID.TID 0000.0001)      cg2d_iters(min,last) =      -1     115
(PID.TID 0000.0001)      cg2d_last_res =   5.53514271122129E-12
(PID.TID 0000.0001) CALLING FILL DIAGNOSTICS
(PID.TID 0000.0001) // =======================================================
(PID.TID 0000.0001) // Begin MONITOR dynamic field statistics
(PID.TID 0000.0001) // =======================================================
(PID.TID 0000.0001) %MON time_tsnumber                =                 11405
(PID.TID 0000.0001) %MON time_secondsf                =   3.4215000000000E+06
(PID.TID 0000.0001) %MON dynstat_eta_max              =   2.4714794541020E+00
(PID.TID 0000.0001) %MON dynstat_eta_min              =  -7.4981175969146E+00
(PID.TID 0000.0001) %MON dynstat_eta_mean             =  -1.3354906336640E+00
(PID.TID 0000.0001) %MON dynstat_eta_sd               =   2.4333406841843E+00
(PID.TID 0000.0001) %MON dynstat_eta_del2             =   1.8281096495180E-01
(PID.TID 0000.0001) %MON dynstat_uvel_max             =   6.7385726110977E-12
(PID.TID 0000.0001) %MON dynstat_uvel_min             =  -6.7944405870378E-12
(PID.TID 0000.0001) %MON dynstat_uvel_mean            =  -8.9031302153268E-26
(PID.TID 0000.0001) %MON dynstat_uvel_sd              =   9.4722698661169E-13
(PID.TID 0000.0001) %MON dynstat_uvel_del2            =   2.3101495195615E-14
(PID.TID 0000.0001) %MON dynstat_vvel_max             =   1.9871356898714E-01
(PID.TID 0000.0001) %MON dynstat_vvel_min             =  -1.1043595457731E-01
(PID.TID 0000.0001) %MON dynstat_vvel_mean            =   7.9232409790873E-07
(PID.TID 0000.0001) %MON dynstat_vvel_sd              =   5.1903994292855E-02
(PID.TID 0000.0001) %MON dynstat_vvel_del2            =   1.5243978868771E-05
(PID.TID 0000.0001) %MON dynstat_wvel_max             =   1.2386070283428E-02
(PID.TID 0000.0001) %MON dynstat_wvel_min             =  -7.7837105741328E-03
(PID.TID 0000.0001) %MON dynstat_wvel_mean            =   3.0020886491774E-05
(PID.TID 0000.0001) %MON dynstat_wvel_sd              =   6.8045695124403E-04
(PID.TID 0000.0001) %MON dynstat_wvel_del2            =   3.9299579249666E-06
(PID.TID 0000.0001) %MON dynstat_theta_max            =   1.9439590122554E+00
(PID.TID 0000.0001) %MON dynstat_theta_min            =  -1.8514977149670E+00
(PID.TID 0000.0001) %MON dynstat_theta_mean           =   2.2534680435104E-02
(PID.TID 0000.0001) %MON dynstat_theta_sd             =   1.2764397703528E+00
(PID.TID 0000.0001) %MON dynstat_theta_del2           =   5.7818663282864E-05
(PID.TID 0000.0001) %MON dynstat_salt_max             =   3.4692815257982E+01
(PID.TID 0000.0001) %MON dynstat_salt_min             =   3.3812118390329E+01
(PID.TID 0000.0001) %MON dynstat_salt_mean            =   3.4431629079094E+01
(PID.TID 0000.0001) %MON dynstat_salt_sd              =   1.8349905291276E-01
(PID.TID 0000.0001) %MON dynstat_salt_del2            =   1.5995683001304E-05
(PID.TID 0000.0001) %MON advcfl_uvel_max              =   5.3737380914914E-13
(PID.TID 0000.0001) %MON advcfl_vvel_max              =   6.8634416838598E-02
(PID.TID 0000.0001) %MON advcfl_wvel_max              =   3.7158210850284E-01
(PID.TID 0000.0001) %MON advcfl_W_hf_max              =   3.7158210850284E-01
(PID.TID 0000.0001) %MON pe_b_mean                    =  -2.8122674231633E-01
(PID.TID 0000.0001) %MON ke_max                       =   1.9729997818470E-02
(PID.TID 0000.0001) %MON ke_mean                      =   1.3469784821300E-03
(PID.TID 0000.0001) %MON ke_vol                       =   1.3174248284000E+12
(PID.TID 0000.0001) // =======================================================
(PID.TID 0000.0001) // End MONITOR dynamic field statistics
(PID.TID 0000.0001) // =======================================================
(PID.TID 0000.0001) // =======================================================
(PID.TID 0000.0001) // Begin OBCS MONITOR field statistics
(PID.TID 0000.0001) // =======================================================
(PID.TID 0000.0001) %MON obc_N_vVel_max               =   2.5000000000000E-02
(PID.TID 0000.0001) %MON obc_N_vVel_min               =  -2.5000000000000E-02
(PID.TID 0000.0001) %MON obc_N_vVel_mean              =   1.0701309254946E-18
(PID.TID 0000.0001) %MON obc_N_vVel_sd                =   1.4595032760272E-02
(PID.TID 0000.0001) %MON obc_N_vVel_Int               =   1.1141310096718E-11
(PID.TID 0000.0001) // =======================================================
(PID.TID 0000.0001) // End OBCS MONITOR field statistics
(PID.TID 0000.0001) // =======================================================
(PID.TID 0000.0001) streamice solo_time_step: nIter0000011405 0.11E+00seconds
 time_step_loc   9.51293759512937678E-006
(PID.TID 0000.0001) END STREAMICE_ADVECT_THICKNESS
 cg2d: Sum(rhs),rhsMax =   1.23321610965490E-01  5.71283465454813E+01
(PID.TID 0000.0001)      cg2d_init_res =   6.75443857030764E-05
(PID.TID 0000.0001)      cg2d_iters(min,last) =      -1     115
(PID.TID 0000.0001)      cg2d_last_res =   5.53659963390407E-12
(PID.TID 0000.0001) CALLING FILL DIAGNOSTICS
(PID.TID 0000.0001) // =======================================================
(PID.TID 0000.0001) // Begin MONITOR dynamic field statistics
(PID.TID 0000.0001) // =======================================================
(PID.TID 0000.0001) %MON time_tsnumber                =                 11406
(PID.TID 0000.0001) %MON time_secondsf                =   3.4218000000000E+06
(PID.TID 0000.0001) %MON dynstat_eta_max              =   2.4716642268064E+00
(PID.TID 0000.0001) %MON dynstat_eta_min              =  -7.4979431526405E+00
(PID.TID 0000.0001) %MON dynstat_eta_mean             =  -1.3354074267351E+00
(PID.TID 0000.0001) %MON dynstat_eta_sd               =   2.4332903648355E+00
(PID.TID 0000.0001) %MON dynstat_eta_del2             =   1.8281095504583E-01
(PID.TID 0000.0001) %MON dynstat_uvel_max             =   6.7212217719405E-12
(PID.TID 0000.0001) %MON dynstat_uvel_min             =  -6.7788409523251E-12
(PID.TID 0000.0001) %MON dynstat_uvel_mean            =  -8.9551015495637E-26
(PID.TID 0000.0001) %MON dynstat_uvel_sd              =   9.4735742456888E-13
(PID.TID 0000.0001) %MON dynstat_uvel_del2            =   2.3104718818932E-14
(PID.TID 0000.0001) %MON dynstat_vvel_max             =   1.9871688054859E-01
(PID.TID 0000.0001) %MON dynstat_vvel_min             =  -1.1043353506032E-01
(PID.TID 0000.0001) %MON dynstat_vvel_mean            =   7.5771484998453E-07
(PID.TID 0000.0001) %MON dynstat_vvel_sd              =   5.1906318791193E-02
(PID.TID 0000.0001) %MON dynstat_vvel_del2            =   1.5245535039755E-05
(PID.TID 0000.0001) %MON dynstat_wvel_max             =   1.2385763454246E-02
(PID.TID 0000.0001) %MON dynstat_wvel_min             =  -7.7849624308388E-03
(PID.TID 0000.0001) %MON dynstat_wvel_mean            =   3.0020721746196E-05
(PID.TID 0000.0001) %MON dynstat_wvel_sd              =   6.8047746613056E-04
(PID.TID 0000.0001) %MON dynstat_wvel_del2            =   3.9301839502859E-06
(PID.TID 0000.0001) %MON dynstat_theta_max            =   1.9439597341331E+00
(PID.TID 0000.0001) %MON dynstat_theta_min            =  -1.8514901425685E+00
(PID.TID 0000.0001) %MON dynstat_theta_mean           =   2.2546268440540E-02
(PID.TID 0000.0001) %MON dynstat_theta_sd             =   1.2764366906843E+00
(PID.TID 0000.0001) %MON dynstat_theta_del2           =   5.7797155573442E-05
(PID.TID 0000.0001) %MON dynstat_salt_max             =   3.4692815350530E+01
(PID.TID 0000.0001) %MON dynstat_salt_min             =   3.3812118732849E+01
(PID.TID 0000.0001) %MON dynstat_salt_mean            =   3.4431629804912E+01
(PID.TID 0000.0001) %MON dynstat_salt_sd              =   1.8349965208371E-01
(PID.TID 0000.0001) %MON dynstat_salt_del2            =   1.5980630300383E-05
(PID.TID 0000.0001) %MON advcfl_uvel_max              =   5.3588249002323E-13
(PID.TID 0000.0001) %MON advcfl_vvel_max              =   6.8635560631095E-02
(PID.TID 0000.0001) %MON advcfl_wvel_max              =   3.7157290362737E-01
(PID.TID 0000.0001) %MON advcfl_W_hf_max              =   3.7157290362737E-01
(PID.TID 0000.0001) %MON pe_b_mean                    =  -2.8120971696274E-01
(PID.TID 0000.0001) %MON ke_max                       =   1.9730705776895E-02
(PID.TID 0000.0001) %MON ke_mean                      =   1.3470991652817E-03
(PID.TID 0000.0001) %MON ke_vol                       =   1.3174249861643E+12
(PID.TID 0000.0001) // =======================================================
(PID.TID 0000.0001) // End MONITOR dynamic field statistics
(PID.TID 0000.0001) // =======================================================
(PID.TID 0000.0001) // =======================================================
(PID.TID 0000.0001) // Begin OBCS MONITOR field statistics
(PID.TID 0000.0001) // =======================================================
(PID.TID 0000.0001) %MON obc_N_vVel_max               =   2.5000000000000E-02
(PID.TID 0000.0001) %MON obc_N_vVel_min               =  -2.5000000000000E-02
(PID.TID 0000.0001) %MON obc_N_vVel_mean              =   1.0701309254946E-18
(PID.TID 0000.0001) %MON obc_N_vVel_sd                =   1.4595032760272E-02
(PID.TID 0000.0001) %MON obc_N_vVel_Int               =   1.1141310096718E-11
(PID.TID 0000.0001) // =======================================================
(PID.TID 0000.0001) // End OBCS MONITOR field statistics
(PID.TID 0000.0001) // =======================================================
(PID.TID 0000.0001) streamice solo_time_step: nIter0000011406 0.11E+00seconds
 time_step_loc   9.51293759512937678E-006
(PID.TID 0000.0001) END STREAMICE_ADVECT_THICKNESS
 cg2d: Sum(rhs),rhsMax =   1.23314172818340E-01  5.71282323539395E+01
(PID.TID 0000.0001)      cg2d_init_res =   6.75621830206677E-05
(PID.TID 0000.0001)      cg2d_iters(min,last) =      -1     115
(PID.TID 0000.0001)      cg2d_last_res =   5.53593929158297E-12
(PID.TID 0000.0001) CALLING FILL DIAGNOSTICS
(PID.TID 0000.0001) // =======================================================
(PID.TID 0000.0001) // Begin MONITOR dynamic field statistics
(PID.TID 0000.0001) // =======================================================
(PID.TID 0000.0001) %MON time_tsnumber                =                 11407
(PID.TID 0000.0001) %MON time_secondsf                =   3.4221000000000E+06
(PID.TID 0000.0001) %MON dynstat_eta_max              =   2.4718493395321E+00
(PID.TID 0000.0001) %MON dynstat_eta_min              =  -7.4977679530806E+00
(PID.TID 0000.0001) %MON dynstat_eta_mean             =  -1.3353242124599E+00
(PID.TID 0000.0001) %MON dynstat_eta_sd               =   2.4332399012188E+00
(PID.TID 0000.0001) %MON dynstat_eta_del2             =   1.8281094420784E-01
(PID.TID 0000.0001) %MON dynstat_uvel_max             =   6.7490883321308E-12
(PID.TID 0000.0001) %MON dynstat_uvel_min             =  -6.8077225739288E-12
(PID.TID 0000.0001) %MON dynstat_uvel_mean            =  -8.9827838581692E-26
(PID.TID 0000.0001) %MON dynstat_uvel_sd              =   9.4791356988099E-13
(PID.TID 0000.0001) %MON dynstat_uvel_del2            =   2.3118324643267E-14
(PID.TID 0000.0001) %MON dynstat_vvel_max             =   1.9872025548433E-01
(PID.TID 0000.0001) %MON dynstat_vvel_min             =  -1.1043114191273E-01
(PID.TID 0000.0001) %MON dynstat_vvel_mean            =   6.9764583031536E-07
(PID.TID 0000.0001) %MON dynstat_vvel_sd              =   5.1908644006001E-02
(PID.TID 0000.0001) %MON dynstat_vvel_del2            =   1.5247702193702E-05
(PID.TID 0000.0001) %MON dynstat_wvel_max             =   1.2385452256101E-02
(PID.TID 0000.0001) %MON dynstat_wvel_min             =  -7.7862161941900E-03
(PID.TID 0000.0001) %MON dynstat_wvel_mean            =   3.0020473992403E-05
(PID.TID 0000.0001) %MON dynstat_wvel_sd              =   6.8049786714526E-04
(PID.TID 0000.0001) %MON dynstat_wvel_del2            =   3.9304081203383E-06
(PID.TID 0000.0001) %MON dynstat_theta_max            =   1.9439604559832E+00
(PID.TID 0000.0001) %MON dynstat_theta_min            =  -1.8514825581052E+00
(PID.TID 0000.0001) %MON dynstat_theta_mean           =   2.2557847936129E-02
(PID.TID 0000.0001) %MON dynstat_theta_sd             =   1.2764336159405E+00
(PID.TID 0000.0001) %MON dynstat_theta_del2           =   5.7780899628816E-05
(PID.TID 0000.0001) %MON dynstat_salt_max             =   3.4692815443075E+01
(PID.TID 0000.0001) %MON dynstat_salt_min             =   3.3812119090136E+01
(PID.TID 0000.0001) %MON dynstat_salt_mean            =   3.4431630529880E+01
(PID.TID 0000.0001) %MON dynstat_salt_sd              =   1.8350025365125E-01
(PID.TID 0000.0001) %MON dynstat_salt_del2            =   1.5968779053666E-05
(PID.TID 0000.0001) %MON advcfl_uvel_max              =   5.3842428443070E-13
(PID.TID 0000.0001) %MON advcfl_vvel_max              =   6.8636726312673E-02
(PID.TID 0000.0001) %MON advcfl_wvel_max              =   3.7156356768304E-01
(PID.TID 0000.0001) %MON advcfl_W_hf_max              =   3.7156356768304E-01
(PID.TID 0000.0001) %MON pe_b_mean                    =  -2.8119266896873E-01
(PID.TID 0000.0001) %MON ke_max                       =   1.9731424452788E-02
(PID.TID 0000.0001) %MON ke_mean                      =   1.3472198910234E-03
(PID.TID 0000.0001) %MON ke_vol                       =   1.3174251439419E+12
(PID.TID 0000.0001) // =======================================================
(PID.TID 0000.0001) // End MONITOR dynamic field statistics
(PID.TID 0000.0001) // =======================================================
(PID.TID 0000.0001) // =======================================================
(PID.TID 0000.0001) // Begin OBCS MONITOR field statistics
(PID.TID 0000.0001) // =======================================================
(PID.TID 0000.0001) %MON obc_N_vVel_max               =   2.5000000000000E-02
(PID.TID 0000.0001) %MON obc_N_vVel_min               =  -2.5000000000000E-02
(PID.TID 0000.0001) %MON obc_N_vVel_mean              =   1.0701309254946E-18
(PID.TID 0000.0001) %MON obc_N_vVel_sd                =   1.4595032760272E-02
(PID.TID 0000.0001) %MON obc_N_vVel_Int               =   1.1141310096718E-11
(PID.TID 0000.0001) // =======================================================
(PID.TID 0000.0001) // End OBCS MONITOR field statistics
(PID.TID 0000.0001) // =======================================================
(PID.TID 0000.0001) streamice solo_time_step: nIter0000011407 0.11E+00seconds
 time_step_loc   9.51293759512937678E-006
(PID.TID 0000.0001) END STREAMICE_ADVECT_THICKNESS
 cg2d: Sum(rhs),rhsMax =   1.23306733953698E-01  5.71281181623843E+01
(PID.TID 0000.0001)      cg2d_init_res =   6.75769227332211E-05
(PID.TID 0000.0001)      cg2d_iters(min,last) =      -1     115
(PID.TID 0000.0001)      cg2d_last_res =   5.53413902208521E-12
(PID.TID 0000.0001) CALLING FILL DIAGNOSTICS
(PID.TID 0000.0001) // =======================================================
(PID.TID 0000.0001) // Begin MONITOR dynamic field statistics
(PID.TID 0000.0001) // =======================================================
(PID.TID 0000.0001) %MON time_tsnumber                =                 11408
(PID.TID 0000.0001) %MON time_secondsf                =   3.4224000000000E+06
(PID.TID 0000.0001) %MON dynstat_eta_max              =   2.4720347857024E+00
(PID.TID 0000.0001) %MON dynstat_eta_min              =  -7.4975918091710E+00
(PID.TID 0000.0001) %MON dynstat_eta_mean             =  -1.3352409907370E+00
(PID.TID 0000.0001) %MON dynstat_eta_sd               =   2.4331892689329E+00
(PID.TID 0000.0001) %MON dynstat_eta_del2             =   1.8281093255479E-01
(PID.TID 0000.0001) %MON dynstat_uvel_max             =   6.7454830670947E-12
(PID.TID 0000.0001) %MON dynstat_uvel_min             =  -6.7929432620715E-12
(PID.TID 0000.0001) %MON dynstat_uvel_mean            =  -9.0158136038214E-26
(PID.TID 0000.0001) %MON dynstat_uvel_sd              =   9.4756682028321E-13
(PID.TID 0000.0001) %MON dynstat_uvel_del2            =   2.3110017307039E-14
(PID.TID 0000.0001) %MON dynstat_vvel_max             =   1.9872371456228E-01
(PID.TID 0000.0001) %MON dynstat_vvel_min             =  -1.1042875741580E-01
(PID.TID 0000.0001) %MON dynstat_vvel_mean            =   6.2658914556529E-07
(PID.TID 0000.0001) %MON dynstat_vvel_sd              =   5.1910967426569E-02
(PID.TID 0000.0001) %MON dynstat_vvel_del2            =   1.5249759669186E-05
(PID.TID 0000.0001) %MON dynstat_wvel_max             =   1.2385141608700E-02
(PID.TID 0000.0001) %MON dynstat_wvel_min             =  -7.7874714424126E-03
(PID.TID 0000.0001) %MON dynstat_wvel_mean            =   3.0020191355512E-05
(PID.TID 0000.0001) %MON dynstat_wvel_sd              =   6.8051827574924E-04
(PID.TID 0000.0001) %MON dynstat_wvel_del2            =   3.9306306566588E-06
(PID.TID 0000.0001) %MON dynstat_theta_max            =   1.9439611777898E+00
(PID.TID 0000.0001) %MON dynstat_theta_min            =  -1.8514749614153E+00
(PID.TID 0000.0001) %MON dynstat_theta_mean           =   2.2569418902972E-02
(PID.TID 0000.0001) %MON dynstat_theta_sd             =   1.2764305459604E+00
(PID.TID 0000.0001) %MON dynstat_theta_del2           =   5.7768654284678E-05
(PID.TID 0000.0001) %MON dynstat_salt_max             =   3.4692815535614E+01
(PID.TID 0000.0001) %MON dynstat_salt_min             =   3.3812119462748E+01
(PID.TID 0000.0001) %MON dynstat_salt_mean            =   3.4431631253977E+01
(PID.TID 0000.0001) %MON dynstat_salt_sd              =   1.8350085743460E-01
(PID.TID 0000.0001) %MON dynstat_salt_del2            =   1.5959370979982E-05
(PID.TID 0000.0001) %MON advcfl_uvel_max              =   5.3699730904835E-13
(PID.TID 0000.0001) %MON advcfl_vvel_max              =   6.8637921056439E-02
(PID.TID 0000.0001) %MON advcfl_wvel_max              =   3.7155424826101E-01
(PID.TID 0000.0001) %MON advcfl_W_hf_max              =   3.7155424826101E-01
(PID.TID 0000.0001) %MON pe_b_mean                    =  -2.8117559536936E-01
(PID.TID 0000.0001) %MON ke_max                       =   1.9732157933533E-02
(PID.TID 0000.0001) %MON ke_mean                      =   1.3473405290067E-03
(PID.TID 0000.0001) %MON ke_vol                       =   1.3174253017334E+12
(PID.TID 0000.0001) // =======================================================
(PID.TID 0000.0001) // End MONITOR dynamic field statistics
(PID.TID 0000.0001) // =======================================================
(PID.TID 0000.0001) // =======================================================
(PID.TID 0000.0001) // Begin OBCS MONITOR field statistics
(PID.TID 0000.0001) // =======================================================
(PID.TID 0000.0001) %MON obc_N_vVel_max               =   2.5000000000000E-02
(PID.TID 0000.0001) %MON obc_N_vVel_min               =  -2.5000000000000E-02
(PID.TID 0000.0001) %MON obc_N_vVel_mean              =   1.0701309254946E-18
(PID.TID 0000.0001) %MON obc_N_vVel_sd                =   1.4595032760272E-02
(PID.TID 0000.0001) %MON obc_N_vVel_Int               =   1.1141310096718E-11
(PID.TID 0000.0001) // =======================================================
(PID.TID 0000.0001) // End OBCS MONITOR field statistics
(PID.TID 0000.0001) // =======================================================
(PID.TID 0000.0001) streamice solo_time_step: nIter0000011408 0.11E+00seconds
 time_step_loc   9.51293759512937678E-006
(PID.TID 0000.0001) END STREAMICE_ADVECT_THICKNESS
 cg2d: Sum(rhs),rhsMax =   1.23299294355778E-01  5.71280039774640E+01
(PID.TID 0000.0001)      cg2d_init_res =   6.75894003437826E-05
(PID.TID 0000.0001)      cg2d_iters(min,last) =      -1     115
(PID.TID 0000.0001)      cg2d_last_res =   5.53236266892816E-12
(PID.TID 0000.0001) CALLING FILL DIAGNOSTICS
(PID.TID 0000.0001) // =======================================================
(PID.TID 0000.0001) // Begin MONITOR dynamic field statistics
(PID.TID 0000.0001) // =======================================================
(PID.TID 0000.0001) %MON time_tsnumber                =                 11409
(PID.TID 0000.0001) %MON time_secondsf                =   3.4227000000000E+06
(PID.TID 0000.0001) %MON dynstat_eta_max              =   2.4722205493670E+00
(PID.TID 0000.0001) %MON dynstat_eta_min              =  -7.4974147080824E+00
(PID.TID 0000.0001) %MON dynstat_eta_mean             =  -1.3351577615508E+00
(PID.TID 0000.0001) %MON dynstat_eta_sd               =   2.4331384762346E+00
(PID.TID 0000.0001) %MON dynstat_eta_del2             =   1.8281092019225E-01
(PID.TID 0000.0001) %MON dynstat_uvel_max             =   6.7548268932996E-12
(PID.TID 0000.0001) %MON dynstat_uvel_min             =  -6.8044992623366E-12
(PID.TID 0000.0001) %MON dynstat_uvel_mean            =  -8.8624881212489E-26
(PID.TID 0000.0001) %MON dynstat_uvel_sd              =   9.4753641725791E-13
(PID.TID 0000.0001) %MON dynstat_uvel_del2            =   2.3109754303627E-14
(PID.TID 0000.0001) %MON dynstat_vvel_max             =   1.9872727915336E-01
(PID.TID 0000.0001) %MON dynstat_vvel_min             =  -1.1042636396980E-01
(PID.TID 0000.0001) %MON dynstat_vvel_mean            =   5.5861144506517E-07
(PID.TID 0000.0001) %MON dynstat_vvel_sd              =   5.1913287262165E-02
(PID.TID 0000.0001) %MON dynstat_vvel_del2            =   1.5251582425347E-05
(PID.TID 0000.0001) %MON dynstat_wvel_max             =   1.2384835796299E-02
(PID.TID 0000.0001) %MON dynstat_wvel_min             =  -7.7887277076410E-03
(PID.TID 0000.0001) %MON dynstat_wvel_mean            =   3.0019921303004E-05
(PID.TID 0000.0001) %MON dynstat_wvel_sd              =   6.8053889437647E-04
(PID.TID 0000.0001) %MON dynstat_wvel_del2            =   3.9308569709433E-06
(PID.TID 0000.0001) %MON dynstat_theta_max            =   1.9439618995390E+00
(PID.TID 0000.0001) %MON dynstat_theta_min            =  -1.8514673524060E+00
(PID.TID 0000.0001) %MON dynstat_theta_mean           =   2.2580981333555E-02
(PID.TID 0000.0001) %MON dynstat_theta_sd             =   1.2764274806091E+00
(PID.TID 0000.0001) %MON dynstat_theta_del2           =   5.7759494312373E-05
(PID.TID 0000.0001) %MON dynstat_salt_max             =   3.4692815628146E+01
(PID.TID 0000.0001) %MON dynstat_salt_min             =   3.3812119850792E+01
(PID.TID 0000.0001) %MON dynstat_salt_mean            =   3.4431631977194E+01
(PID.TID 0000.0001) %MON dynstat_salt_sd              =   1.8350146328761E-01
(PID.TID 0000.0001) %MON dynstat_salt_del2            =   1.5951840872376E-05
(PID.TID 0000.0001) %MON advcfl_uvel_max              =   5.3816935200378E-13
(PID.TID 0000.0001) %MON advcfl_vvel_max              =   6.8639152243777E-02
(PID.TID 0000.0001) %MON advcfl_wvel_max              =   3.7154507388898E-01
(PID.TID 0000.0001) %MON advcfl_W_hf_max              =   3.7154507388898E-01
(PID.TID 0000.0001) %MON pe_b_mean                    =  -2.8115849727362E-01
(PID.TID 0000.0001) %MON ke_max                       =   1.9732910425235E-02
(PID.TID 0000.0001) %MON ke_mean                      =   1.3474609862428E-03
(PID.TID 0000.0001) %MON ke_vol                       =   1.3174254595390E+12
(PID.TID 0000.0001) // =======================================================
(PID.TID 0000.0001) // End MONITOR dynamic field statistics
(PID.TID 0000.0001) // =======================================================
(PID.TID 0000.0001) // =======================================================
(PID.TID 0000.0001) // Begin OBCS MONITOR field statistics
(PID.TID 0000.0001) // =======================================================
(PID.TID 0000.0001) %MON obc_N_vVel_max               =   2.5000000000000E-02
(PID.TID 0000.0001) %MON obc_N_vVel_min               =  -2.5000000000000E-02
(PID.TID 0000.0001) %MON obc_N_vVel_mean              =   1.0701309254946E-18
(PID.TID 0000.0001) %MON obc_N_vVel_sd                =   1.4595032760272E-02
(PID.TID 0000.0001) %MON obc_N_vVel_Int               =   1.1141310096718E-11
(PID.TID 0000.0001) // =======================================================
(PID.TID 0000.0001) // End OBCS MONITOR field statistics
(PID.TID 0000.0001) // =======================================================
(PID.TID 0000.0001) streamice solo_time_step: nIter0000011409 0.11E+00seconds
 time_step_loc   9.51293759512937678E-006
(PID.TID 0000.0001) END STREAMICE_ADVECT_THICKNESS
 cg2d: Sum(rhs),rhsMax =   1.23291854033750E-01  5.71278897985537E+01
(PID.TID 0000.0001)      cg2d_init_res =   6.75992742593183E-05
(PID.TID 0000.0001)      cg2d_iters(min,last) =      -1     115
(PID.TID 0000.0001)      cg2d_last_res =   5.53097598522813E-12
(PID.TID 0000.0001) CALLING FILL DIAGNOSTICS
(PID.TID 0000.0001) // =======================================================
(PID.TID 0000.0001) // Begin MONITOR dynamic field statistics
(PID.TID 0000.0001) // =======================================================
(PID.TID 0000.0001) %MON time_tsnumber                =                 11410
(PID.TID 0000.0001) %MON time_secondsf                =   3.4230000000000E+06
(PID.TID 0000.0001) %MON dynstat_eta_max              =   2.4724065881909E+00
(PID.TID 0000.0001) %MON dynstat_eta_min              =  -7.4972367311690E+00
(PID.TID 0000.0001) %MON dynstat_eta_mean             =  -1.3350745249860E+00
(PID.TID 0000.0001) %MON dynstat_eta_sd               =   2.4330875558876E+00
(PID.TID 0000.0001) %MON dynstat_eta_del2             =   1.8281090729183E-01
(PID.TID 0000.0001) %MON dynstat_uvel_max             =   6.7481293198513E-12
(PID.TID 0000.0001) %MON dynstat_uvel_min             =  -6.7966482739115E-12
(PID.TID 0000.0001) %MON dynstat_uvel_mean            =  -8.8798875452443E-26
(PID.TID 0000.0001) %MON dynstat_uvel_sd              =   9.4736232245947E-13
(PID.TID 0000.0001) %MON dynstat_uvel_del2            =   2.3104988407765E-14
(PID.TID 0000.0001) %MON dynstat_vvel_max             =   1.9873096701067E-01
(PID.TID 0000.0001) %MON dynstat_vvel_min             =  -1.1042394747472E-01
(PID.TID 0000.0001) %MON dynstat_vvel_mean            =   5.0459104773674E-07
(PID.TID 0000.0001) %MON dynstat_vvel_sd              =   5.1915602356161E-02
(PID.TID 0000.0001) %MON dynstat_vvel_del2            =   1.5253109440376E-05
(PID.TID 0000.0001) %MON dynstat_wvel_max             =   1.2384537674124E-02
(PID.TID 0000.0001) %MON dynstat_wvel_min             =  -7.7899847017629E-03
(PID.TID 0000.0001) %MON dynstat_wvel_mean            =   3.0019704192825E-05
(PID.TID 0000.0001) %MON dynstat_wvel_sd              =   6.8055983396699E-04
(PID.TID 0000.0001) %MON dynstat_wvel_del2            =   3.9310883889412E-06
(PID.TID 0000.0001) %MON dynstat_theta_max            =   1.9439626212191E+00
(PID.TID 0000.0001) %MON dynstat_theta_min            =  -1.8514597310342E+00
(PID.TID 0000.0001) %MON dynstat_theta_mean           =   2.2592535240492E-02
(PID.TID 0000.0001) %MON dynstat_theta_sd             =   1.2764244197622E+00
(PID.TID 0000.0001) %MON dynstat_theta_del2           =   5.7752726398554E-05
(PID.TID 0000.0001) %MON dynstat_salt_max             =   3.4692815720669E+01
(PID.TID 0000.0001) %MON dynstat_salt_min             =   3.3812120254040E+01
(PID.TID 0000.0001) %MON dynstat_salt_mean            =   3.4431632699526E+01
(PID.TID 0000.0001) %MON dynstat_salt_sd              =   1.8350207107545E-01
(PID.TID 0000.0001) %MON dynstat_salt_del2            =   1.5945765175515E-05
(PID.TID 0000.0001) %MON advcfl_uvel_max              =   5.3729019849426E-13
(PID.TID 0000.0001) %MON advcfl_vvel_max              =   6.8640426006495E-02
(PID.TID 0000.0001) %MON advcfl_wvel_max              =   3.7153613022372E-01
(PID.TID 0000.0001) %MON advcfl_W_hf_max              =   3.7153613022372E-01
(PID.TID 0000.0001) %MON pe_b_mean                    =  -2.8114137925316E-01
(PID.TID 0000.0001) %MON ke_max                       =   1.9733685405774E-02
(PID.TID 0000.0001) %MON ke_mean                      =   1.3475812026498E-03
(PID.TID 0000.0001) %MON ke_vol                       =   1.3174256173587E+12
(PID.TID 0000.0001) // =======================================================
(PID.TID 0000.0001) // End MONITOR dynamic field statistics
(PID.TID 0000.0001) // =======================================================
(PID.TID 0000.0001) // =======================================================
(PID.TID 0000.0001) // Begin OBCS MONITOR field statistics
(PID.TID 0000.0001) // =======================================================
(PID.TID 0000.0001) %MON obc_N_vVel_max               =   2.5000000000000E-02
(PID.TID 0000.0001) %MON obc_N_vVel_min               =  -2.5000000000000E-02
(PID.TID 0000.0001) %MON obc_N_vVel_mean              =   1.0701309254946E-18
(PID.TID 0000.0001) %MON obc_N_vVel_sd                =   1.4595032760272E-02
(PID.TID 0000.0001) %MON obc_N_vVel_Int               =   1.1141310096718E-11
(PID.TID 0000.0001) // =======================================================
(PID.TID 0000.0001) // End OBCS MONITOR field statistics
(PID.TID 0000.0001) // =======================================================
(PID.TID 0000.0001) streamice solo_time_step: nIter0000011410 0.11E+00seconds
 time_step_loc   9.51293759512937678E-006
(PID.TID 0000.0001) END STREAMICE_ADVECT_THICKNESS
 cg2d: Sum(rhs),rhsMax =   1.23284413009296E-01  5.71277756216267E+01
(PID.TID 0000.0001)      cg2d_init_res =   6.76068758151261E-05
(PID.TID 0000.0001)      cg2d_iters(min,last) =      -1     115
(PID.TID 0000.0001)      cg2d_last_res =   5.53018768756594E-12
(PID.TID 0000.0001) CALLING FILL DIAGNOSTICS
(PID.TID 0000.0001) // =======================================================
(PID.TID 0000.0001) // Begin MONITOR dynamic field statistics
(PID.TID 0000.0001) // =======================================================
(PID.TID 0000.0001) %MON time_tsnumber                =                 11411
(PID.TID 0000.0001) %MON time_secondsf                =   3.4233000000000E+06
(PID.TID 0000.0001) %MON dynstat_eta_max              =   2.4725928225676E+00
(PID.TID 0000.0001) %MON dynstat_eta_min              =  -7.4970580027367E+00
(PID.TID 0000.0001) %MON dynstat_eta_mean             =  -1.3349912811834E+00
(PID.TID 0000.0001) %MON dynstat_eta_sd               =   2.4330365541180E+00
(PID.TID 0000.0001) %MON dynstat_eta_del2             =   1.8281089401503E-01
(PID.TID 0000.0001) %MON dynstat_uvel_max             =   6.7482478164167E-12
(PID.TID 0000.0001) %MON dynstat_uvel_min             =  -6.8068674759793E-12
(PID.TID 0000.0001) %MON dynstat_uvel_mean            =  -9.0176595391950E-26
(PID.TID 0000.0001) %MON dynstat_uvel_sd              =   9.4743456288870E-13
(PID.TID 0000.0001) %MON dynstat_uvel_del2            =   2.3106868746127E-14
(PID.TID 0000.0001) %MON dynstat_vvel_max             =   1.9873478894929E-01
(PID.TID 0000.0001) %MON dynstat_vvel_min             =  -1.1042149982553E-01
(PID.TID 0000.0001) %MON dynstat_vvel_mean            =   4.7069874213592E-07
(PID.TID 0000.0001) %MON dynstat_vvel_sd              =   5.1917911896930E-02
(PID.TID 0000.0001) %MON dynstat_vvel_del2            =   1.5254374201786E-05
(PID.TID 0000.0001) %MON dynstat_wvel_max             =   1.2384248235959E-02
(PID.TID 0000.0001) %MON dynstat_wvel_min             =  -7.7912423450340E-03
(PID.TID 0000.0001) %MON dynstat_wvel_mean            =   3.0019565611127E-05
(PID.TID 0000.0001) %MON dynstat_wvel_sd              =   6.8058115054513E-04
(PID.TID 0000.0001) %MON dynstat_wvel_del2            =   3.9313256051128E-06
(PID.TID 0000.0001) %MON dynstat_theta_max            =   1.9439633428209E+00
(PID.TID 0000.0001) %MON dynstat_theta_min            =  -1.8514520972782E+00
(PID.TID 0000.0001) %MON dynstat_theta_mean           =   2.2604080648521E-02
(PID.TID 0000.0001) %MON dynstat_theta_sd             =   1.2764213633046E+00
(PID.TID 0000.0001) %MON dynstat_theta_del2           =   5.7747830179994E-05
(PID.TID 0000.0001) %MON dynstat_salt_max             =   3.4692815813182E+01
(PID.TID 0000.0001) %MON dynstat_salt_min             =   3.3812120672159E+01
(PID.TID 0000.0001) %MON dynstat_salt_mean            =   3.4431633420979E+01
(PID.TID 0000.0001) %MON dynstat_salt_sd              =   1.8350268066897E-01
(PID.TID 0000.0001) %MON dynstat_salt_del2            =   1.5940826494382E-05
(PID.TID 0000.0001) %MON advcfl_uvel_max              =   5.3835665454470E-13
(PID.TID 0000.0001) %MON advcfl_vvel_max              =   6.8641746080053E-02
(PID.TID 0000.0001) %MON advcfl_wvel_max              =   3.7152744707876E-01
(PID.TID 0000.0001) %MON advcfl_W_hf_max              =   3.7152744707876E-01
(PID.TID 0000.0001) %MON pe_b_mean                    =  -2.8112424807724E-01
(PID.TID 0000.0001) %MON ke_max                       =   1.9734484989368E-02
(PID.TID 0000.0001) %MON ke_mean                      =   1.3477011360473E-03
(PID.TID 0000.0001) %MON ke_vol                       =   1.3174257751925E+12
(PID.TID 0000.0001) // =======================================================
(PID.TID 0000.0001) // End MONITOR dynamic field statistics
(PID.TID 0000.0001) // =======================================================
(PID.TID 0000.0001) // =======================================================
(PID.TID 0000.0001) // Begin OBCS MONITOR field statistics
(PID.TID 0000.0001) // =======================================================
(PID.TID 0000.0001) %MON obc_N_vVel_max               =   2.5000000000000E-02
(PID.TID 0000.0001) %MON obc_N_vVel_min               =  -2.5000000000000E-02
(PID.TID 0000.0001) %MON obc_N_vVel_mean              =   1.0701309254946E-18
(PID.TID 0000.0001) %MON obc_N_vVel_sd                =   1.4595032760272E-02
(PID.TID 0000.0001) %MON obc_N_vVel_Int               =   1.1141310096718E-11
(PID.TID 0000.0001) // =======================================================
(PID.TID 0000.0001) // End OBCS MONITOR field statistics
(PID.TID 0000.0001) // =======================================================
(PID.TID 0000.0001) streamice solo_time_step: nIter0000011411 0.11E+00seconds
 time_step_loc   9.51293759512937678E-006
(PID.TID 0000.0001) END STREAMICE_ADVECT_THICKNESS
 cg2d: Sum(rhs),rhsMax =   1.23276971308331E-01  5.71276614424380E+01
(PID.TID 0000.0001)      cg2d_init_res =   6.76123685402610E-05
(PID.TID 0000.0001)      cg2d_iters(min,last) =      -1     115
(PID.TID 0000.0001)      cg2d_last_res =   5.53002044944297E-12
(PID.TID 0000.0001) CALLING FILL DIAGNOSTICS
(PID.TID 0000.0001) // =======================================================
(PID.TID 0000.0001) // Begin MONITOR dynamic field statistics
(PID.TID 0000.0001) // =======================================================
(PID.TID 0000.0001) %MON time_tsnumber                =                 11412
(PID.TID 0000.0001) %MON time_secondsf                =   3.4236000000000E+06
(PID.TID 0000.0001) %MON dynstat_eta_max              =   2.4727791397340E+00
(PID.TID 0000.0001) %MON dynstat_eta_min              =  -7.4968786450737E+00
(PID.TID 0000.0001) %MON dynstat_eta_mean             =  -1.3349080303244E+00
(PID.TID 0000.0001) %MON dynstat_eta_sd               =   2.4329855192398E+00
(PID.TID 0000.0001) %MON dynstat_eta_del2             =   1.8281088051773E-01
(PID.TID 0000.0001) %MON dynstat_uvel_max             =   6.7500257637339E-12
(PID.TID 0000.0001) %MON dynstat_uvel_min             =  -6.7967066754770E-12
(PID.TID 0000.0001) %MON dynstat_uvel_mean            =  -9.1770272002918E-26
(PID.TID 0000.0001) %MON dynstat_uvel_sd              =   9.4739104984165E-13
(PID.TID 0000.0001) %MON dynstat_uvel_del2            =   2.3105758282219E-14
(PID.TID 0000.0001) %MON dynstat_vvel_max             =   1.9873874764681E-01
(PID.TID 0000.0001) %MON dynstat_vvel_min             =  -1.1041901916020E-01
(PID.TID 0000.0001) %MON dynstat_vvel_mean            =   4.5848647890334E-07
(PID.TID 0000.0001) %MON dynstat_vvel_sd              =   5.1920215310036E-02
(PID.TID 0000.0001) %MON dynstat_vvel_del2            =   1.5255418491319E-05
(PID.TID 0000.0001) %MON dynstat_wvel_max             =   1.2383966797860E-02
(PID.TID 0000.0001) %MON dynstat_wvel_min             =  -7.7925006881351E-03
(PID.TID 0000.0001) %MON dynstat_wvel_mean            =   3.0019513793933E-05
(PID.TID 0000.0001) %MON dynstat_wvel_sd              =   6.8060282913996E-04
(PID.TID 0000.0001) %MON dynstat_wvel_del2            =   3.9315679013007E-06
(PID.TID 0000.0001) %MON dynstat_theta_max            =   1.9439640643357E+00
(PID.TID 0000.0001) %MON dynstat_theta_min            =  -1.8514444511170E+00
(PID.TID 0000.0001) %MON dynstat_theta_mean           =   2.2615617586887E-02
(PID.TID 0000.0001) %MON dynstat_theta_sd             =   1.2764183111314E+00
(PID.TID 0000.0001) %MON dynstat_theta_del2           =   5.7744411095185E-05
(PID.TID 0000.0001) %MON dynstat_salt_max             =   3.4692815905684E+01
(PID.TID 0000.0001) %MON dynstat_salt_min             =   3.3812121104901E+01
(PID.TID 0000.0001) %MON dynstat_salt_mean            =   3.4431634141565E+01
(PID.TID 0000.0001) %MON dynstat_salt_sd              =   1.8350329194300E-01
(PID.TID 0000.0001) %MON dynstat_salt_del2            =   1.5936784918626E-05
(PID.TID 0000.0001) %MON advcfl_uvel_max              =   5.3729481526821E-13
(PID.TID 0000.0001) %MON advcfl_vvel_max              =   6.8643113389277E-02
(PID.TID 0000.0001) %MON advcfl_wvel_max              =   3.7151900393581E-01
(PID.TID 0000.0001) %MON advcfl_W_hf_max              =   3.7151900393581E-01
(PID.TID 0000.0001) %MON pe_b_mean                    =  -2.8110711122783E-01
(PID.TID 0000.0001) %MON ke_max                       =   1.9735309694757E-02
(PID.TID 0000.0001) %MON ke_mean                      =   1.3478207565634E-03
(PID.TID 0000.0001) %MON ke_vol                       =   1.3174259330400E+12
(PID.TID 0000.0001) // =======================================================
(PID.TID 0000.0001) // End MONITOR dynamic field statistics
(PID.TID 0000.0001) // =======================================================
(PID.TID 0000.0001) // =======================================================
(PID.TID 0000.0001) // Begin OBCS MONITOR field statistics
(PID.TID 0000.0001) // =======================================================
(PID.TID 0000.0001) %MON obc_N_vVel_max               =   2.5000000000000E-02
(PID.TID 0000.0001) %MON obc_N_vVel_min               =  -2.5000000000000E-02
(PID.TID 0000.0001) %MON obc_N_vVel_mean              =   1.0701309254946E-18
(PID.TID 0000.0001) %MON obc_N_vVel_sd                =   1.4595032760272E-02
(PID.TID 0000.0001) %MON obc_N_vVel_Int               =   1.1141310096718E-11
(PID.TID 0000.0001) // =======================================================
(PID.TID 0000.0001) // End OBCS MONITOR field statistics
(PID.TID 0000.0001) // =======================================================
(PID.TID 0000.0001) streamice solo_time_step: nIter0000011412 0.11E+00seconds
 time_step_loc   9.51293759512937678E-006
(PID.TID 0000.0001) END STREAMICE_ADVECT_THICKNESS
 cg2d: Sum(rhs),rhsMax =   1.23269528952933E-01  5.71275472597358E+01
(PID.TID 0000.0001)      cg2d_init_res =   6.76160254312179E-05
(PID.TID 0000.0001)      cg2d_iters(min,last) =      -1     115
(PID.TID 0000.0001)      cg2d_last_res =   5.53045672022356E-12
(PID.TID 0000.0001) CALLING FILL DIAGNOSTICS
(PID.TID 0000.0001) // =======================================================
(PID.TID 0000.0001) // Begin MONITOR dynamic field statistics
(PID.TID 0000.0001) // =======================================================
(PID.TID 0000.0001) %MON time_tsnumber                =                 11413
(PID.TID 0000.0001) %MON time_secondsf                =   3.4239000000000E+06
(PID.TID 0000.0001) %MON dynstat_eta_max              =   2.4729654138875E+00
(PID.TID 0000.0001) %MON dynstat_eta_min              =  -7.4966987565942E+00
(PID.TID 0000.0001) %MON dynstat_eta_mean             =  -1.3348247726189E+00
(PID.TID 0000.0001) %MON dynstat_eta_sd               =   2.4329344932379E+00
(PID.TID 0000.0001) %MON dynstat_eta_del2             =   1.8281086693504E-01
(PID.TID 0000.0001) %MON dynstat_uvel_max             =   6.7508209850627E-12
(PID.TID 0000.0001) %MON dynstat_uvel_min             =  -6.7984163261458E-12
(PID.TID 0000.0001) %MON dynstat_uvel_mean            =  -9.0724657025617E-26
(PID.TID 0000.0001) %MON dynstat_uvel_sd              =   9.4749360345639E-13
(PID.TID 0000.0001) %MON dynstat_uvel_del2            =   2.3107977305201E-14
(PID.TID 0000.0001) %MON dynstat_vvel_max             =   1.9874283817444E-01
(PID.TID 0000.0001) %MON dynstat_vvel_min             =  -1.1041650848471E-01
(PID.TID 0000.0001) %MON dynstat_vvel_mean            =   4.6574370471805E-07
(PID.TID 0000.0001) %MON dynstat_vvel_sd              =   5.1922512176339E-02
(PID.TID 0000.0001) %MON dynstat_vvel_del2            =   1.5256288262000E-05
(PID.TID 0000.0001) %MON dynstat_wvel_max             =   1.2383691528530E-02
(PID.TID 0000.0001) %MON dynstat_wvel_min             =  -7.7937598379016E-03
(PID.TID 0000.0001) %MON dynstat_wvel_mean            =   3.0019541390133E-05
(PID.TID 0000.0001) %MON dynstat_wvel_sd              =   6.8062480713573E-04
(PID.TID 0000.0001) %MON dynstat_wvel_del2            =   3.9318140558883E-06
(PID.TID 0000.0001) %MON dynstat_theta_max            =   1.9439647857551E+00
(PID.TID 0000.0001) %MON dynstat_theta_min            =  -1.8514367925189E+00
(PID.TID 0000.0001) %MON dynstat_theta_mean           =   2.2627146082729E-02
(PID.TID 0000.0001) %MON dynstat_theta_sd             =   1.2764152631491E+00
(PID.TID 0000.0001) %MON dynstat_theta_del2           =   5.7742167125861E-05
(PID.TID 0000.0001) %MON dynstat_salt_max             =   3.4692815998174E+01
(PID.TID 0000.0001) %MON dynstat_salt_min             =   3.3812121552152E+01
(PID.TID 0000.0001) %MON dynstat_salt_mean            =   3.4431634861297E+01
(PID.TID 0000.0001) %MON dynstat_salt_sd              =   1.8350390477867E-01
(PID.TID 0000.0001) %MON dynstat_salt_del2            =   1.5933457751646E-05
(PID.TID 0000.0001) %MON advcfl_uvel_max              =   5.3768825123473E-13
(PID.TID 0000.0001) %MON advcfl_vvel_max              =   6.8644526231794E-02
(PID.TID 0000.0001) %MON advcfl_wvel_max              =   3.7151074585589E-01
(PID.TID 0000.0001) %MON advcfl_W_hf_max              =   3.7151074585589E-01
(PID.TID 0000.0001) %MON pe_b_mean                    =  -2.8108997556455E-01
(PID.TID 0000.0001) %MON ke_max                       =   1.9736158544445E-02
(PID.TID 0000.0001) %MON ke_mean                      =   1.3479400423859E-03
(PID.TID 0000.0001) %MON ke_vol                       =   1.3174260909008E+12
(PID.TID 0000.0001) // =======================================================
(PID.TID 0000.0001) // End MONITOR dynamic field statistics
(PID.TID 0000.0001) // =======================================================
(PID.TID 0000.0001) // =======================================================
(PID.TID 0000.0001) // Begin OBCS MONITOR field statistics
(PID.TID 0000.0001) // =======================================================
(PID.TID 0000.0001) %MON obc_N_vVel_max               =   2.5000000000000E-02
(PID.TID 0000.0001) %MON obc_N_vVel_min               =  -2.5000000000000E-02
(PID.TID 0000.0001) %MON obc_N_vVel_mean              =   1.0701309254946E-18
(PID.TID 0000.0001) %MON obc_N_vVel_sd                =   1.4595032760272E-02
(PID.TID 0000.0001) %MON obc_N_vVel_Int               =   1.1141310096718E-11
(PID.TID 0000.0001) // =======================================================
(PID.TID 0000.0001) // End OBCS MONITOR field statistics
(PID.TID 0000.0001) // =======================================================
(PID.TID 0000.0001) streamice solo_time_step: nIter0000011413 0.11E+00seconds
 time_step_loc   9.51293759512937678E-006
(PID.TID 0000.0001) END STREAMICE_ADVECT_THICKNESS
 cg2d: Sum(rhs),rhsMax =   1.23262085962142E-01  5.71274330747051E+01
(PID.TID 0000.0001)      cg2d_init_res =   6.76180969731158E-05
(PID.TID 0000.0001)      cg2d_iters(min,last) =      -1     115
(PID.TID 0000.0001)      cg2d_last_res =   5.53133190779541E-12
(PID.TID 0000.0001) CALLING FILL DIAGNOSTICS
(PID.TID 0000.0001) // =======================================================
(PID.TID 0000.0001) // Begin MONITOR dynamic field statistics
(PID.TID 0000.0001) // =======================================================
(PID.TID 0000.0001) %MON time_tsnumber                =                 11414
(PID.TID 0000.0001) %MON time_secondsf                =   3.4242000000000E+06
(PID.TID 0000.0001) %MON dynstat_eta_max              =   2.4731515331425E+00
(PID.TID 0000.0001) %MON dynstat_eta_min              =  -7.4965184087727E+00
(PID.TID 0000.0001) %MON dynstat_eta_mean             =  -1.3347415083008E+00
(PID.TID 0000.0001) %MON dynstat_eta_sd               =   2.4328835068796E+00
(PID.TID 0000.0001) %MON dynstat_eta_del2             =   1.8281085338074E-01
(PID.TID 0000.0001) %MON dynstat_uvel_max             =   6.7503684995581E-12
(PID.TID 0000.0001) %MON dynstat_uvel_min             =  -6.7973217653601E-12
(PID.TID 0000.0001) %MON dynstat_uvel_mean            =  -9.0541046708385E-26
(PID.TID 0000.0001) %MON dynstat_uvel_sd              =   9.4781060426934E-13
(PID.TID 0000.0001) %MON dynstat_uvel_del2            =   2.3115298341123E-14
(PID.TID 0000.0001) %MON dynstat_vvel_max             =   1.9874704977060E-01
(PID.TID 0000.0001) %MON dynstat_vvel_min             =  -1.1041397381107E-01
(PID.TID 0000.0001) %MON dynstat_vvel_mean            =   4.8769085343121E-07
(PID.TID 0000.0001) %MON dynstat_vvel_sd              =   5.1924802186707E-02
(PID.TID 0000.0001) %MON dynstat_vvel_del2            =   1.5257022160705E-05
(PID.TID 0000.0001) %MON dynstat_wvel_max             =   1.2383420052161E-02
(PID.TID 0000.0001) %MON dynstat_wvel_min             =  -7.7950199037051E-03
(PID.TID 0000.0001) %MON dynstat_wvel_mean            =   3.0019629738478E-05
(PID.TID 0000.0001) %MON dynstat_wvel_sd              =   6.8064699335073E-04
(PID.TID 0000.0001) %MON dynstat_wvel_del2            =   3.9320626172415E-06
(PID.TID 0000.0001) %MON dynstat_theta_max            =   1.9439655070699E+00
(PID.TID 0000.0001) %MON dynstat_theta_min            =  -1.8514291214375E+00
(PID.TID 0000.0001) %MON dynstat_theta_mean           =   2.2638666158526E-02
(PID.TID 0000.0001) %MON dynstat_theta_sd             =   1.2764122192739E+00
(PID.TID 0000.0001) %MON dynstat_theta_del2           =   5.7740864376295E-05
(PID.TID 0000.0001) %MON dynstat_salt_max             =   3.4692816090650E+01
(PID.TID 0000.0001) %MON dynstat_salt_min             =   3.3812122013876E+01
(PID.TID 0000.0001) %MON dynstat_salt_mean            =   3.4431635580191E+01
(PID.TID 0000.0001) %MON dynstat_salt_sd              =   1.8350451906485E-01
(PID.TID 0000.0001) %MON dynstat_salt_del2            =   1.5930704438505E-05
(PID.TID 0000.0001) %MON advcfl_uvel_max              =   5.3734343949475E-13
(PID.TID 0000.0001) %MON advcfl_vvel_max              =   6.8645980890617E-02
(PID.TID 0000.0001) %MON advcfl_wvel_max              =   3.7150260156484E-01
(PID.TID 0000.0001) %MON advcfl_W_hf_max              =   3.7150260156484E-01
(PID.TID 0000.0001) %MON pe_b_mean                    =  -2.8107284635519E-01
(PID.TID 0000.0001) %MON ke_max                       =   1.9737029404979E-02
(PID.TID 0000.0001) %MON ke_mean                      =   1.3480589774119E-03
(PID.TID 0000.0001) %MON ke_vol                       =   1.3174262487747E+12
(PID.TID 0000.0001) // =======================================================
(PID.TID 0000.0001) // End MONITOR dynamic field statistics
(PID.TID 0000.0001) // =======================================================
(PID.TID 0000.0001) // =======================================================
(PID.TID 0000.0001) // Begin OBCS MONITOR field statistics
(PID.TID 0000.0001) // =======================================================
(PID.TID 0000.0001) %MON obc_N_vVel_max               =   2.5000000000000E-02
(PID.TID 0000.0001) %MON obc_N_vVel_min               =  -2.5000000000000E-02
(PID.TID 0000.0001) %MON obc_N_vVel_mean              =   1.0701309254946E-18
(PID.TID 0000.0001) %MON obc_N_vVel_sd                =   1.4595032760272E-02
(PID.TID 0000.0001) %MON obc_N_vVel_Int               =   1.1141310096718E-11
(PID.TID 0000.0001) // =======================================================
(PID.TID 0000.0001) // End OBCS MONITOR field statistics
(PID.TID 0000.0001) // =======================================================
(PID.TID 0000.0001) streamice solo_time_step: nIter0000011414 0.11E+00seconds
 time_step_loc   9.51293759512937678E-006
(PID.TID 0000.0001) END STREAMICE_ADVECT_THICKNESS
 cg2d: Sum(rhs),rhsMax =   1.23254642352996E-01  5.71273188904274E+01
(PID.TID 0000.0001)      cg2d_init_res =   6.76188443123928E-05
(PID.TID 0000.0001)      cg2d_iters(min,last) =      -1     115
(PID.TID 0000.0001)      cg2d_last_res =   5.53261816131113E-12
(PID.TID 0000.0001) CALLING FILL DIAGNOSTICS
(PID.TID 0000.0001) // =======================================================
(PID.TID 0000.0001) // Begin MONITOR dynamic field statistics
(PID.TID 0000.0001) // =======================================================
(PID.TID 0000.0001) %MON time_tsnumber                =                 11415
(PID.TID 0000.0001) %MON time_secondsf                =   3.4245000000000E+06
(PID.TID 0000.0001) %MON dynstat_eta_max              =   2.4733374223675E+00
(PID.TID 0000.0001) %MON dynstat_eta_min              =  -7.4963376513681E+00
(PID.TID 0000.0001) %MON dynstat_eta_mean             =  -1.3346582376267E+00
(PID.TID 0000.0001) %MON dynstat_eta_sd               =   2.4328325778208E+00
(PID.TID 0000.0001) %MON dynstat_eta_del2             =   1.8281083994675E-01
(PID.TID 0000.0001) %MON dynstat_uvel_max             =   6.7612827182105E-12
(PID.TID 0000.0001) %MON dynstat_uvel_min             =  -6.7876498173539E-12
(PID.TID 0000.0001) %MON dynstat_uvel_mean            =  -8.8851610621249E-26
(PID.TID 0000.0001) %MON dynstat_uvel_sd              =   9.4805554787599E-13
(PID.TID 0000.0001) %MON dynstat_uvel_del2            =   2.3121595811633E-14
(PID.TID 0000.0001) %MON dynstat_vvel_max             =   1.9875136825384E-01
(PID.TID 0000.0001) %MON dynstat_vvel_min             =  -1.1041142249365E-01
(PID.TID 0000.0001) %MON dynstat_vvel_mean            =   5.1820397543153E-07
(PID.TID 0000.0001) %MON dynstat_vvel_sd              =   5.1927085111458E-02
(PID.TID 0000.0001) %MON dynstat_vvel_del2            =   1.5257651450328E-05
(PID.TID 0000.0001) %MON dynstat_wvel_max             =   1.2383149946627E-02
(PID.TID 0000.0001) %MON dynstat_wvel_min             =  -7.7962809806099E-03
(PID.TID 0000.0001) %MON dynstat_wvel_mean            =   3.0019753944659E-05
(PID.TID 0000.0001) %MON dynstat_wvel_sd              =   6.8066928881352E-04
(PID.TID 0000.0001) %MON dynstat_wvel_del2            =   3.9323122555550E-06
(PID.TID 0000.0001) %MON dynstat_theta_max            =   1.9439662282705E+00
(PID.TID 0000.0001) %MON dynstat_theta_min            =  -1.8514214378123E+00
(PID.TID 0000.0001) %MON dynstat_theta_mean           =   2.2650177833013E-02
(PID.TID 0000.0001) %MON dynstat_theta_sd             =   1.2764091794329E+00
(PID.TID 0000.0001) %MON dynstat_theta_del2           =   5.7740319828392E-05
(PID.TID 0000.0001) %MON dynstat_salt_max             =   3.4692816183112E+01
(PID.TID 0000.0001) %MON dynstat_salt_min             =   3.3812122490027E+01
(PID.TID 0000.0001) %MON dynstat_salt_mean            =   3.4431636298260E+01
(PID.TID 0000.0001) %MON dynstat_salt_sd              =   1.8350513469846E-01
(PID.TID 0000.0001) %MON dynstat_salt_del2            =   1.5928415775399E-05
(PID.TID 0000.0001) %MON advcfl_uvel_max              =   5.3683672567253E-13
(PID.TID 0000.0001) %MON advcfl_vvel_max              =   6.8647472467566E-02
(PID.TID 0000.0001) %MON advcfl_wvel_max              =   3.7149449839880E-01
(PID.TID 0000.0001) %MON advcfl_W_hf_max              =   3.7149449839880E-01
(PID.TID 0000.0001) %MON pe_b_mean                    =  -2.8105572674072E-01
(PID.TID 0000.0001) %MON ke_max                       =   1.9737919458288E-02
(PID.TID 0000.0001) %MON ke_mean                      =   1.3481775496621E-03
(PID.TID 0000.0001) %MON ke_vol                       =   1.3174264066611E+12
(PID.TID 0000.0001) // =======================================================
(PID.TID 0000.0001) // End MONITOR dynamic field statistics
(PID.TID 0000.0001) // =======================================================
(PID.TID 0000.0001) // =======================================================
(PID.TID 0000.0001) // Begin OBCS MONITOR field statistics
(PID.TID 0000.0001) // =======================================================
(PID.TID 0000.0001) %MON obc_N_vVel_max               =   2.5000000000000E-02
(PID.TID 0000.0001) %MON obc_N_vVel_min               =  -2.5000000000000E-02
(PID.TID 0000.0001) %MON obc_N_vVel_mean              =   1.0701309254946E-18
(PID.TID 0000.0001) %MON obc_N_vVel_sd                =   1.4595032760272E-02
(PID.TID 0000.0001) %MON obc_N_vVel_Int               =   1.1141310096718E-11
(PID.TID 0000.0001) // =======================================================
(PID.TID 0000.0001) // End OBCS MONITOR field statistics
(PID.TID 0000.0001) // =======================================================
(PID.TID 0000.0001) %CHECKPOINT     11415 ckptA
(PID.TID 0000.0001)   Seconds in section "ALL                    [THE_MODEL_MAIN]":
(PID.TID 0000.0001)           User time:   31.843159172567539
(PID.TID 0000.0001)         System time:  0.12997999275103211
(PID.TID 0000.0001)     Wall clock time:   32.135342121124268
(PID.TID 0000.0001)          No. starts:           1
(PID.TID 0000.0001)           No. stops:           1
(PID.TID 0000.0001)   Seconds in section "INITIALISE_FIXED       [THE_MODEL_MAIN]":
(PID.TID 0000.0001)           User time:  0.16997500124853104
(PID.TID 0000.0001)         System time:  9.99799976125359535E-003
(PID.TID 0000.0001)     Wall clock time:  0.20923399925231934
(PID.TID 0000.0001)          No. starts:           1
(PID.TID 0000.0001)           No. stops:           1
(PID.TID 0000.0001)   Seconds in section "THE_MAIN_LOOP          [THE_MODEL_MAIN]":
(PID.TID 0000.0001)           User time:   31.672185167670250
(PID.TID 0000.0001)         System time:  0.11998199298977852
(PID.TID 0000.0001)     Wall clock time:   31.926063060760498
(PID.TID 0000.0001)          No. starts:           1
(PID.TID 0000.0001)           No. stops:           1
(PID.TID 0000.0001)   Seconds in section "INITIALISE_VARIA    [THE_MAIN_LOOP]":
(PID.TID 0000.0001)           User time:  0.30395399034023285
(PID.TID 0000.0001)         System time:  2.99960002303123474E-002
(PID.TID 0000.0001)     Wall clock time:  0.38118290901184082
(PID.TID 0000.0001)          No. starts:           1
(PID.TID 0000.0001)           No. stops:           1
(PID.TID 0000.0001)   Seconds in section "MAIN LOOP           [THE_MAIN_LOOP]":
(PID.TID 0000.0001)           User time:   31.368231177330017
(PID.TID 0000.0001)         System time:  8.99859927594661713E-002
(PID.TID 0000.0001)     Wall clock time:   31.544848918914795
(PID.TID 0000.0001)          No. starts:           1
(PID.TID 0000.0001)           No. stops:           1
(PID.TID 0000.0001)   Seconds in section "MAIN_DO_LOOP        [THE_MAIN_LOOP]":
(PID.TID 0000.0001)           User time:   31.368231177330017
(PID.TID 0000.0001)         System time:  8.99859927594661713E-002
(PID.TID 0000.0001)     Wall clock time:   31.544666528701782
(PID.TID 0000.0001)          No. starts:          20
(PID.TID 0000.0001)           No. stops:          20
(PID.TID 0000.0001)   Seconds in section "FORWARD_STEP        [MAIN_DO_LOOP]":
(PID.TID 0000.0001)           User time:   31.368231177330017
(PID.TID 0000.0001)         System time:  8.99859927594661713E-002
(PID.TID 0000.0001)     Wall clock time:   31.544295787811279
(PID.TID 0000.0001)          No. starts:          20
(PID.TID 0000.0001)           No. stops:          20
(PID.TID 0000.0001)   Seconds in section "SHELFICE_REMESHING     [FORWARD_STEP]":
(PID.TID 0000.0001)           User time:  0.38694095611572266
(PID.TID 0000.0001)         System time:  1.99999660253524780E-003
(PID.TID 0000.0001)     Wall clock time:  0.39029288291931152
(PID.TID 0000.0001)          No. starts:          20
(PID.TID 0000.0001)           No. stops:          20
(PID.TID 0000.0001)   Seconds in section "DO_STATEVARS_DIAGS  [FORWARD_STEP]":
(PID.TID 0000.0001)           User time:  1.69982910156250000E-002
(PID.TID 0000.0001)         System time:  9.99998301267623901E-004
(PID.TID 0000.0001)     Wall clock time:  2.20828056335449219E-002
(PID.TID 0000.0001)          No. starts:          60
(PID.TID 0000.0001)           No. stops:          60
(PID.TID 0000.0001)   Seconds in section "LOAD_FIELDS_DRIVER  [FORWARD_STEP]":
(PID.TID 0000.0001)           User time:  9.99450683593750000E-004
(PID.TID 0000.0001)         System time:   0.0000000000000000
(PID.TID 0000.0001)     Wall clock time:  5.55038452148437500E-004
(PID.TID 0000.0001)          No. starts:          20
(PID.TID 0000.0001)           No. stops:          20
(PID.TID 0000.0001)   Seconds in section "EXTERNAL_FLDS_LOAD [LOAD_FLDS_DRIVER]":
(PID.TID 0000.0001)           User time:   0.0000000000000000
(PID.TID 0000.0001)         System time:   0.0000000000000000
(PID.TID 0000.0001)     Wall clock time:  1.87635421752929688E-004
(PID.TID 0000.0001)          No. starts:          20
(PID.TID 0000.0001)           No. stops:          20
(PID.TID 0000.0001)   Seconds in section "DO_ATMOSPHERIC_PHYS [FORWARD_STEP]":
(PID.TID 0000.0001)           User time:   0.0000000000000000
(PID.TID 0000.0001)         System time:   0.0000000000000000
(PID.TID 0000.0001)     Wall clock time:  1.84297561645507813E-004
(PID.TID 0000.0001)          No. starts:          20
(PID.TID 0000.0001)           No. stops:          20
(PID.TID 0000.0001)   Seconds in section "DO_OCEANIC_PHYS     [FORWARD_STEP]":
(PID.TID 0000.0001)           User time:  0.54490822553634644
(PID.TID 0000.0001)         System time:  1.00000202655792236E-003
(PID.TID 0000.0001)     Wall clock time:  0.54559683799743652
(PID.TID 0000.0001)          No. starts:          20
(PID.TID 0000.0001)           No. stops:          20
(PID.TID 0000.0001)   Seconds in section "SHELFICE_THERMODYNAMICS [DO_OCEANIC_PHYS]":
(PID.TID 0000.0001)           User time:  2.29988694190979004E-002
(PID.TID 0000.0001)         System time:   0.0000000000000000
(PID.TID 0000.0001)     Wall clock time:  2.42083072662353516E-002
(PID.TID 0000.0001)          No. starts:          20
(PID.TID 0000.0001)           No. stops:          20
(PID.TID 0000.0001)   Seconds in section "STREAMICE_TIMESTEP [FORWARD_STEP]":
(PID.TID 0000.0001)           User time:  4.49999570846557617E-002
(PID.TID 0000.0001)         System time:   0.0000000000000000
(PID.TID 0000.0001)     Wall clock time:  4.60681915283203125E-002
(PID.TID 0000.0001)          No. starts:          20
(PID.TID 0000.0001)           No. stops:          20
(PID.TID 0000.0001)   Seconds in section "STREAMICE_ADVECT_THICKNESS":
(PID.TID 0000.0001)           User time:  2.69981026649475098E-002
(PID.TID 0000.0001)         System time:   0.0000000000000000
(PID.TID 0000.0001)     Wall clock time:  2.50546932220458984E-002
(PID.TID 0000.0001)          No. starts:          20
(PID.TID 0000.0001)           No. stops:          20
(PID.TID 0000.0001)   Seconds in section "DYNAMICS            [FORWARD_STEP]":
(PID.TID 0000.0001)           User time:   12.843046009540558
(PID.TID 0000.0001)         System time:  2.69949957728385925E-002
(PID.TID 0000.0001)     Wall clock time:   12.896388769149780
(PID.TID 0000.0001)          No. starts:          20
(PID.TID 0000.0001)           No. stops:          20
(PID.TID 0000.0001)   Seconds in section "UPDATE_SURF_DR      [FORWARD_STEP]":
(PID.TID 0000.0001)           User time:  4.00018692016601563E-003
(PID.TID 0000.0001)         System time:   0.0000000000000000
(PID.TID 0000.0001)     Wall clock time:  5.58114051818847656E-003
(PID.TID 0000.0001)          No. starts:          20
(PID.TID 0000.0001)           No. stops:          20
(PID.TID 0000.0001)   Seconds in section "UPDATE_CG2D         [FORWARD_STEP]":
(PID.TID 0000.0001)           User time:  0.14697408676147461
(PID.TID 0000.0001)         System time:   0.0000000000000000
(PID.TID 0000.0001)     Wall clock time:  0.14760971069335938
(PID.TID 0000.0001)          No. starts:          20
(PID.TID 0000.0001)           No. stops:          20
(PID.TID 0000.0001)   Seconds in section "SOLVE_FOR_PRESSURE  [FORWARD_STEP]":
(PID.TID 0000.0001)           User time:  0.84987509250640869
(PID.TID 0000.0001)         System time:   0.0000000000000000
(PID.TID 0000.0001)     Wall clock time:  0.85020112991333008
(PID.TID 0000.0001)          No. starts:          20
(PID.TID 0000.0001)           No. stops:          20
(PID.TID 0000.0001)   Seconds in section "MOM_CORRECTION_STEP [FORWARD_STEP]":
(PID.TID 0000.0001)           User time:  0.43693208694458008
(PID.TID 0000.0001)         System time:  1.00000202655792236E-003
(PID.TID 0000.0001)     Wall clock time:  0.43720674514770508
(PID.TID 0000.0001)          No. starts:          20
(PID.TID 0000.0001)           No. stops:          20
(PID.TID 0000.0001)   Seconds in section "INTEGR_CONTINUITY   [FORWARD_STEP]":
(PID.TID 0000.0001)           User time:  0.45692956447601318
(PID.TID 0000.0001)         System time:   0.0000000000000000
(PID.TID 0000.0001)     Wall clock time:  0.45932292938232422
(PID.TID 0000.0001)          No. starts:          20
(PID.TID 0000.0001)           No. stops:          20
(PID.TID 0000.0001)   Seconds in section "CALC_SURF_DR      [FORWARD_STEP]":
(PID.TID 0000.0001)           User time:  1.09968185424804688E-002
(PID.TID 0000.0001)         System time:   0.0000000000000000
(PID.TID 0000.0001)     Wall clock time:  1.09384059906005859E-002
(PID.TID 0000.0001)          No. starts:          20
(PID.TID 0000.0001)           No. stops:          20
(PID.TID 0000.0001)   Seconds in section "BLOCKING_EXCHANGES  [FORWARD_STEP]":
(PID.TID 0000.0001)           User time:  0.53191864490509033
(PID.TID 0000.0001)         System time:   0.0000000000000000
(PID.TID 0000.0001)     Wall clock time:  0.52963376045227051
(PID.TID 0000.0001)          No. starts:          40
(PID.TID 0000.0001)           No. stops:          40
(PID.TID 0000.0001)   Seconds in section "THERMODYNAMICS      [FORWARD_STEP]":
(PID.TID 0000.0001)           User time:   11.891196250915527
(PID.TID 0000.0001)         System time:  2.79950052499771118E-002
(PID.TID 0000.0001)     Wall clock time:   11.959434270858765
(PID.TID 0000.0001)          No. starts:          20
(PID.TID 0000.0001)           No. stops:          20
(PID.TID 0000.0001)   Seconds in section "TRC_CORRECTION_STEP [FORWARD_STEP]":
(PID.TID 0000.0001)           User time:   1.4757754802703857
(PID.TID 0000.0001)         System time:  1.99999660253524780E-003
(PID.TID 0000.0001)     Wall clock time:   1.4840967655181885
(PID.TID 0000.0001)          No. starts:          20
(PID.TID 0000.0001)           No. stops:          20
(PID.TID 0000.0001)   Seconds in section "MONITOR             [FORWARD_STEP]":
(PID.TID 0000.0001)           User time:   1.5567628145217896
(PID.TID 0000.0001)         System time:  7.99900293350219727E-003
(PID.TID 0000.0001)     Wall clock time:   1.5679137706756592
(PID.TID 0000.0001)          No. starts:          20
(PID.TID 0000.0001)           No. stops:          20
(PID.TID 0000.0001)   Seconds in section "DO_THE_MODEL_IO     [FORWARD_STEP]":
(PID.TID 0000.0001)           User time:  0.13398313522338867
(PID.TID 0000.0001)         System time:  1.69980004429817200E-002
(PID.TID 0000.0001)     Wall clock time:  0.14853811264038086
(PID.TID 0000.0001)          No. starts:          20
(PID.TID 0000.0001)           No. stops:          20
(PID.TID 0000.0001)   Seconds in section "DO_WRITE_PICKUP     [FORWARD_STEP]":
(PID.TID 0000.0001)           User time:  3.39946746826171875E-002
(PID.TID 0000.0001)         System time:  2.99899280071258545E-003
(PID.TID 0000.0001)     Wall clock time:  3.81071567535400391E-002
(PID.TID 0000.0001)          No. starts:          20
(PID.TID 0000.0001)           No. stops:          20
(PID.TID 0000.0001) // ======================================================
(PID.TID 0000.0001) // Tile <-> Tile communication statistics
(PID.TID 0000.0001) // ======================================================
(PID.TID 0000.0001) // o Tile number: 000001
(PID.TID 0000.0001) //         No. X exchanges =              0
(PID.TID 0000.0001) //            Max. X spins =              0
(PID.TID 0000.0001) //            Min. X spins =     1000000000
(PID.TID 0000.0001) //          Total. X spins =              0
(PID.TID 0000.0001) //            Avg. X spins =       0.00E+00
(PID.TID 0000.0001) //         No. Y exchanges =              0
(PID.TID 0000.0001) //            Max. Y spins =              0
(PID.TID 0000.0001) //            Min. Y spins =     1000000000
(PID.TID 0000.0001) //          Total. Y spins =              0
(PID.TID 0000.0001) //            Avg. Y spins =       0.00E+00
(PID.TID 0000.0001) // o Thread number: 000001
(PID.TID 0000.0001) //            No. barriers =          25336
(PID.TID 0000.0001) //      Max. barrier spins =              1
(PID.TID 0000.0001) //      Min. barrier spins =              1
(PID.TID 0000.0001) //     Total barrier spins =          25336
(PID.TID 0000.0001) //      Avg. barrier spins =       1.00E+00
PROGRAM MAIN: Execution ended Normally
