(PID.TID 0000.0001) 
(PID.TID 0000.0001) // ======================================================
(PID.TID 0000.0001) //                      MITgcm UV
(PID.TID 0000.0001) //                      =========
(PID.TID 0000.0001) // ======================================================
(PID.TID 0000.0001) // execution environment starting up...
(PID.TID 0000.0001) 
(PID.TID 0000.0001) // MITgcmUV version:  checkpoint57c_pre
(PID.TID 0000.0001) // Build user:        jmc
(PID.TID 0000.0001) // Build host:        faulks
(PID.TID 0000.0001) // Build date:        Thu Jan 27 09:36:53 EST 2005
(PID.TID 0000.0001) 
(PID.TID 0000.0001) // =======================================================
(PID.TID 0000.0001) // Execution Environment parameter file "eedata"
(PID.TID 0000.0001) // =======================================================
(PID.TID 0000.0001) ># Example "eedata" file
(PID.TID 0000.0001) ># Lines beginning "#" are comments
(PID.TID 0000.0001) ># nTx - No. threads per process in X
(PID.TID 0000.0001) ># nTy - No. threads per process in Y
(PID.TID 0000.0001) > &EEPARMS
(PID.TID 0000.0001) > &
(PID.TID 0000.0001) ># Note: Some systems use & as the
(PID.TID 0000.0001) ># namelist terminator. Other systems
(PID.TID 0000.0001) ># use a / character (as shown here).
(PID.TID 0000.0001) 
(PID.TID 0000.0001) // =======================================================
(PID.TID 0000.0001) // Computational Grid Specification ( see files "SIZE.h" )
(PID.TID 0000.0001) //                                  ( and "eedata"       )
(PID.TID 0000.0001) // =======================================================
(PID.TID 0000.0001)      nPx =    1 ; /* No. processes in X */
(PID.TID 0000.0001)      nPy =    1 ; /* No. processes in Y */
(PID.TID 0000.0001)      nSx =   10 ; /* No. tiles in X per process */
(PID.TID 0000.0001)      nSy =    3 ; /* No. tiles in Y per process */
(PID.TID 0000.0001)      sNx =   20 ; /* Tile size in X */
(PID.TID 0000.0001)      sNy =   15 ; /* Tile size in Y */
(PID.TID 0000.0001)      OLx =    3 ; /* Tile overlap distance in X */
(PID.TID 0000.0001)      OLy =    3 ; /* Tile overlap distance in Y */
(PID.TID 0000.0001)      nTx =    1 ; /* No. threads in X per process */
(PID.TID 0000.0001)      nTy =    1 ; /* No. threads in Y per process */
(PID.TID 0000.0001)       Nr =   25 ; /* No. levels in the vertical   */
(PID.TID 0000.0001)       nX =  200 ; /* Total domain size in X ( = nPx*nSx*sNx ) */
(PID.TID 0000.0001)       nY =   45 ; /* Total domain size in Y ( = nPy*nSy*sNy ) */
(PID.TID 0000.0001)   nTiles =   30 ; /* Total no. tiles per process ( = nSx*nSy ) */
(PID.TID 0000.0001)   nProcs =    1 ; /* Total no. processes ( = nPx*nPy ) */
(PID.TID 0000.0001) nThreads =    1 ; /* Total no. threads per process ( = nTx*nTy ) */
(PID.TID 0000.0001) usingMPI =    F ; /* Flag used to control whether MPI is in use */
(PID.TID 0000.0001)                   /*  note: To execute a program with MPI calls */
(PID.TID 0000.0001)                   /*  it must be launched appropriately e.g     */
(PID.TID 0000.0001)                   /*  "mpirun -np 64 ......"                    */
(PID.TID 0000.0001) useCoupler=   F ; /* Flag used to control communications with */
(PID.TID 0000.0001)                   /*  other model components, through a coupler */
(PID.TID 0000.0001) 
(PID.TID 0000.0001) // ======================================================
(PID.TID 0000.0001) // Mapping of tiles to threads
(PID.TID 0000.0001) // ======================================================
(PID.TID 0000.0001) // -o- Thread   1, tiles (   1:  10,   1:   3)
(PID.TID 0000.0001) 
(PID.TID 0000.0001) // ======================================================
(PID.TID 0000.0001) // Tile <-> Tile connectvity table
(PID.TID 0000.0001) // ======================================================
(PID.TID 0000.0001) // Tile number: 000001 (process no. = 000001)
(PID.TID 0000.0001) //        WEST: Tile = 000010, Process = 000001, Comm = put
(PID.TID 0000.0001) //                bi = 000010, bj = 000001
(PID.TID 0000.0001) //        EAST: Tile = 000002, Process = 000001, Comm = put
(PID.TID 0000.0001) //                bi = 000002, bj = 000001
(PID.TID 0000.0001) //       SOUTH: Tile = 000021, Process = 000001, Comm = put
(PID.TID 0000.0001) //                bi = 000001, bj = 000003
(PID.TID 0000.0001) //       NORTH: Tile = 000011, Process = 000001, Comm = put
(PID.TID 0000.0001) //                bi = 000001, bj = 000002
(PID.TID 0000.0001) // Tile number: 000002 (process no. = 000001)
(PID.TID 0000.0001) //        WEST: Tile = 000001, Process = 000001, Comm = put
(PID.TID 0000.0001) //                bi = 000001, bj = 000001
(PID.TID 0000.0001) //        EAST: Tile = 000003, Process = 000001, Comm = put
(PID.TID 0000.0001) //                bi = 000003, bj = 000001
(PID.TID 0000.0001) //       SOUTH: Tile = 000022, Process = 000001, Comm = put
(PID.TID 0000.0001) //                bi = 000002, bj = 000003
(PID.TID 0000.0001) //       NORTH: Tile = 000012, Process = 000001, Comm = put
(PID.TID 0000.0001) //                bi = 000002, bj = 000002
(PID.TID 0000.0001) // Tile number: 000003 (process no. = 000001)
(PID.TID 0000.0001) //        WEST: Tile = 000002, Process = 000001, Comm = put
(PID.TID 0000.0001) //                bi = 000002, bj = 000001
(PID.TID 0000.0001) //        EAST: Tile = 000004, Process = 000001, Comm = put
(PID.TID 0000.0001) //                bi = 000004, bj = 000001
(PID.TID 0000.0001) //       SOUTH: Tile = 000023, Process = 000001, Comm = put
(PID.TID 0000.0001) //                bi = 000003, bj = 000003
(PID.TID 0000.0001) //       NORTH: Tile = 000013, Process = 000001, Comm = put
(PID.TID 0000.0001) //                bi = 000003, bj = 000002
(PID.TID 0000.0001) // Tile number: 000004 (process no. = 000001)
(PID.TID 0000.0001) //        WEST: Tile = 000003, Process = 000001, Comm = put
(PID.TID 0000.0001) //                bi = 000003, bj = 000001
(PID.TID 0000.0001) //        EAST: Tile = 000005, Process = 000001, Comm = put
(PID.TID 0000.0001) //                bi = 000005, bj = 000001
(PID.TID 0000.0001) //       SOUTH: Tile = 000024, Process = 000001, Comm = put
(PID.TID 0000.0001) //                bi = 000004, bj = 000003
(PID.TID 0000.0001) //       NORTH: Tile = 000014, Process = 000001, Comm = put
(PID.TID 0000.0001) //                bi = 000004, bj = 000002
(PID.TID 0000.0001) // Tile number: 000005 (process no. = 000001)
(PID.TID 0000.0001) //        WEST: Tile = 000004, Process = 000001, Comm = put
(PID.TID 0000.0001) //                bi = 000004, bj = 000001
(PID.TID 0000.0001) //        EAST: Tile = 000006, Process = 000001, Comm = put
(PID.TID 0000.0001) //                bi = 000006, bj = 000001
(PID.TID 0000.0001) //       SOUTH: Tile = 000025, Process = 000001, Comm = put
(PID.TID 0000.0001) //                bi = 000005, bj = 000003
(PID.TID 0000.0001) //       NORTH: Tile = 000015, Process = 000001, Comm = put
(PID.TID 0000.0001) //                bi = 000005, bj = 000002
(PID.TID 0000.0001) // Tile number: 000006 (process no. = 000001)
(PID.TID 0000.0001) //        WEST: Tile = 000005, Process = 000001, Comm = put
(PID.TID 0000.0001) //                bi = 000005, bj = 000001
(PID.TID 0000.0001) //        EAST: Tile = 000007, Process = 000001, Comm = put
(PID.TID 0000.0001) //                bi = 000007, bj = 000001
(PID.TID 0000.0001) //       SOUTH: Tile = 000026, Process = 000001, Comm = put
(PID.TID 0000.0001) //                bi = 000006, bj = 000003
(PID.TID 0000.0001) //       NORTH: Tile = 000016, Process = 000001, Comm = put
(PID.TID 0000.0001) //                bi = 000006, bj = 000002
(PID.TID 0000.0001) // Tile number: 000007 (process no. = 000001)
(PID.TID 0000.0001) //        WEST: Tile = 000006, Process = 000001, Comm = put
(PID.TID 0000.0001) //                bi = 000006, bj = 000001
(PID.TID 0000.0001) //        EAST: Tile = 000008, Process = 000001, Comm = put
(PID.TID 0000.0001) //                bi = 000008, bj = 000001
(PID.TID 0000.0001) //       SOUTH: Tile = 000027, Process = 000001, Comm = put
(PID.TID 0000.0001) //                bi = 000007, bj = 000003
(PID.TID 0000.0001) //       NORTH: Tile = 000017, Process = 000001, Comm = put
(PID.TID 0000.0001) //                bi = 000007, bj = 000002
(PID.TID 0000.0001) // Tile number: 000008 (process no. = 000001)
(PID.TID 0000.0001) //        WEST: Tile = 000007, Process = 000001, Comm = put
(PID.TID 0000.0001) //                bi = 000007, bj = 000001
(PID.TID 0000.0001) //        EAST: Tile = 000009, Process = 000001, Comm = put
(PID.TID 0000.0001) //                bi = 000009, bj = 000001
(PID.TID 0000.0001) //       SOUTH: Tile = 000028, Process = 000001, Comm = put
(PID.TID 0000.0001) //                bi = 000008, bj = 000003
(PID.TID 0000.0001) //       NORTH: Tile = 000018, Process = 000001, Comm = put
(PID.TID 0000.0001) //                bi = 000008, bj = 000002
(PID.TID 0000.0001) // Tile number: 000009 (process no. = 000001)
(PID.TID 0000.0001) //        WEST: Tile = 000008, Process = 000001, Comm = put
(PID.TID 0000.0001) //                bi = 000008, bj = 000001
(PID.TID 0000.0001) //        EAST: Tile = 000010, Process = 000001, Comm = put
(PID.TID 0000.0001) //                bi = 000010, bj = 000001
(PID.TID 0000.0001) //       SOUTH: Tile = 000029, Process = 000001, Comm = put
(PID.TID 0000.0001) //                bi = 000009, bj = 000003
(PID.TID 0000.0001) //       NORTH: Tile = 000019, Process = 000001, Comm = put
(PID.TID 0000.0001) //                bi = 000009, bj = 000002
(PID.TID 0000.0001) // Tile number: 000010 (process no. = 000001)
(PID.TID 0000.0001) //        WEST: Tile = 000009, Process = 000001, Comm = put
(PID.TID 0000.0001) //                bi = 000009, bj = 000001
(PID.TID 0000.0001) //        EAST: Tile = 000001, Process = 000001, Comm = put
(PID.TID 0000.0001) //                bi = 000001, bj = 000001
(PID.TID 0000.0001) //       SOUTH: Tile = 000030, Process = 000001, Comm = put
(PID.TID 0000.0001) //                bi = 000010, bj = 000003
(PID.TID 0000.0001) //       NORTH: Tile = 000020, Process = 000001, Comm = put
(PID.TID 0000.0001) //                bi = 000010, bj = 000002
(PID.TID 0000.0001) // Tile number: 000011 (process no. = 000001)
(PID.TID 0000.0001) //        WEST: Tile = 000020, Process = 000001, Comm = put
(PID.TID 0000.0001) //                bi = 000010, bj = 000002
(PID.TID 0000.0001) //        EAST: Tile = 000012, Process = 000001, Comm = put
(PID.TID 0000.0001) //                bi = 000002, bj = 000002
(PID.TID 0000.0001) //       SOUTH: Tile = 000001, Process = 000001, Comm = put
(PID.TID 0000.0001) //                bi = 000001, bj = 000001
(PID.TID 0000.0001) //       NORTH: Tile = 000021, Process = 000001, Comm = put
(PID.TID 0000.0001) //                bi = 000001, bj = 000003
(PID.TID 0000.0001) // Tile number: 000012 (process no. = 000001)
(PID.TID 0000.0001) //        WEST: Tile = 000011, Process = 000001, Comm = put
(PID.TID 0000.0001) //                bi = 000001, bj = 000002
(PID.TID 0000.0001) //        EAST: Tile = 000013, Process = 000001, Comm = put
(PID.TID 0000.0001) //                bi = 000003, bj = 000002
(PID.TID 0000.0001) //       SOUTH: Tile = 000002, Process = 000001, Comm = put
(PID.TID 0000.0001) //                bi = 000002, bj = 000001
(PID.TID 0000.0001) //       NORTH: Tile = 000022, Process = 000001, Comm = put
(PID.TID 0000.0001) //                bi = 000002, bj = 000003
(PID.TID 0000.0001) // Tile number: 000013 (process no. = 000001)
(PID.TID 0000.0001) //        WEST: Tile = 000012, Process = 000001, Comm = put
(PID.TID 0000.0001) //                bi = 000002, bj = 000002
(PID.TID 0000.0001) //        EAST: Tile = 000014, Process = 000001, Comm = put
(PID.TID 0000.0001) //                bi = 000004, bj = 000002
(PID.TID 0000.0001) //       SOUTH: Tile = 000003, Process = 000001, Comm = put
(PID.TID 0000.0001) //                bi = 000003, bj = 000001
(PID.TID 0000.0001) //       NORTH: Tile = 000023, Process = 000001, Comm = put
(PID.TID 0000.0001) //                bi = 000003, bj = 000003
(PID.TID 0000.0001) // Tile number: 000014 (process no. = 000001)
(PID.TID 0000.0001) //        WEST: Tile = 000013, Process = 000001, Comm = put
(PID.TID 0000.0001) //                bi = 000003, bj = 000002
(PID.TID 0000.0001) //        EAST: Tile = 000015, Process = 000001, Comm = put
(PID.TID 0000.0001) //                bi = 000005, bj = 000002
(PID.TID 0000.0001) //       SOUTH: Tile = 000004, Process = 000001, Comm = put
(PID.TID 0000.0001) //                bi = 000004, bj = 000001
(PID.TID 0000.0001) //       NORTH: Tile = 000024, Process = 000001, Comm = put
(PID.TID 0000.0001) //                bi = 000004, bj = 000003
(PID.TID 0000.0001) // Tile number: 000015 (process no. = 000001)
(PID.TID 0000.0001) //        WEST: Tile = 000014, Process = 000001, Comm = put
(PID.TID 0000.0001) //                bi = 000004, bj = 000002
(PID.TID 0000.0001) //        EAST: Tile = 000016, Process = 000001, Comm = put
(PID.TID 0000.0001) //                bi = 000006, bj = 000002
(PID.TID 0000.0001) //       SOUTH: Tile = 000005, Process = 000001, Comm = put
(PID.TID 0000.0001) //                bi = 000005, bj = 000001
(PID.TID 0000.0001) //       NORTH: Tile = 000025, Process = 000001, Comm = put
(PID.TID 0000.0001) //                bi = 000005, bj = 000003
(PID.TID 0000.0001) // Tile number: 000016 (process no. = 000001)
(PID.TID 0000.0001) //        WEST: Tile = 000015, Process = 000001, Comm = put
(PID.TID 0000.0001) //                bi = 000005, bj = 000002
(PID.TID 0000.0001) //        EAST: Tile = 000017, Process = 000001, Comm = put
(PID.TID 0000.0001) //                bi = 000007, bj = 000002
(PID.TID 0000.0001) //       SOUTH: Tile = 000006, Process = 000001, Comm = put
(PID.TID 0000.0001) //                bi = 000006, bj = 000001
(PID.TID 0000.0001) //       NORTH: Tile = 000026, Process = 000001, Comm = put
(PID.TID 0000.0001) //                bi = 000006, bj = 000003
(PID.TID 0000.0001) // Tile number: 000017 (process no. = 000001)
(PID.TID 0000.0001) //        WEST: Tile = 000016, Process = 000001, Comm = put
(PID.TID 0000.0001) //                bi = 000006, bj = 000002
(PID.TID 0000.0001) //        EAST: Tile = 000018, Process = 000001, Comm = put
(PID.TID 0000.0001) //                bi = 000008, bj = 000002
(PID.TID 0000.0001) //       SOUTH: Tile = 000007, Process = 000001, Comm = put
(PID.TID 0000.0001) //                bi = 000007, bj = 000001
(PID.TID 0000.0001) //       NORTH: Tile = 000027, Process = 000001, Comm = put
(PID.TID 0000.0001) //                bi = 000007, bj = 000003
(PID.TID 0000.0001) // Tile number: 000018 (process no. = 000001)
(PID.TID 0000.0001) //        WEST: Tile = 000017, Process = 000001, Comm = put
(PID.TID 0000.0001) //                bi = 000007, bj = 000002
(PID.TID 0000.0001) //        EAST: Tile = 000019, Process = 000001, Comm = put
(PID.TID 0000.0001) //                bi = 000009, bj = 000002
(PID.TID 0000.0001) //       SOUTH: Tile = 000008, Process = 000001, Comm = put
(PID.TID 0000.0001) //                bi = 000008, bj = 000001
(PID.TID 0000.0001) //       NORTH: Tile = 000028, Process = 000001, Comm = put
(PID.TID 0000.0001) //                bi = 000008, bj = 000003
(PID.TID 0000.0001) // Tile number: 000019 (process no. = 000001)
(PID.TID 0000.0001) //        WEST: Tile = 000018, Process = 000001, Comm = put
(PID.TID 0000.0001) //                bi = 000008, bj = 000002
(PID.TID 0000.0001) //        EAST: Tile = 000020, Process = 000001, Comm = put
(PID.TID 0000.0001) //                bi = 000010, bj = 000002
(PID.TID 0000.0001) //       SOUTH: Tile = 000009, Process = 000001, Comm = put
(PID.TID 0000.0001) //                bi = 000009, bj = 000001
(PID.TID 0000.0001) //       NORTH: Tile = 000029, Process = 000001, Comm = put
(PID.TID 0000.0001) //                bi = 000009, bj = 000003
(PID.TID 0000.0001) // Tile number: 000020 (process no. = 000001)
(PID.TID 0000.0001) //        WEST: Tile = 000019, Process = 000001, Comm = put
(PID.TID 0000.0001) //                bi = 000009, bj = 000002
(PID.TID 0000.0001) //        EAST: Tile = 000011, Process = 000001, Comm = put
(PID.TID 0000.0001) //                bi = 000001, bj = 000002
(PID.TID 0000.0001) //       SOUTH: Tile = 000010, Process = 000001, Comm = put
(PID.TID 0000.0001) //                bi = 000010, bj = 000001
(PID.TID 0000.0001) //       NORTH: Tile = 000030, Process = 000001, Comm = put
(PID.TID 0000.0001) //                bi = 000010, bj = 000003
(PID.TID 0000.0001) // Tile number: 000021 (process no. = 000001)
(PID.TID 0000.0001) //        WEST: Tile = 000030, Process = 000001, Comm = put
(PID.TID 0000.0001) //                bi = 000010, bj = 000003
(PID.TID 0000.0001) //        EAST: Tile = 000022, Process = 000001, Comm = put
(PID.TID 0000.0001) //                bi = 000002, bj = 000003
(PID.TID 0000.0001) //       SOUTH: Tile = 000011, Process = 000001, Comm = put
(PID.TID 0000.0001) //                bi = 000001, bj = 000002
(PID.TID 0000.0001) //       NORTH: Tile = 000001, Process = 000001, Comm = put
(PID.TID 0000.0001) //                bi = 000001, bj = 000001
(PID.TID 0000.0001) // Tile number: 000022 (process no. = 000001)
(PID.TID 0000.0001) //        WEST: Tile = 000021, Process = 000001, Comm = put
(PID.TID 0000.0001) //                bi = 000001, bj = 000003
(PID.TID 0000.0001) //        EAST: Tile = 000023, Process = 000001, Comm = put
(PID.TID 0000.0001) //                bi = 000003, bj = 000003
(PID.TID 0000.0001) //       SOUTH: Tile = 000012, Process = 000001, Comm = put
(PID.TID 0000.0001) //                bi = 000002, bj = 000002
(PID.TID 0000.0001) //       NORTH: Tile = 000002, Process = 000001, Comm = put
(PID.TID 0000.0001) //                bi = 000002, bj = 000001
(PID.TID 0000.0001) // Tile number: 000023 (process no. = 000001)
(PID.TID 0000.0001) //        WEST: Tile = 000022, Process = 000001, Comm = put
(PID.TID 0000.0001) //                bi = 000002, bj = 000003
(PID.TID 0000.0001) //        EAST: Tile = 000024, Process = 000001, Comm = put
(PID.TID 0000.0001) //                bi = 000004, bj = 000003
(PID.TID 0000.0001) //       SOUTH: Tile = 000013, Process = 000001, Comm = put
(PID.TID 0000.0001) //                bi = 000003, bj = 000002
(PID.TID 0000.0001) //       NORTH: Tile = 000003, Process = 000001, Comm = put
(PID.TID 0000.0001) //                bi = 000003, bj = 000001
(PID.TID 0000.0001) // Tile number: 000024 (process no. = 000001)
(PID.TID 0000.0001) //        WEST: Tile = 000023, Process = 000001, Comm = put
(PID.TID 0000.0001) //                bi = 000003, bj = 000003
(PID.TID 0000.0001) //        EAST: Tile = 000025, Process = 000001, Comm = put
(PID.TID 0000.0001) //                bi = 000005, bj = 000003
(PID.TID 0000.0001) //       SOUTH: Tile = 000014, Process = 000001, Comm = put
(PID.TID 0000.0001) //                bi = 000004, bj = 000002
(PID.TID 0000.0001) //       NORTH: Tile = 000004, Process = 000001, Comm = put
(PID.TID 0000.0001) //                bi = 000004, bj = 000001
(PID.TID 0000.0001) // Tile number: 000025 (process no. = 000001)
(PID.TID 0000.0001) //        WEST: Tile = 000024, Process = 000001, Comm = put
(PID.TID 0000.0001) //                bi = 000004, bj = 000003
(PID.TID 0000.0001) //        EAST: Tile = 000026, Process = 000001, Comm = put
(PID.TID 0000.0001) //                bi = 000006, bj = 000003
(PID.TID 0000.0001) //       SOUTH: Tile = 000015, Process = 000001, Comm = put
(PID.TID 0000.0001) //                bi = 000005, bj = 000002
(PID.TID 0000.0001) //       NORTH: Tile = 000005, Process = 000001, Comm = put
(PID.TID 0000.0001) //                bi = 000005, bj = 000001
(PID.TID 0000.0001) // Tile number: 000026 (process no. = 000001)
(PID.TID 0000.0001) //        WEST: Tile = 000025, Process = 000001, Comm = put
(PID.TID 0000.0001) //                bi = 000005, bj = 000003
(PID.TID 0000.0001) //        EAST: Tile = 000027, Process = 000001, Comm = put
(PID.TID 0000.0001) //                bi = 000007, bj = 000003
(PID.TID 0000.0001) //       SOUTH: Tile = 000016, Process = 000001, Comm = put
(PID.TID 0000.0001) //                bi = 000006, bj = 000002
(PID.TID 0000.0001) //       NORTH: Tile = 000006, Process = 000001, Comm = put
(PID.TID 0000.0001) //                bi = 000006, bj = 000001
(PID.TID 0000.0001) // Tile number: 000027 (process no. = 000001)
(PID.TID 0000.0001) //        WEST: Tile = 000026, Process = 000001, Comm = put
(PID.TID 0000.0001) //                bi = 000006, bj = 000003
(PID.TID 0000.0001) //        EAST: Tile = 000028, Process = 000001, Comm = put
(PID.TID 0000.0001) //                bi = 000008, bj = 000003
(PID.TID 0000.0001) //       SOUTH: Tile = 000017, Process = 000001, Comm = put
(PID.TID 0000.0001) //                bi = 000007, bj = 000002
(PID.TID 0000.0001) //       NORTH: Tile = 000007, Process = 000001, Comm = put
(PID.TID 0000.0001) //                bi = 000007, bj = 000001
(PID.TID 0000.0001) // Tile number: 000028 (process no. = 000001)
(PID.TID 0000.0001) //        WEST: Tile = 000027, Process = 000001, Comm = put
(PID.TID 0000.0001) //                bi = 000007, bj = 000003
(PID.TID 0000.0001) //        EAST: Tile = 000029, Process = 000001, Comm = put
(PID.TID 0000.0001) //                bi = 000009, bj = 000003
(PID.TID 0000.0001) //       SOUTH: Tile = 000018, Process = 000001, Comm = put
(PID.TID 0000.0001) //                bi = 000008, bj = 000002
(PID.TID 0000.0001) //       NORTH: Tile = 000008, Process = 000001, Comm = put
(PID.TID 0000.0001) //                bi = 000008, bj = 000001
(PID.TID 0000.0001) // Tile number: 000029 (process no. = 000001)
(PID.TID 0000.0001) //        WEST: Tile = 000028, Process = 000001, Comm = put
(PID.TID 0000.0001) //                bi = 000008, bj = 000003
(PID.TID 0000.0001) //        EAST: Tile = 000030, Process = 000001, Comm = put
(PID.TID 0000.0001) //                bi = 000010, bj = 000003
(PID.TID 0000.0001) //       SOUTH: Tile = 000019, Process = 000001, Comm = put
(PID.TID 0000.0001) //                bi = 000009, bj = 000002
(PID.TID 0000.0001) //       NORTH: Tile = 000009, Process = 000001, Comm = put
(PID.TID 0000.0001) //                bi = 000009, bj = 000001
(PID.TID 0000.0001) // Tile number: 000030 (process no. = 000001)
(PID.TID 0000.0001) //        WEST: Tile = 000029, Process = 000001, Comm = put
(PID.TID 0000.0001) //                bi = 000009, bj = 000003
(PID.TID 0000.0001) //        EAST: Tile = 000021, Process = 000001, Comm = put
(PID.TID 0000.0001) //                bi = 000001, bj = 000003
(PID.TID 0000.0001) //       SOUTH: Tile = 000020, Process = 000001, Comm = put
(PID.TID 0000.0001) //                bi = 000010, bj = 000002
(PID.TID 0000.0001) //       NORTH: Tile = 000010, Process = 000001, Comm = put
(PID.TID 0000.0001) //                bi = 000010, bj = 000001
(PID.TID 0000.0001) 
(PID.TID 0000.0001) // =======================================================
(PID.TID 0000.0001) // Model parameter file "data"
(PID.TID 0000.0001) // =======================================================
(PID.TID 0000.0001) ># ====================
(PID.TID 0000.0001) ># | Model parameters |
(PID.TID 0000.0001) ># ====================
(PID.TID 0000.0001) >#
(PID.TID 0000.0001) ># Continuous equation parameters
(PID.TID 0000.0001) > &PARM01
(PID.TID 0000.0001) > Tref = -0.194175, -0.582524, -0.970874, -1.35922, -1.74757,
(PID.TID 0000.0001) >        -2.13592, -2.52427, -2.91262, -3.30097, -3.68932,
(PID.TID 0000.0001) >	-4.07767, -4.46602, -4.85437, -5.24272, -5.63107,
(PID.TID 0000.0001) >	-6.01942, -6.40777, -6.79612, -7.18447, -7.57282,
(PID.TID 0000.0001) >	-7.96117, -8.34951, -8.73786, -9.12621, -9.51456,
(PID.TID 0000.0001) > sRef= 25*1.,
(PID.TID 0000.0001) > viscAz=5.E-1,
(PID.TID 0000.0001) > viscAh=0.0E0,
(PID.TID 0000.0001) > no_slip_sides=.TRUE.,
(PID.TID 0000.0001) > no_slip_bottom=.TRUE.,
(PID.TID 0000.0001) > bottomDragQuadratic=2.E-3,
(PID.TID 0000.0001) > viscA4=0.E12,
(PID.TID 0000.0001) > viscC4Leith=0.1,
(PID.TID 0000.0001) > diffKhT=0.0E0
(PID.TID 0000.0001) > diffKzT=0.E-2,
(PID.TID 0000.0001) > diffKhS=0.E0,
(PID.TID 0000.0001) > diffKzS=0.E-2,
(PID.TID 0000.0001) > f0=1.0e-4,
(PID.TID 0000.0001) > beta=0.E-11,
(PID.TID 0000.0001) > tAlpha=2.E-4,
(PID.TID 0000.0001) > sBeta =0.E-4,
(PID.TID 0000.0001) > gravity=9.81,
(PID.TID 0000.0001) > rhonil=1030.0,
(PID.TID 0000.0001) > rigidLid=.FALSE.,
(PID.TID 0000.0001) > implicitFreeSurface=.TRUE.,
(PID.TID 0000.0001) > eosType='LINEAR',
(PID.TID 0000.0001) > hFacMin=0.2,
(PID.TID 0000.0001) > nonHydrostatic=.FALSE.,
(PID.TID 0000.0001) > multiDimAdvection=.TRUE.,
(PID.TID 0000.0001) > tempAdvScheme=77,
(PID.TID 0000.0001) > saltAdvScheme=77,
(PID.TID 0000.0001) > readBinaryPrec=64,
(PID.TID 0000.0001) > writeBinaryPrec=64,
(PID.TID 0000.0001) > writeStatePrec=64,
(PID.TID 0000.0001) > globalFiles=.TRUE.,
(PID.TID 0000.0001) > staggerTimeStep=.TRUE.,
(PID.TID 0000.0001) > vectorInvariantMomentum=.TRUE.,
(PID.TID 0000.0001) > &
(PID.TID 0000.0001) >
(PID.TID 0000.0001) ># Elliptic solver parameters
(PID.TID 0000.0001) > &PARM02
(PID.TID 0000.0001) > cg2dMaxIters=1000,
(PID.TID 0000.0001) > cg2dTargetResidual=1.E-11,
(PID.TID 0000.0001) > cg3dMaxIters=10,
(PID.TID 0000.0001) > cg3dTargetResidual=1.E-13,
(PID.TID 0000.0001) > &
(PID.TID 0000.0001) >
(PID.TID 0000.0001) ># Time stepping parameters
(PID.TID 0000.0001) > &PARM03
(PID.TID 0000.0001) > niter0=0,
(PID.TID 0000.0001) >#nTimeSteps=12000,
(PID.TID 0000.0001) > nTimeSteps=20,
(PID.TID 0000.0001) > deltaT=300.,
(PID.TID 0000.0001) > abEps=0.1,
(PID.TID 0000.0001) > pChkptFreq=0.0,
(PID.TID 0000.0001) > chkptFreq=100000.0,
(PID.TID 0000.0001) > dumpFreq=30000.,
(PID.TID 0000.0001) >#cAdjFreq=30.,
(PID.TID 0000.0001) >#monitorFreq=6000.,
(PID.TID 0000.0001) > monitorFreq=300.,
(PID.TID 0000.0001) > &
(PID.TID 0000.0001) >
(PID.TID 0000.0001) ># Gridding parameters
(PID.TID 0000.0001) > &PARM04
(PID.TID 0000.0001) > usingCartesianGrid=.TRUE.,
(PID.TID 0000.0001) > usingSphericalPolarGrid=.FALSE.,
(PID.TID 0000.0001) ># delXfile='delXvar'
(PID.TID 0000.0001) > delX=200*10000.0,
(PID.TID 0000.0001) > delYfile='delYvar',
(PID.TID 0000.0001) > delZ = 25*144.0,
(PID.TID 0000.0001) > &
(PID.TID 0000.0001) >
(PID.TID 0000.0001) ># Input datasets
(PID.TID 0000.0001) > &PARM05
(PID.TID 0000.0001) > hydrogThetaFile='T.init',
(PID.TID 0000.0001) > bathyFile='topog.slope',
(PID.TID 0000.0001) > &
(PID.TID 0000.0001) 
(PID.TID 0000.0001) S/R INI_PARMS ; starts to read PARM01
(PID.TID 0000.0001) S/R INI_PARMS ; read PARM01 : OK
(PID.TID 0000.0001) S/R INI_PARMS ; starts to read PARM02
(PID.TID 0000.0001) S/R INI_PARMS ; read PARM02 : OK
(PID.TID 0000.0001) S/R INI_PARMS ; starts to read PARM03
(PID.TID 0000.0001) S/R INI_PARMS ; read PARM03 : OK
(PID.TID 0000.0001) S/R INI_PARMS ; starts to read PARM04
(PID.TID 0000.0001) S/R INI_PARMS ; read PARM04 : OK
(PID.TID 0000.0001) S/R INI_PARMS ; starts to read PARM05
(PID.TID 0000.0001) S/R INI_PARMS ; read PARM05 : OK
(PID.TID 0000.0001)  PACKAGES_BOOT: opening data.pkg
(PID.TID 0000.0001)  OPEN_COPY_DATA_FILE: opening file data.pkg
(PID.TID 0000.0001) // =======================================================
(PID.TID 0000.0001) // Parameter file "data.pkg"
(PID.TID 0000.0001) // =======================================================
(PID.TID 0000.0001) ># Packages
(PID.TID 0000.0001) > &PACKAGES
(PID.TID 0000.0001) > useOBCS=.TRUE.,
(PID.TID 0000.0001) > useDiagnostics=.TRUE.,
(PID.TID 0000.0001) > &
(PID.TID 0000.0001) 
(PID.TID 0000.0001)  PACKAGES_BOOT: finished reading data.pkg
(PID.TID 0000.0001)  OBCS_READPARMS: opening data.obcs
(PID.TID 0000.0001)  OPEN_COPY_DATA_FILE: opening file data.obcs
(PID.TID 0000.0001) // =======================================================
(PID.TID 0000.0001) // Parameter file "data.obcs"
(PID.TID 0000.0001) // =======================================================
(PID.TID 0000.0001) ># Open-boundaries
(PID.TID 0000.0001) > &OBCS_PARM01
(PID.TID 0000.0001) ># OB_Ieast=30*-1,
(PID.TID 0000.0001) > OB_Iwest=45*1,
(PID.TID 0000.0001) > OB_Jnorth=200*-1,
(PID.TID 0000.0001) ># OB_Jsouth=100*1
(PID.TID 0000.0001) ># useOrlanskiEast=.TRUE.,
(PID.TID 0000.0001) > useOrlanskiWest=.TRUE.,
(PID.TID 0000.0001) > useOrlanskiNorth=.FALSE.,
(PID.TID 0000.0001) ># useOrlanskiSouth=.TRUE.,
(PID.TID 0000.0001) > &
(PID.TID 0000.0001) >
(PID.TID 0000.0001) > &OBCS_PARM02
(PID.TID 0000.0001) > CMAX=0.5,
(PID.TID 0000.0001) ># CMAX=2.0,
(PID.TID 0000.0001) > cvelTimeScale=10000.,
(PID.TID 0000.0001) ># CFIX=0.2,
(PID.TID 0000.0001) > useFixedCEast=.FALSE.,
(PID.TID 0000.0001) > useFixedCWest=.FALSE.,
(PID.TID 0000.0001) > &
(PID.TID 0000.0001) 
 OB Jn = 45 45 45 45 45 45 45 45 45 45 45 45 45 45 45 45 45 45 45 45 45 45 45 45
 45 45 45 45 45 45 45 45 45 45 45 45 45 45 45 45 45 45 45 45 45 45 45 45 45 45
 45 45 45 45 45 45 45 45 45 45 45 45 45 45 45 45 45 45 45 45 45 45 45 45 45 45
 45 45 45 45 45 45 45 45 45 45 45 45 45 45 45 45 45 45 45 45 45 45 45 45 45 45
 45 45 45 45 45 45 45 45 45 45 45 45 45 45 45 45 45 45 45 45 45 45 45 45 45 45
 45 45 45 45 45 45 45 45 45 45 45 45 45 45 45 45 45 45 45 45 45 45 45 45 45 45
 45 45 45 45 45 45 45 45 45 45 45 45 45 45 45 45 45 45 45 45 45 45 45 45 45 45
 45 45 45 45 45 45 45 45 45 45 45 45 45 45 45 45 45 45 45 45
 OB Js = 0 0 0 0 0 0 0 0 0 0 0 0 0 0 0 0 0 0 0 0 0 0 0 0 0 0 0 0 0 0 0 0 0 0 0 0
 0 0 0 0 0 0 0 0 0 0 0 0 0 0 0 0 0 0 0 0 0 0 0 0 0 0 0 0 0 0 0 0 0 0 0 0 0 0 0 0
 0 0 0 0 0 0 0 0 0 0 0 0 0 0 0 0 0 0 0 0 0 0 0 0 0 0 0 0 0 0 0 0 0 0 0 0 0 0 0 0
 0 0 0 0 0 0 0 0 0 0 0 0 0 0 0 0 0 0 0 0 0 0 0 0 0 0 0 0 0 0 0 0 0 0 0 0 0 0 0 0
 0 0 0 0 0 0 0 0 0 0 0 0 0 0 0 0 0 0 0 0 0 0 0 0 0 0 0 0 0 0 0 0 0 0 0 0 0 0 0 0
 0 0 0 0
 OB Ie = 0 0 0 0 0 0 0 0 0 0 0 0 0 0 0 0 0 0 0 0 0 0 0 0 0 0 0 0 0 0 0 0 0 0 0 0
 0 0 0 0 0 0 0 0 0
 OB Iw = 1 1 1 1 1 1 1 1 1 1 1 1 1 1 1 1 1 1 1 1 1 1 1 1 1 1 1 1 1 1 1 1 1 1 1 1
 1 1 1 1 1 1 1 1 1
(PID.TID 0000.0001)  OBCS_READPARMS: finished reading data.obcs
(PID.TID 0000.0001)  DIAGNOSTICS_READPARMS: opening data.diagnostics
(PID.TID 0000.0001)  OPEN_COPY_DATA_FILE: opening file data.diagnostics
(PID.TID 0000.0001) // =======================================================
(PID.TID 0000.0001) // Parameter file "data.diagnostics"
(PID.TID 0000.0001) // =======================================================
(PID.TID 0000.0001) ># Diagnostic Package Choices
(PID.TID 0000.0001) > &diagnostics_list
(PID.TID 0000.0001) >  frequency(1) = 10,
(PID.TID 0000.0001) ># Omit level(1,1) to diagnose ALL levels otherwise list individual levels here
(PID.TID 0000.0001) >#  levels(1,1) = 1.,3.,5.,
(PID.TID 0000.0001) >   fields(1,1) = 'VISCA4  ',
(PID.TID 0000.0001) >   filename(1) = 'visc',
(PID.TID 0000.0001) > &end
(PID.TID 0000.0001) 
(PID.TID 0000.0001) -----------------------------------------------------
(PID.TID 0000.0001)  DIAGNOSTICS_READPARMS: active diagnostics summary:
(PID.TID 0000.0001) -----------------------------------------------------
(PID.TID 0000.0001) Creating Output Stream: visc
(PID.TID 0000.0001)  Frequency:  10
(PID.TID 0000.0001)  Levels:    will be set later
(PID.TID 0000.0001)  Fields:    VISCA4
(PID.TID 0000.0001) -----------------------------------------------------
(PID.TID 0000.0001) 
(PID.TID 0000.0001) %MON XC_max                       =   1.9950000000000E+06
(PID.TID 0000.0001) %MON XC_min                       =   5.0000000000000E+03
(PID.TID 0000.0001) %MON XC_mean                      =   1.0000000000000E+06
(PID.TID 0000.0001) %MON XC_sd                        =   5.7734305226615E+05
(PID.TID 0000.0001) %MON XG_max                       =   1.9900000000000E+06
(PID.TID 0000.0001) %MON XG_min                       =   1.0000000000000E+04
(PID.TID 0000.0001) %MON XG_mean                      =   1.0000000000000E+06
(PID.TID 0000.0001) %MON XG_sd                        =   5.7445626465380E+05
(PID.TID 0000.0001) %MON DXC_max                      =   1.0000000000000E+04
(PID.TID 0000.0001) %MON DXC_min                      =   1.0000000000000E+04
(PID.TID 0000.0001) %MON DXC_mean                     =   1.0000000000000E+04
(PID.TID 0000.0001) %MON DXC_sd                       =   0.0000000000000E+00
(PID.TID 0000.0001) %MON DXF_max                      =   1.0000000000000E+04
(PID.TID 0000.0001) %MON DXF_min                      =   1.0000000000000E+04
(PID.TID 0000.0001) %MON DXF_mean                     =   1.0000000000000E+04
(PID.TID 0000.0001) %MON DXF_sd                       =   0.0000000000000E+00
(PID.TID 0000.0001) %MON DXG_max                      =   1.0000000000000E+04
(PID.TID 0000.0001) %MON DXG_min                      =   1.0000000000000E+04
(PID.TID 0000.0001) %MON DXG_mean                     =   1.0000000000000E+04
(PID.TID 0000.0001) %MON DXG_sd                       =   0.0000000000000E+00
(PID.TID 0000.0001) %MON DXV_max                      =   1.0000000000000E+04
(PID.TID 0000.0001) %MON DXV_min                      =   1.0000000000000E+04
(PID.TID 0000.0001) %MON DXV_mean                     =   1.0000000000000E+04
(PID.TID 0000.0001) %MON DXV_sd                       =   0.0000000000000E+00
(PID.TID 0000.0001) %MON YC_max                       =   5.9499999998863E+05
(PID.TID 0000.0001) %MON YC_min                       =   2.1773852061364E+04
(PID.TID 0000.0001) %MON YC_mean                      =   3.6568248764828E+05
(PID.TID 0000.0001) %MON YC_sd                        =   1.4616293187418E+05
(PID.TID 0000.0001) %MON YG_max                       =   5.8999999997725E+05
(PID.TID 0000.0001) %MON YG_min                       =  -1.8189894035459E-12
(PID.TID 0000.0001) %MON YG_mean                      =   3.5901582098162E+05
(PID.TID 0000.0001) %MON YG_sd                        =   1.4918819495542E+05
(PID.TID 0000.0001) %MON DYC_max                      =   4.1655495879012E+04
(PID.TID 0000.0001) %MON DYC_min                      =   1.0000000030126E+04
(PID.TID 0000.0001) %MON DYC_mean                     =   1.3333333333333E+04
(PID.TID 0000.0001) %MON DYC_sd                       =   7.9859471312509E+03
(PID.TID 0000.0001) %MON DYF_max                      =   4.3547704122728E+04
(PID.TID 0000.0001) %MON DYF_min                      =   1.0000000022748E+04
(PID.TID 0000.0001) %MON DYF_mean                     =   1.3333333333333E+04
(PID.TID 0000.0001) %MON DYF_sd                       =   8.4257600310479E+03
(PID.TID 0000.0001) %MON DYG_max                      =   4.3547704122728E+04
(PID.TID 0000.0001) %MON DYG_min                      =   1.0000000022748E+04
(PID.TID 0000.0001) %MON DYG_mean                     =   1.3333333333333E+04
(PID.TID 0000.0001) %MON DYG_sd                       =   8.4257600310479E+03
(PID.TID 0000.0001) %MON DYU_max                      =   4.1655495879012E+04
(PID.TID 0000.0001) %MON DYU_min                      =   1.0000000030126E+04
(PID.TID 0000.0001) %MON DYU_mean                     =   1.3333333333333E+04
(PID.TID 0000.0001) %MON DYU_sd                       =   7.9859471312509E+03
(PID.TID 0000.0001) %MON RA_max                       =   4.3547704122728E+08
(PID.TID 0000.0001) %MON RA_min                       =   1.0000000022748E+08
(PID.TID 0000.0001) %MON RA_mean                      =   1.3333333333333E+08
(PID.TID 0000.0001) %MON RA_sd                        =   8.4257600310479E+07
(PID.TID 0000.0001) %MON RAW_max                      =   4.3547704122728E+08
(PID.TID 0000.0001) %MON RAW_min                      =   1.0000000022748E+08
(PID.TID 0000.0001) %MON RAW_mean                     =   1.3333333333333E+08
(PID.TID 0000.0001) %MON RAW_sd                       =   8.4257600310479E+07
(PID.TID 0000.0001) %MON RAS_max                      =   4.1655495879012E+08
(PID.TID 0000.0001) %MON RAS_min                      =   1.0000000030126E+08
(PID.TID 0000.0001) %MON RAS_mean                     =   1.3333333333333E+08
(PID.TID 0000.0001) %MON RAS_sd                       =   7.9859471312509E+07
(PID.TID 0000.0001) %MON RAZ_max                      =   4.1655495879012E+08
(PID.TID 0000.0001) %MON RAZ_min                      =   1.0000000030126E+08
(PID.TID 0000.0001) %MON RAZ_mean                     =   1.3333333333333E+08
(PID.TID 0000.0001) %MON RAZ_sd                       =   7.9859471312509E+07
(PID.TID 0000.0001)  MDSREADFIELD: opening global file: topog.slope
(PID.TID 0000.0001) // =======================================================
(PID.TID 0000.0001) // Field Model R_low (ini_masks_etc) at iteration          1
(PID.TID 0000.0001) // CMIN =         -3.600000000000000E+03
(PID.TID 0000.0001) // CMAX =         -6.048000000000000E+02
(PID.TID 0000.0001) // CINT =          1.109333333333333E+02
(PID.TID 0000.0001) // SYMBOLS (CMIN->CMAX): -abcdefghijklmnopqrstuvwxyz+
(PID.TID 0000.0001) //                  0.0: .
(PID.TID 0000.0001) // RANGE I (Lo:Hi:Step):(  -2: 203:   1)
(PID.TID 0000.0001) // RANGE J (Lo:Hi:Step):(  48:  -2:  -1)
(PID.TID 0000.0001) // RANGE K (Lo:Hi:Step):(   1:   1:   1)
(PID.TID 0000.0001) // =======================================================
(PID.TID 0000.0001) K =   1
(PID.TID 0000.0001) //                I=7       I=17      I=21      I=31      I=41      I=45      I=55      I=59      I=69      I=79      I=83      I=93      I=103     I=107     I=117     I=121     I=131     I=141     I=145     I=155     I=159     I=169     I=179     I=183     I=193     I=203
(PID.TID 0000.0001) // |--J--|**0123456|890123456|890123890|234567890|234567890|238901234|678901234|678901238|012345678|012345678|012389012|456789012|456789012|890123456|890123456|890123890|234567890|234567890|238901234|678901234|678901238|012345678|012345678|012389012|456789012|456789012|
(PID.TID 0000.0001) //     48 --.-------------------------------------------------------------------------------------------------------------------------------------------------------------------------------------------------------------------------------------------------------------.---
(PID.TID 0000.0001) //     47 --.-------------------------------------------------------------------------------------------------------------------------------------------------------------------------------------------------------------------------------------------------------------.---
(PID.TID 0000.0001) //     46 ....................................................................................................................................................................................................................................................................
(PID.TID 0000.0001) //     45 ........................................................................................................................................................................................................................++++++++++..................................
(PID.TID 0000.0001) //     44 ........................................................................................................................................................................................................................++++++++++..................................
(PID.TID 0000.0001) //     43 ........................................................................................................................................................................................................................++++++++++..................................
(PID.TID 0000.0001) //     42 ........................................................................................................................................................................................................................++++++++++..................................
(PID.TID 0000.0001) //     41 ........................................................................................................................................................................................................................++++++++++..................................
(PID.TID 0000.0001) //     40 ++.+++++++++++++++++++++++++++++++++++++++++++++++++++++++++++++++++++++++++++++++++++++++++++++++++++++++++++++++++++++++++++++++++++++++++++++++++++++++++++++++++++++++++++++++++++++++++++++++++++++++++++++++++++++++++++++++++++++++++++++++++++++++++++++.+++
(PID.TID 0000.0001) //     39 zz.zzzzzzzzzzzzzzzzzzzzzzzzzzzzzzzzzzzzzzzzzzzzzzzzzzzzzzzzzzzzzzzzzzzzzzzzzzzzzzzzzzzzzzzzzzzzzzzzzzzzzzzzzzzzzzzzzzzzzzzzzzzzzzzzzzzzzzzzzzzzzzzzzzzzzzzzzzzzzzzzzzzzzzzzzzzzzzzzzzzzzzzzzzzzzzzzzzzzzzzzzzzzzzzzzzzzzzzzzzzzzzzzzzzzzzzzzzzzzzzzzzzzzzzzzzzzz.zzz
(PID.TID 0000.0001) //     38 yy.yyyyyyyyyyyyyyyyyyyyyyyyyyyyyyyyyyyyyyyyyyyyyyyyyyyyyyyyyyyyyyyyyyyyyyyyyyyyyyyyyyyyyyyyyyyyyyyyyyyyyyyyyyyyyyyyyyyyyyyyyyyyyyyyyyyyyyyyyyyyyyyyyyyyyyyyyyyyyyyyyyyyyyyyyyyyyyyyyyyyyyyyyyyyyyyyyyyyyyyyyyyyyyyyyyyyyyyyyyyyyyyyyyyyyyyyyyyyyyyyyyyyyyyyyyyyy.yyy
(PID.TID 0000.0001) //     37 xx.xxxxxxxxxxxxxxxxxxxxxxxxxxxxxxxxxxxxxxxxxxxxxxxxxxxxxxxxxxxxxxxxxxxxxxxxxxxxxxxxxxxxxxxxxxxxxxxxxxxxxxxxxxxxxxxxxxxxxxxxxxxxxxxxxxxxxxxxxxxxxxxxxxxxxxxxxxxxxxxxxxxxxxxxxxxxxxxxxxxxxxxxxxxxxxxxxxxxxxxxxxxxxxxxxxxxxxxxxxxxxxxxxxxxxxxxxxxxxxxxxxxxxxxxxxxxx.xxx
(PID.TID 0000.0001) //     36 ww.wwwwwwwwwwwwwwwwwwwwwwwwwwwwwwwwwwwwwwwwwwwwwwwwwwwwwwwwwwwwwwwwwwwwwwwwwwwwwwwwwwwwwwwwwwwwwwwwwwwwwwwwwwwwwwwwwwwwwwwwwwwwwwwwwwwwwwwwwwwwwwwwwwwwwwwwwwwwwwwwwwwwwwwwwwwwwwwwwwwwwwwwwwwwwwwwwwwwwwwwwwwwwwwwwwwwwwwwwwwwwwwwwwwwwwwwwwwwwwwwwwwwwwwwwwwww.www
(PID.TID 0000.0001) //     35 ww.wwwwwwwwwwwwwwwwwwwwwwwwwwwwwwwwwwwwwwwwwwwwwwwwwwwwwwwwwwwwwwwwwwwwwwwwwwwwwwwwwwwwwwwwwwwwwwwwwwwwwwwwwwwwwwwwwwwwwwwwwwwwwwwwwwwwwwwwwwwwwwwwwwwwwwwwwwwwwwwwwwwwwwwwwwwwwwwwwwwwwwwwwwwwwwwwwwwwwwwwwwwwwwwwwwwwwwwwwwwwwwwwwwwwwwwwwwwwwwwwwwwwwwwwwwwww.www
(PID.TID 0000.0001) //     34 vv.vvvvvvvvvvvvvvvvvvvvvvvvvvvvvvvvvvvvvvvvvvvvvvvvvvvvvvvvvvvvvvvvvvvvvvvvvvvvvvvvvvvvvvvvvvvvvvvvvvvvvvvvvvvvvvvvvvvvvvvvvvvvvvvvvvvvvvvvvvvvvvvvvvvvvvvvvvvvvvvvvvvvvvvvvvvvvvvvvvvvvvvvvvvvvvvvvvvvvvvvvvvvvvvvvvvvvvvvvvvvvvvvvvvvvvvvvvvvvvvvvvvvvvvvvvvvv.vvv
(PID.TID 0000.0001) //     33 uu.uuuuuuuuuuuuuuuuuuuuuuuuuuuuuuuuuuuuuuuuuuuuuuuuuuuuuuuuuuuuuuuuuuuuuuuuuuuuuuuuuuuuuuuuuuuuuuuuuuuuuuuuuuuuuuuuuuuuuuuuuuuuuuuuuuuuuuuuuuuuuuuuuuuuuuuuuuuuuuuuuuuuuuuuuuuuuuuuuuuuuuuuuuuuuuuuuuuuuuuuuuuuuuuuuuuuuuuuuuuuuuuuuuuuuuuuuuuuuuuuuuuuuuuuuuuuu.uuu
(PID.TID 0000.0001) //     32 tt.ttttttttttttttttttttttttttttttttttttttttttttttttttttttttttttttttttttttttttttttttttttttttttttttttttttttttttttttttttttttttttttttttttttttttttttttttttttttttttttttttttttttttttttttttttttttttttttttttttttttttttttttttttttttttttttttttttttttttttttttttttttttttttttt.ttt
(PID.TID 0000.0001) //     31 ss.sssssssssssssssssssssssssssssssssssssssssssssssssssssssssssssssssssssssssssssssssssssssssssssssssssssssssssssssssssssssssssssssssssssssssssssssssssssssssssssssssssssssssssssssssssssssssssssssssssssssssssssssssssssssssssssssssssssssssssssssssssssssssssss.sss
(PID.TID 0000.0001) //     30 rr.rrrrrrrrrrrrrrrrrrrrrrrrrrrrrrrrrrrrrrrrrrrrrrrrrrrrrrrrrrrrrrrrrrrrrrrrrrrrrrrrrrrrrrrrrrrrrrrrrrrrrrrrrrrrrrrrrrrrrrrrrrrrrrrrrrrrrrrrrrrrrrrrrrrrrrrrrrrrrrrrrrrrrrrrrrrrrrrrrrrrrrrrrrrrrrrrrrrrrrrrrrrrrrrrrrrrrrrrrrrrrrrrrrrrrrrrrrrrrrrrrrrrrrrrrrrrr.rrr
(PID.TID 0000.0001) //     29 qq.qqqqqqqqqqqqqqqqqqqqqqqqqqqqqqqqqqqqqqqqqqqqqqqqqqqqqqqqqqqqqqqqqqqqqqqqqqqqqqqqqqqqqqqqqqqqqqqqqqqqqqqqqqqqqqqqqqqqqqqqqqqqqqqqqqqqqqqqqqqqqqqqqqqqqqqqqqqqqqqqqqqqqqqqqqqqqqqqqqqqqqqqqqqqqqqqqqqqqqqqqqqqqqqqqqqqqqqqqqqqqqqqqqqqqqqqqqqqqqqqqqqqqqqqqqqqq.qqq
(PID.TID 0000.0001) //     28 pp.ppppppppppppppppppppppppppppppppppppppppppppppppppppppppppppppppppppppppppppppppppppppppppppppppppppppppppppppppppppppppppppppppppppppppppppppppppppppppppppppppppppppppppppppppppppppppppppppppppppppppppppppppppppppppppppppppppppppppppppppppppppppppppppp.ppp
(PID.TID 0000.0001) //     33 uu.uuuuuuuuuuuuuuuuuuuuuuuuuuuuuuuuuuuuuuuuuuuuuuuuuuuuuuuuuuuuuuuuuuuuuuuuuuuuuuuuuuuuuuuuuuuuuuuuuuuuuuuuuuuuuuuuuuuuuuuuuuuuuuuuuuuuuuuuuuuuuuuuuuuuuuuuuuuuuuuuuuuuuuuuuuuuuuuuuuuuuuuuuuuuuuuuuuuuuuuuuuuuuuuuuuuuuuuuuuuuuuuuuuuuuuuuuuuuuuuuuuuuuuuuuuuuu.uuu
(PID.TID 0000.0001) //     32 tt.ttttttttttttttttttttttttttttttttttttttttttttttttttttttttttttttttttttttttttttttttttttttttttttttttttttttttttttttttttttttttttttttttttttttttttttttttttttttttttttttttttttttttttttttttttttttttttttttttttttttttttttttttttttttttttttttttttttttttttttttttttttttttttttt.ttt
(PID.TID 0000.0001) //     31 ss.sssssssssssssssssssssssssssssssssssssssssssssssssssssssssssssssssssssssssssssssssssssssssssssssssssssssssssssssssssssssssssssssssssssssssssssssssssssssssssssssssssssssssssssssssssssssssssssssssssssssssssssssssssssssssssssssssssssssssssssssssssssssssssss.sss
(PID.TID 0000.0001) //     30 rr.rrrrrrrrrrrrrrrrrrrrrrrrrrrrrrrrrrrrrrrrrrrrrrrrrrrrrrrrrrrrrrrrrrrrrrrrrrrrrrrrrrrrrrrrrrrrrrrrrrrrrrrrrrrrrrrrrrrrrrrrrrrrrrrrrrrrrrrrrrrrrrrrrrrrrrrrrrrrrrrrrrrrrrrrrrrrrrrrrrrrrrrrrrrrrrrrrrrrrrrrrrrrrrrrrrrrrrrrrrrrrrrrrrrrrrrrrrrrrrrrrrrrrrrrrrrrr.rrr
(PID.TID 0000.0001) //     29 qq.qqqqqqqqqqqqqqqqqqqqqqqqqqqqqqqqqqqqqqqqqqqqqqqqqqqqqqqqqqqqqqqqqqqqqqqqqqqqqqqqqqqqqqqqqqqqqqqqqqqqqqqqqqqqqqqqqqqqqqqqqqqqqqqqqqqqqqqqqqqqqqqqqqqqqqqqqqqqqqqqqqqqqqqqqqqqqqqqqqqqqqqqqqqqqqqqqqqqqqqqqqqqqqqqqqqqqqqqqqqqqqqqqqqqqqqqqqqqqqqqqqqqqqqqqqqqq.qqq
(PID.TID 0000.0001) //     28 pp.ppppppppppppppppppppppppppppppppppppppppppppppppppppppppppppppppppppppppppppppppppppppppppppppppppppppppppppppppppppppppppppppppppppppppppppppppppppppppppppppppppppppppppppppppppppppppppppppppppppppppppppppppppppppppppppppppppppppppppppppppppppppppppppp.ppp
(PID.TID 0000.0001) //     27 oo.ooooooooooooooooooooooooooooooooooooooooooooooooooooooooooooooooooooooooooooooooooooooooooooooooooooooooooooooooooooooooooooooooooooooooooooooooooooooooooooooooooooooooooooooooooooooooooooooooooooooooooooooooooooooooooooooooooooooooooooooooooooooooooooo.ooo
(PID.TID 0000.0001) //     26 nn.nnnnnnnnnnnnnnnnnnnnnnnnnnnnnnnnnnnnnnnnnnnnnnnnnnnnnnnnnnnnnnnnnnnnnnnnnnnnnnnnnnnnnnnnnnnnnnnnnnnnnnnnnnnnnnnnnnnnnnnnnnnnnnnnnnnnnnnnnnnnnnnnnnnnnnnnnnnnnnnnnnnnnnnnnnnnnnnnnnnnnnnnnnnnnnnnnnnnnnnnnnnnnnnnnnnnnnnnnnnnnnnnnnnnnnnnnnnnnnnnnnnnnnnnnnnnn.nnn
(PID.TID 0000.0001) //     25 nn.nnnnnnnnnnnnnnnnnnnnnnnnnnnnnnnnnnnnnnnnnnnnnnnnnnnnnnnnnnnnnnnnnnnnnnnnnnnnnnnnnnnnnnnnnnnnnnnnnnnnnnnnnnnnnnnnnnnnnnnnnnnnnnnnnnnnnnnnnnnnnnnnnnnnnnnnnnnnnnnnnnnnnnnnnnnnnnnnnnnnnnnnnnnnnnnnnnnnnnnnnnnnnnnnnnnnnnnnnnnnnnnnnnnnnnnnnnnnnnnnnnnnnnnnnnnnn.nnn
(PID.TID 0000.0001) //     24 mm.mmmmmmmmmmmmmmmmmmmmmmmmmmmmmmmmmmmmmmmmmmmmmmmmmmmmmmmmmmmmmmmmmmmmmmmmmmmmmmmmmmmmmmmmmmmmmmmmmmmmmmmmmmmmmmmmmmmmmmmmmmmmmmmmmmmmmmmmmmmmmmmmmmmmmmmmmmmmmmmmmmmmmmmmmmmmmmmmmmmmmmmmmmmmmmmmmmmmmmmmmmmmmmmmmmmmmmmmmmmmmmmmmmmmmmmmmmmmmmmmmmmmmmmmmmmmm.mmm
(PID.TID 0000.0001) //     23 ll.lllllllllllllllllllllllllllllllllllllllllllllllllllllllllllllllllllllllllllllllllllllllllllllllllllllllllllllllllllllllllllllllllllllllllllllllllllllllllllllllllllllllllllllllllllllllllllllllllllllllllllllllllllllllllllllllllllllllllllllllllllllllllllll.lll
(PID.TID 0000.0001) //     22 kk.kkkkkkkkkkkkkkkkkkkkkkkkkkkkkkkkkkkkkkkkkkkkkkkkkkkkkkkkkkkkkkkkkkkkkkkkkkkkkkkkkkkkkkkkkkkkkkkkkkkkkkkkkkkkkkkkkkkkkkkkkkkkkkkkkkkkkkkkkkkkkkkkkkkkkkkkkkkkkkkkkkkkkkkkkkkkkkkkkkkkkkkkkkkkkkkkkkkkkkkkkkkkkkkkkkkkkkkkkkkkkkkkkkkkkkkkkkkkkkkkkkkkkkkkkkkkk.kkk
(PID.TID 0000.0001) //     21 jj.jjjjjjjjjjjjjjjjjjjjjjjjjjjjjjjjjjjjjjjjjjjjjjjjjjjjjjjjjjjjjjjjjjjjjjjjjjjjjjjjjjjjjjjjjjjjjjjjjjjjjjjjjjjjjjjjjjjjjjjjjjjjjjjjjjjjjjjjjjjjjjjjjjjjjjjjjjjjjjjjjjjjjjjjjjjjjjjjjjjjjjjjjjjjjjjjjjjjjjjjjjjjjjjjjjjjjjjjjjjjjjjjjjjjjjjjjjjjjjjjjjjjjjjjjjjjj.jjj
(PID.TID 0000.0001) //     20 ii.iiiiiiiiiiiiiiiiiiiiiiiiiiiiiiiiiiiiiiiiiiiiiiiiiiiiiiiiiiiiiiiiiiiiiiiiiiiiiiiiiiiiiiiiiiiiiiiiiiiiiiiiiiiiiiiiiiiiiiiiiiiiiiiiiiiiiiiiiiiiiiiiiiiiiiiiiiiiiiiiiiiiiiiiiiiiiiiiiiiiiiiiiiiiiiiiiiiiiiiiiiiiiiiiiiiiiiiiiiiiiiiiiiiiiiiiiiiiiiiiiiiiiiiiiiiii.iii
(PID.TID 0000.0001) //     19 hh.hhhhhhhhhhhhhhhhhhhhhhhhhhhhhhhhhhhhhhhhhhhhhhhhhhhhhhhhhhhhhhhhhhhhhhhhhhhhhhhhhhhhhhhhhhhhhhhhhhhhhhhhhhhhhhhhhhhhhhhhhhhhhhhhhhhhhhhhhhhhhhhhhhhhhhhhhhhhhhhhhhhhhhhhhhhhhhhhhhhhhhhhhhhhhhhhhhhhhhhhhhhhhhhhhhhhhhhhhhhhhhhhhhhhhhhhhhhhhhhhhhhhhhhhhhhhh.hhh
(PID.TID 0000.0001) //     18 gg.ggggggggggggggggggggggggggggggggggggggggggggggggggggggggggggggggggggggggggggggggggggggggggggggggggggggggggggggggggggggggggggggggggggggggggggggggggggggggggggggggggggggggggggggggggggggggggggggggggggggggggggggggggggggggggggggggggggggggggggggggggggggggggggg.ggg
(PID.TID 0000.0001) //     17 ff.fffffffffffffffffffffffffffffffffffffffffffffffffffffffffffffffffffffffffffffffffffffffffffffffffffffffffffffffffffffffffffffffffffffffffffffffffffffffffffffffffffffffffffffffffffffffffffffffffffffffffffffffffffffffffffffffffffffffffffffffffffffffffffff.fff
(PID.TID 0000.0001) //     16 ee.eeeeeeeeeeeeeeeeeeeeeeeeeeeeeeeeeeeeeeeeeeeeeeeeeeeeeeeeeeeeeeeeeeeeeeeeeeeeeeeeeeeeeeeeeeeeeeeeeeeeeeeeeeeeeeeeeeeeeeeeeeeeeeeeeeeeeeeeeeeeeeeeeeeeeeeeeeeeeeeeeeeeeeeeeeeeeeeeeeeeeeeeeeeeeeeeeeeeeeeeeeeeeeeeeeeeeeeeeeeeeeeeeeeeeeeeeeeeeeeeeeeeeeeeeeeee.eee
(PID.TID 0000.0001) //     15 dd.ddddddddddddddddddddddddddddddddddddddddddddddddddddddddddddddddddddddddddddddddddddddddddddddddddddddddddddddddddddddddddddddddddddddddddddddddddddddddddddddddddddddddddddddddddddddddddddddddddddddddddddddddddddddddddddddddddddddddddddddddddddddddddddd.ddd
(PID.TID 0000.0001) //     14 dd.ddddddddddddddddddddddddddddddddddddddddddddddddddddddddddddddddddddddddddddddddddddddddddddddddddddddddddddddddddddddddddddddddddddddddddddddddddddddddddddddddddddddddddddddddddddddddddddddddddddddddddddddddddddddddddddddddddddddddddddddddddddddddddddd.ddd
(PID.TID 0000.0001) //     13 cc.ccccccccccccccccccccccccccccccccccccccccccccccccccccccccccccccccccccccccccccccccccccccccccccccccccccccccccccccccccccccccccccccccccccccccccccccccccccccccccccccccccccccccccccccccccccccccccccccccccccccccccccccccccccccccccccccccccccccccccccccccccccccccccccc.ccc
(PID.TID 0000.0001) //     18 gg.ggggggggggggggggggggggggggggggggggggggggggggggggggggggggggggggggggggggggggggggggggggggggggggggggggggggggggggggggggggggggggggggggggggggggggggggggggggggggggggggggggggggggggggggggggggggggggggggggggggggggggggggggggggggggggggggggggggggggggggggggggggggggggggg.ggg
(PID.TID 0000.0001) //     17 ff.fffffffffffffffffffffffffffffffffffffffffffffffffffffffffffffffffffffffffffffffffffffffffffffffffffffffffffffffffffffffffffffffffffffffffffffffffffffffffffffffffffffffffffffffffffffffffffffffffffffffffffffffffffffffffffffffffffffffffffffffffffffffffffff.fff
(PID.TID 0000.0001) //     16 ee.eeeeeeeeeeeeeeeeeeeeeeeeeeeeeeeeeeeeeeeeeeeeeeeeeeeeeeeeeeeeeeeeeeeeeeeeeeeeeeeeeeeeeeeeeeeeeeeeeeeeeeeeeeeeeeeeeeeeeeeeeeeeeeeeeeeeeeeeeeeeeeeeeeeeeeeeeeeeeeeeeeeeeeeeeeeeeeeeeeeeeeeeeeeeeeeeeeeeeeeeeeeeeeeeeeeeeeeeeeeeeeeeeeeeeeeeeeeeeeeeeeeeeeeeeeeee.eee
(PID.TID 0000.0001) //     15 dd.ddddddddddddddddddddddddddddddddddddddddddddddddddddddddddddddddddddddddddddddddddddddddddddddddddddddddddddddddddddddddddddddddddddddddddddddddddddddddddddddddddddddddddddddddddddddddddddddddddddddddddddddddddddddddddddddddddddddddddddddddddddddddddddd.ddd
(PID.TID 0000.0001) //     14 dd.ddddddddddddddddddddddddddddddddddddddddddddddddddddddddddddddddddddddddddddddddddddddddddddddddddddddddddddddddddddddddddddddddddddddddddddddddddddddddddddddddddddddddddddddddddddddddddddddddddddddddddddddddddddddddddddddddddddddddddddddddddddddddddddd.ddd
(PID.TID 0000.0001) //     13 cc.ccccccccccccccccccccccccccccccccccccccccccccccccccccccccccccccccccccccccccccccccccccccccccccccccccccccccccccccccccccccccccccccccccccccccccccccccccccccccccccccccccccccccccccccccccccccccccccccccccccccccccccccccccccccccccccccccccccccccccccccccccccccccccccc.ccc
(PID.TID 0000.0001) //     12 bb.bbbbbbbbbbbbbbbbbbbbbbbbbbbbbbbbbbbbbbbbbbbbbbbbbbbbbbbbbbbbbbbbbbbbbbbbbbbbbbbbbbbbbbbbbbbbbbbbbbbbbbbbbbbbbbbbbbbbbbbbbbbbbbbbbbbbbbbbbbbbbbbbbbbbbbbbbbbbbbbbbbbbbbbbbbbbbbbbbbbbbbbbbbbbbbbbbbbbbbbbbbbbbbbbbbbbbbbbbbbbbbbbbbbbbbbbbbbbbbbbbbbbbbbbbbbbb.bbb
(PID.TID 0000.0001) //     11 aa.aaaaaaaaaaaaaaaaaaaaaaaaaaaaaaaaaaaaaaaaaaaaaaaaaaaaaaaaaaaaaaaaaaaaaaaaaaaaaaaaaaaaaaaaaaaaaaaaaaaaaaaaaaaaaaaaaaaaaaaaaaaaaaaaaaaaaaaaaaaaaaaaaaaaaaaaaaaaaaaaaaaaaaaaaaaaaaaaaaaaaaaaaaaaaaaaaaaaaaaaaaaaaaaaaaaaaaaaaaaaaaaaaaaaaaaaaaaaaaaaaaaaaaaaaaaaa.aaa
(PID.TID 0000.0001) //     10 --.-------------------------------------------------------------------------------------------------------------------------------------------------------------------------------------------------------------------------------------------------------------.---
(PID.TID 0000.0001) //      9 --.-------------------------------------------------------------------------------------------------------------------------------------------------------------------------------------------------------------------------------------------------------------.---
(PID.TID 0000.0001) //      8 --.-------------------------------------------------------------------------------------------------------------------------------------------------------------------------------------------------------------------------------------------------------------.---
(PID.TID 0000.0001) //      7 --.-------------------------------------------------------------------------------------------------------------------------------------------------------------------------------------------------------------------------------------------------------------.---
(PID.TID 0000.0001) //      6 --.-------------------------------------------------------------------------------------------------------------------------------------------------------------------------------------------------------------------------------------------------------------.---
(PID.TID 0000.0001) //      5 --.-------------------------------------------------------------------------------------------------------------------------------------------------------------------------------------------------------------------------------------------------------------.---
(PID.TID 0000.0001) //      4 --.-------------------------------------------------------------------------------------------------------------------------------------------------------------------------------------------------------------------------------------------------------------.---
(PID.TID 0000.0001) //      3 --.-------------------------------------------------------------------------------------------------------------------------------------------------------------------------------------------------------------------------------------------------------------.---
(PID.TID 0000.0001) //      2 --.-------------------------------------------------------------------------------------------------------------------------------------------------------------------------------------------------------------------------------------------------------------.---
(PID.TID 0000.0001) //      1 ....................................................................................................................................................................................................................................................................
(PID.TID 0000.0001) //      0 ........................................................................................................................................................................................................................++++++++++..................................
(PID.TID 0000.0001) //     -1 ........................................................................................................................................................................................................................++++++++++..................................
(PID.TID 0000.0001) //     -2 ........................................................................................................................................................................................................................++++++++++..................................
(PID.TID 0000.0001) // =======================================================
(PID.TID 0000.0001) // END OF FIELD                                          =
(PID.TID 0000.0001) // =======================================================
(PID.TID 0000.0001) 
(PID.TID 0000.0001) // =======================================================
(PID.TID 0000.0001) // Field Model Ro_surf (ini_masks_etc) at iteration          1
(PID.TID 0000.0001) // CMIN =          1.000000000000000E+32
(PID.TID 0000.0001) // CMAX =         -1.000000000000000E+32
(PID.TID 0000.0001) // CINT =          0.000000000000000E+00
(PID.TID 0000.0001) // SYMBOLS (CMIN->CMAX): -abcdefghijklmnopqrstuvwxyz+
(PID.TID 0000.0001) //                  0.0: .
(PID.TID 0000.0001) // RANGE I (Lo:Hi:Step):(  -2: 203:   1)
(PID.TID 0000.0001) // RANGE J (Lo:Hi:Step):(  48:  -2:  -1)
(PID.TID 0000.0001) // RANGE K (Lo:Hi:Step):(   1:   1:   1)
(PID.TID 0000.0001) // =======================================================
(PID.TID 0000.0001) // =======================================================
(PID.TID 0000.0001) // END OF FIELD                                          =
(PID.TID 0000.0001) // =======================================================
(PID.TID 0000.0001) 
(PID.TID 0000.0001) // =======================================================
(PID.TID 0000.0001) // Field hFacC at iteration          1
(PID.TID 0000.0001) // CMIN =          1.000000000000000E+00
(PID.TID 0000.0001) // CMAX =          1.000000000000000E+00
(PID.TID 0000.0001) // CINT =          0.000000000000000E+00
(PID.TID 0000.0001) // SYMBOLS (CMIN->CMAX): -abcdefghijklmnopqrstuvwxyz+
(PID.TID 0000.0001) //                  0.0: .
(PID.TID 0000.0001) // RANGE I (Lo:Hi:Step):(  -2: 203:   1)
(PID.TID 0000.0001) // RANGE J (Lo:Hi:Step):(  48:  -2:  -1)
(PID.TID 0000.0001) // RANGE K (Lo:Hi:Step):(   1:   1:   1)
(PID.TID 0000.0001) // =======================================================
(PID.TID 0000.0001) // =======================================================
(PID.TID 0000.0001) // END OF FIELD                                          =
(PID.TID 0000.0001) // =======================================================
(PID.TID 0000.0001) 
(PID.TID 0000.0001) // =======================================================
(PID.TID 0000.0001) // Field hFacW at iteration          1
(PID.TID 0000.0001) // CMIN =          1.000000000000000E+00
(PID.TID 0000.0001) // CMAX =          1.000000000000000E+00
(PID.TID 0000.0001) // CINT =          0.000000000000000E+00
(PID.TID 0000.0001) // SYMBOLS (CMIN->CMAX): -abcdefghijklmnopqrstuvwxyz+
(PID.TID 0000.0001) //                  0.0: .
(PID.TID 0000.0001) // RANGE I (Lo:Hi:Step):(  -2: 203:   1)
(PID.TID 0000.0001) // RANGE J (Lo:Hi:Step):(  48:  -2:  -1)
(PID.TID 0000.0001) // RANGE K (Lo:Hi:Step):(   1:   1:   1)
(PID.TID 0000.0001) // =======================================================
(PID.TID 0000.0001) // =======================================================
(PID.TID 0000.0001) // END OF FIELD                                          =
(PID.TID 0000.0001) // =======================================================
(PID.TID 0000.0001) 
(PID.TID 0000.0001) // =======================================================
(PID.TID 0000.0001) // Field hFacS at iteration          1
(PID.TID 0000.0001) // CMIN =          1.000000000000000E+00
(PID.TID 0000.0001) // CMAX =          1.000000000000000E+00
(PID.TID 0000.0001) // CINT =          0.000000000000000E+00
(PID.TID 0000.0001) // SYMBOLS (CMIN->CMAX): -abcdefghijklmnopqrstuvwxyz+
(PID.TID 0000.0001) //                  0.0: .
(PID.TID 0000.0001) // RANGE I (Lo:Hi:Step):(  -2: 203:   1)
(PID.TID 0000.0001) // RANGE J (Lo:Hi:Step):(  48:  -2:  -1)
(PID.TID 0000.0001) // RANGE K (Lo:Hi:Step):(   1:   1:   1)
(PID.TID 0000.0001) // =======================================================
(PID.TID 0000.0001) // =======================================================
(PID.TID 0000.0001) // END OF FIELD                                          =
(PID.TID 0000.0001) // =======================================================
(PID.TID 0000.0001) 
(PID.TID 0000.0001) 
(PID.TID 0000.0001) // ===================================
(PID.TID 0000.0001) // GAD parameters :
(PID.TID 0000.0001) // ===================================
(PID.TID 0000.0001) tempAdvScheme =   /* Temp. Horiz.Advection scheme selector */
(PID.TID 0000.0001)                      77
(PID.TID 0000.0001)     ;
(PID.TID 0000.0001) tempVertAdvScheme =   /* Temp. Vert. Advection scheme selector */
(PID.TID 0000.0001)                      77
(PID.TID 0000.0001)     ;
(PID.TID 0000.0001) tempMultiDimAdvec =   /* use Muti-Dim Advec method for Temp */
(PID.TID 0000.0001)                   T
(PID.TID 0000.0001)     ;
(PID.TID 0000.0001) tempAdamsBashforth =   /* use Adams-Bashforth time-stepping for Temp */
(PID.TID 0000.0001)                   F
(PID.TID 0000.0001)     ;
(PID.TID 0000.0001) saltAdvScheme =   /* Salt. Horiz.advection scheme selector */
(PID.TID 0000.0001)                      77
(PID.TID 0000.0001)     ;
(PID.TID 0000.0001) saltVertAdvScheme =   /* Salt. Vert. Advection scheme selector */
(PID.TID 0000.0001)                      77
(PID.TID 0000.0001)     ;
(PID.TID 0000.0001) saltMultiDimAdvec =   /* use Muti-Dim Advec method for Salt */
(PID.TID 0000.0001)                   T
(PID.TID 0000.0001)     ;
(PID.TID 0000.0001) saltAdamsBashforth =   /* use Adams-Bashforth time-stepping for Salt */
(PID.TID 0000.0001)                   F
(PID.TID 0000.0001)     ;
(PID.TID 0000.0001) // ===================================
(PID.TID 0000.0001) ------------------------------------------------------------
(PID.TID 0000.0001) DIAGNOSTICS_SET_LEVELS: done
(PID.TID 0000.0001)  Total Nb of available Diagnostics: ndiagt= 294
(PID.TID 0000.0001)  write list of available Diagnostics to file: available_diagnostics
(PID.TID 0000.0001) SETDIAG: Allocate 25 Levels for Diagnostic # 272 VISCA4
(PID.TID 0000.0001)   space allocated for all diagnostics:    25 levels
(PID.TID 0000.0001) DIAGNOSTICS_SET_POINTERS: Set levels for Outp.Stream: visc
(PID.TID 0000.0001)  Levels:       1.   2.   3.   4.   5.   6.   7.   8.   9.  10.  11.  12.  13.  14.  15.  16.  17.  18.  19.  20.
(PID.TID 0000.0001)  Levels:      21.  22.  23.  24.  25.
(PID.TID 0000.0001) DIAGNOSTICS_SET_POINTERS: done
(PID.TID 0000.0001) ------------------------------------------------------------
(PID.TID 0000.0001) OBCS_CHECK: #define ALLOW_OBCS
(PID.TID 0000.0001) OBCS_CHECK: #define ALLOW_ORLANSKI
(PID.TID 0000.0001) OBCS_CHECK: OK
(PID.TID 0000.0001) %MON fCori_max                    =   1.0000000000000E-04
(PID.TID 0000.0001) %MON fCori_min                    =   1.0000000000000E-04
(PID.TID 0000.0001) %MON fCori_mean                   =   1.0000000000000E-04
(PID.TID 0000.0001) %MON fCori_sd                     =   3.7947076036993E-19
(PID.TID 0000.0001) %MON fCoriG_max                   =   1.0000000000000E-04
(PID.TID 0000.0001) %MON fCoriG_min                   =   1.0000000000000E-04
(PID.TID 0000.0001) %MON fCoriG_mean                  =   1.0000000000000E-04
(PID.TID 0000.0001) %MON fCoriG_sd                    =   3.7947076036993E-19
(PID.TID 0000.0001) %MON fCoriCos_max                 =   0.0000000000000E+00
(PID.TID 0000.0001) %MON fCoriCos_min                 =   0.0000000000000E+00
(PID.TID 0000.0001) %MON fCoriCos_mean                =   0.0000000000000E+00
(PID.TID 0000.0001) %MON fCoriCos_sd                  =   0.0000000000000E+00
(PID.TID 0000.0001) // CG2D normalisation factor =          0.6985784986531311214433965E-04
(PID.TID 0000.0001) 
(PID.TID 0000.0001) // CG3D normalisation factor =          0.3621430937017830315629414E-06
(PID.TID 0000.0001) 
(PID.TID 0000.0001) CONFIG_CHECK: OK
(PID.TID 0000.0001) // =======================================================
(PID.TID 0000.0001) // Model configuration
(PID.TID 0000.0001) // =======================================================
(PID.TID 0000.0001) //
(PID.TID 0000.0001) // "Physical" paramters ( PARM01 in namelist )
(PID.TID 0000.0001) //
(PID.TID 0000.0001) buoyancyRelation = OCEANIC
(PID.TID 0000.0001) fluidIsAir  =  /* fluid major constituent is Air */
(PID.TID 0000.0001)                   F
(PID.TID 0000.0001)     ;
(PID.TID 0000.0001) fluidIsWater=  /* fuild major constituent is Water */
(PID.TID 0000.0001)                   T
(PID.TID 0000.0001)     ;
(PID.TID 0000.0001) usingPCoords =  /* use p (or p*) vertical coordinate */
(PID.TID 0000.0001)                   F
(PID.TID 0000.0001)     ;
(PID.TID 0000.0001) usingZCoords =  /* use z (or z*) vertical coordinate */
(PID.TID 0000.0001)                   T
(PID.TID 0000.0001)     ;
(PID.TID 0000.0001) tRef =   /* Reference temperature profile ( oC or oK ) */
(PID.TID 0000.0001)                -1.941750000000000E-01,      /* K =  1 */
(PID.TID 0000.0001)                -5.825240000000000E-01,      /* K =  2 */
(PID.TID 0000.0001)                -9.708740000000000E-01,      /* K =  3 */
(PID.TID 0000.0001)                -1.359220000000000E+00,      /* K =  4 */
(PID.TID 0000.0001)                -1.747570000000000E+00,      /* K =  5 */
(PID.TID 0000.0001)                -2.135920000000000E+00,      /* K =  6 */
(PID.TID 0000.0001)                -2.524270000000000E+00,      /* K =  7 */
(PID.TID 0000.0001)                -2.912620000000000E+00,      /* K =  8 */
(PID.TID 0000.0001)                -3.300970000000000E+00,      /* K =  9 */
(PID.TID 0000.0001)                -3.689320000000000E+00,      /* K = 10 */
(PID.TID 0000.0001)                -4.077670000000000E+00,      /* K = 11 */
(PID.TID 0000.0001)                -4.466020000000000E+00,      /* K = 12 */
(PID.TID 0000.0001)                -4.854370000000000E+00,      /* K = 13 */
(PID.TID 0000.0001)                -5.242720000000000E+00,      /* K = 14 */
(PID.TID 0000.0001)                -5.631070000000000E+00,      /* K = 15 */
(PID.TID 0000.0001)                -6.019420000000000E+00,      /* K = 16 */
(PID.TID 0000.0001)                -6.407770000000000E+00,      /* K = 17 */
(PID.TID 0000.0001)                -6.796120000000000E+00,      /* K = 18 */
(PID.TID 0000.0001)                -7.184470000000000E+00,      /* K = 19 */
(PID.TID 0000.0001)                -7.572820000000000E+00,      /* K = 20 */
(PID.TID 0000.0001)                -7.961170000000000E+00,      /* K = 21 */
(PID.TID 0000.0001)                -8.349510000000000E+00,      /* K = 22 */
(PID.TID 0000.0001)                -8.737860000000000E+00,      /* K = 23 */
(PID.TID 0000.0001)                -9.126210000000000E+00,      /* K = 24 */
(PID.TID 0000.0001)                -9.514559999999999E+00       /* K = 25 */
(PID.TID 0000.0001)     ;
(PID.TID 0000.0001) sRef =   /* Reference salinity profile ( ppt ) */
(PID.TID 0000.0001)    25 @  1.000000000000000E+00              /* K =  1: 25 */
(PID.TID 0000.0001)     ;
(PID.TID 0000.0001) viscAh =   /* Lateral eddy viscosity ( m^2/s ) */
(PID.TID 0000.0001)                 0.000000000000000E+00
(PID.TID 0000.0001)     ;
(PID.TID 0000.0001) viscAhMax =   /* Maximum lateral eddy viscosity ( m^2/s ) */
(PID.TID 0000.0001)                 1.000000000000000E+21
(PID.TID 0000.0001)     ;
(PID.TID 0000.0001) viscAhGrid =   /* Grid dependent lateral eddy viscosity ( non-dim. ) */
(PID.TID 0000.0001)                 0.000000000000000E+00
(PID.TID 0000.0001)     ;
(PID.TID 0000.0001) viscC2leith =   /* Leith harmonic viscosity factor ( non-dom. ) */
(PID.TID 0000.0001)                 0.000000000000000E+00
(PID.TID 0000.0001)     ;
(PID.TID 0000.0001) viscA4 =   /* Lateral biharmonic viscosity ( m^4/s ) */
(PID.TID 0000.0001)                 0.000000000000000E+00
(PID.TID 0000.0001)     ;
(PID.TID 0000.0001) viscA4Max =   /* Maximum biharmonic viscosity ( m^2/s ) */
(PID.TID 0000.0001)                 1.000000000000000E+21
(PID.TID 0000.0001)     ;
(PID.TID 0000.0001) viscA4Grid =   /* Grid dependent biharmonic viscosity ( non-dim. ) */
(PID.TID 0000.0001)                 0.000000000000000E+00
(PID.TID 0000.0001)     ;
(PID.TID 0000.0001) viscC4leith =   /* Leith biharmonic viscosity factor ( non-dom. ) */
(PID.TID 0000.0001)                 1.000000000000000E-01
(PID.TID 0000.0001)     ;
(PID.TID 0000.0001) no_slip_sides =  /* Viscous BCs: No-slip sides */
(PID.TID 0000.0001)                   T
(PID.TID 0000.0001)     ;
(PID.TID 0000.0001) viscAr =   /* Vertical eddy viscosity ( units of r^2/s ) */
(PID.TID 0000.0001)                 5.000000000000000E-01
(PID.TID 0000.0001)     ;
(PID.TID 0000.0001) no_slip_bottom =  /* Viscous BCs: No-slip bottom */
(PID.TID 0000.0001)                   T
(PID.TID 0000.0001)     ;
(PID.TID 0000.0001) diffKhT =   /* Laplacian diffusion of heat laterally ( m^2/s ) */
(PID.TID 0000.0001)                 0.000000000000000E+00
(PID.TID 0000.0001)     ;
(PID.TID 0000.0001) diffK4T =   /* Bihaarmonic diffusion of heat laterally ( m^4/s ) */
(PID.TID 0000.0001)                 0.000000000000000E+00
(PID.TID 0000.0001)     ;
(PID.TID 0000.0001) diffKhS =   /* Laplacian diffusion of salt laterally ( m^2/s ) */
(PID.TID 0000.0001)                 0.000000000000000E+00
(PID.TID 0000.0001)     ;
(PID.TID 0000.0001) diffK4S =   /* Bihaarmonic diffusion of salt laterally ( m^4/s ) */
(PID.TID 0000.0001)                 0.000000000000000E+00
(PID.TID 0000.0001)     ;
(PID.TID 0000.0001) diffKrNrT = /* vertical profile of vertical diffusion of Temp ( m^2/s )*/
(PID.TID 0000.0001)    25 @  0.000000000000000E+00              /* K =  1: 25 */
(PID.TID 0000.0001)     ;
(PID.TID 0000.0001) diffKrNrS = /* vertical profile of vertical diffusion of Salt ( m^2/s )*/
(PID.TID 0000.0001)    25 @  0.000000000000000E+00              /* K =  1: 25 */
(PID.TID 0000.0001)     ;
(PID.TID 0000.0001) diffKrBL79surf =   /* Surface diffusion for Bryan and Lewis 1979 ( m^2/s ) */
(PID.TID 0000.0001)                 0.000000000000000E+00
(PID.TID 0000.0001)     ;
(PID.TID 0000.0001) diffKrBL79deep =   /* Deep diffusion for Bryan and Lewis 1979 ( m^2/s ) */
(PID.TID 0000.0001)                 0.000000000000000E+00
(PID.TID 0000.0001)     ;
(PID.TID 0000.0001) diffKrBL79scl =   /* Depth scale for Bryan and Lewis 1979 ( m ) */
(PID.TID 0000.0001)                 2.000000000000000E+02
(PID.TID 0000.0001)     ;
(PID.TID 0000.0001) diffKrBL79Ho =   /* Turning depth for Bryan and Lewis 1979 ( m ) */
(PID.TID 0000.0001)                -2.000000000000000E+03
(PID.TID 0000.0001)     ;
(PID.TID 0000.0001)  Equation of State : eosType = LINEAR
(PID.TID 0000.0001) tAlpha =   /* Linear EOS thermal expansion coefficient ( 1/degree ) */
(PID.TID 0000.0001)                 2.000000000000000E-04
(PID.TID 0000.0001)     ;
(PID.TID 0000.0001) sBeta =   /* Linear EOS haline contraction coefficient ( 1/ppt ) */
(PID.TID 0000.0001)                 0.000000000000000E+00
(PID.TID 0000.0001)     ;
(PID.TID 0000.0001) rhonil =   /* Reference density ( kg/m^3 ) */
(PID.TID 0000.0001)                 1.030000000000000E+03
(PID.TID 0000.0001)     ;
(PID.TID 0000.0001) rhoConst =   /* Reference density ( kg/m^3 ) */
(PID.TID 0000.0001)                 1.030000000000000E+03
(PID.TID 0000.0001)     ;
(PID.TID 0000.0001) rhoConstFresh =   /* Reference density ( kg/m^3 ) */
(PID.TID 0000.0001)                 1.030000000000000E+03
(PID.TID 0000.0001)     ;
(PID.TID 0000.0001) gravity =   /* Gravitational acceleration ( m/s^2 ) */
(PID.TID 0000.0001)                 9.810000000000000E+00
(PID.TID 0000.0001)     ;
(PID.TID 0000.0001) gBaro =   /* Barotropic gravity ( m/s^2 ) */
(PID.TID 0000.0001)                 9.810000000000000E+00
(PID.TID 0000.0001)     ;
(PID.TID 0000.0001) rotationPeriod =   /* Rotation Period ( s ) */
(PID.TID 0000.0001)                 8.640000000000000E+04
(PID.TID 0000.0001)     ;
(PID.TID 0000.0001) omega =   /* Angular velocity ( rad/s ) */
(PID.TID 0000.0001)                 7.272205216643040E-05
(PID.TID 0000.0001)     ;
(PID.TID 0000.0001) f0 =   /* Reference coriolis parameter ( 1/s ) */
(PID.TID 0000.0001)                 1.000000000000000E-04
(PID.TID 0000.0001)     ;
(PID.TID 0000.0001) beta =   /* Beta ( 1/(m.s) ) */
(PID.TID 0000.0001)                 0.000000000000000E+00
(PID.TID 0000.0001)     ;
(PID.TID 0000.0001) freeSurfFac =   /* Implicit free surface factor */
(PID.TID 0000.0001)                 1.000000000000000E+00
(PID.TID 0000.0001)     ;
(PID.TID 0000.0001) implicitFreeSurface =   /* Implicit free surface on/off flag */
(PID.TID 0000.0001)                   T
(PID.TID 0000.0001)     ;
(PID.TID 0000.0001) rigidLid =   /* Rigid lid on/off flag */
(PID.TID 0000.0001)                   F
(PID.TID 0000.0001)     ;
(PID.TID 0000.0001) implicSurfPress =   /* Surface Pressure implicit factor (0-1)*/
(PID.TID 0000.0001)                 1.000000000000000E+00
(PID.TID 0000.0001)     ;
(PID.TID 0000.0001) implicDiv2Dflow =   /* Barot. Flow Div. implicit factor (0-1)*/
(PID.TID 0000.0001)                 1.000000000000000E+00
(PID.TID 0000.0001)     ;
(PID.TID 0000.0001) exactConserv =   /* Exact Volume Conservation on/off flag*/
(PID.TID 0000.0001)                   F
(PID.TID 0000.0001)     ;
(PID.TID 0000.0001) uniformLin_PhiSurf =   /* use uniform Bo_surf on/off flag*/
(PID.TID 0000.0001)                   T
(PID.TID 0000.0001)     ;
(PID.TID 0000.0001) nonlinFreeSurf =   /* Non-linear Free Surf. options (-1,0,1,2,3)*/
(PID.TID 0000.0001)                       0
(PID.TID 0000.0001)     ;
(PID.TID 0000.0001)      -1,0= Off ; 1,2,3= On, 2=+rescale gU,gV, 3=+update cg2d solv.
(PID.TID 0000.0001) hFacInf =   /* lower threshold for hFac (nonlinFreeSurf only)*/
(PID.TID 0000.0001)                 2.000000000000000E-01
(PID.TID 0000.0001)     ;
(PID.TID 0000.0001) hFacSup =   /* upper threshold for hFac (nonlinFreeSurf only)*/
(PID.TID 0000.0001)                 2.000000000000000E+00
(PID.TID 0000.0001)     ;
(PID.TID 0000.0001) select_rStar =   /* r* Coordinate options (not yet implemented)*/
(PID.TID 0000.0001)                       0
(PID.TID 0000.0001)     ;
(PID.TID 0000.0001) useRealFreshWaterFlux =   /* Real Fresh Water Flux on/off flag*/
(PID.TID 0000.0001)                   F
(PID.TID 0000.0001)     ;
(PID.TID 0000.0001) convertFW2Salt = /* convert F.W. Flux to Salt Flux (-1=use local S)(ppt)*/
(PID.TID 0000.0001)                 3.500000000000000E+01
(PID.TID 0000.0001)     ;
(PID.TID 0000.0001) nonHydrostatic =  /* Non-Hydrostatic on/off flag */
(PID.TID 0000.0001)                   F
(PID.TID 0000.0001)     ;
(PID.TID 0000.0001) momStepping =  /* Momentum equation on/off flag */
(PID.TID 0000.0001)                   T
(PID.TID 0000.0001)     ;
(PID.TID 0000.0001) momAdvection =  /* Momentum advection on/off flag */
(PID.TID 0000.0001)                   T
(PID.TID 0000.0001)     ;
(PID.TID 0000.0001) momViscosity =  /* Momentum viscosity on/off flag */
(PID.TID 0000.0001)                   T
(PID.TID 0000.0001)     ;
(PID.TID 0000.0001) momImplVertAdv =/* Momentum implicit vert. advection on/off*/
(PID.TID 0000.0001)                   F
(PID.TID 0000.0001)     ;
(PID.TID 0000.0001) implicitViscosity = /* Implicit viscosity on/off flag */
(PID.TID 0000.0001)                   F
(PID.TID 0000.0001)     ;
(PID.TID 0000.0001) useCoriolis =  /* Coriolis on/off flag */
(PID.TID 0000.0001)                   T
(PID.TID 0000.0001)     ;
(PID.TID 0000.0001) useCDscheme =  /* CD scheme on/off flag */
(PID.TID 0000.0001)                   F
(PID.TID 0000.0001)     ;
(PID.TID 0000.0001) useJamartWetPoints= /* Coriolis WetPoints method flag */
(PID.TID 0000.0001)                   F
(PID.TID 0000.0001)     ;
(PID.TID 0000.0001) useJamartMomAdv= /* V.I. Non-linear terms Jamart flag */
(PID.TID 0000.0001)                   F
(PID.TID 0000.0001)     ;
(PID.TID 0000.0001) SadournyCoriolis= /* Sadourny Coriolis discr. flag */
(PID.TID 0000.0001)                   F
(PID.TID 0000.0001)     ;
(PID.TID 0000.0001) upwindVorticity= /* Upwind bias vorticity flag */
(PID.TID 0000.0001)                   F
(PID.TID 0000.0001)     ;
(PID.TID 0000.0001) useAbsVorticity= /* Work with f+zeta in Coriolis */
(PID.TID 0000.0001)                   F
(PID.TID 0000.0001)     ;
(PID.TID 0000.0001) highOrderVorticity= /* High order interp. of vort. flag */
(PID.TID 0000.0001)                   F
(PID.TID 0000.0001)     ;
(PID.TID 0000.0001) momForcing =  /* Momentum forcing on/off flag */
(PID.TID 0000.0001)                   T
(PID.TID 0000.0001)     ;
(PID.TID 0000.0001) momPressureForcing =  /* Momentum pressure term on/off flag */
(PID.TID 0000.0001)                   T
(PID.TID 0000.0001)     ;
(PID.TID 0000.0001) staggerTimeStep =   /* Stagger time stepping on/off flag */
(PID.TID 0000.0001)                   T
(PID.TID 0000.0001)     ;
(PID.TID 0000.0001) multiDimAdvection =   /* enable/disable Multi-Dim Advection */
(PID.TID 0000.0001)                   T
(PID.TID 0000.0001)     ;
(PID.TID 0000.0001) useMultiDimAdvec =   /* Multi-Dim Advection is/is-not used */
(PID.TID 0000.0001)                   T
(PID.TID 0000.0001)     ;
(PID.TID 0000.0001) implicitDiffusion =/* Implicit Diffusion on/off flag */
(PID.TID 0000.0001)                   F
(PID.TID 0000.0001)     ;
(PID.TID 0000.0001) tempStepping =  /* Temperature equation on/off flag */
(PID.TID 0000.0001)                   T
(PID.TID 0000.0001)     ;
(PID.TID 0000.0001) tempAdvection=  /* Temperature advection on/off flag */
(PID.TID 0000.0001)                   T
(PID.TID 0000.0001)     ;
(PID.TID 0000.0001) tempImplVertAdv =/* Temp. implicit vert. advection on/off */
(PID.TID 0000.0001)                   F
(PID.TID 0000.0001)     ;
(PID.TID 0000.0001) tempForcing  =  /* Temperature forcing on/off flag */
(PID.TID 0000.0001)                   T
(PID.TID 0000.0001)     ;
(PID.TID 0000.0001) saltStepping =  /* Salinity equation on/off flag */
(PID.TID 0000.0001)                   T
(PID.TID 0000.0001)     ;
(PID.TID 0000.0001) saltAdvection=  /* Salinity advection on/off flag */
(PID.TID 0000.0001)                   T
(PID.TID 0000.0001)     ;
(PID.TID 0000.0001) saltImplVertAdv =/* Sali. implicit vert. advection on/off */
(PID.TID 0000.0001)                   F
(PID.TID 0000.0001)     ;
(PID.TID 0000.0001) saltForcing  =  /* Salinity forcing on/off flag */
(PID.TID 0000.0001)                   T
(PID.TID 0000.0001)     ;
(PID.TID 0000.0001) //
(PID.TID 0000.0001) // Elliptic solver(s) paramters ( PARM02 in namelist )
(PID.TID 0000.0001) //
(PID.TID 0000.0001) cg2dMaxIters =   /* Upper limit on 2d con. grad iterations  */
(PID.TID 0000.0001)                    1000
(PID.TID 0000.0001)     ;
(PID.TID 0000.0001) cg2dChkResFreq =   /* 2d con. grad convergence test frequency */
(PID.TID 0000.0001)                       1
(PID.TID 0000.0001)     ;
(PID.TID 0000.0001) cg2dTargetResidual =   /* 2d con. grad target residual  */
(PID.TID 0000.0001)                 9.999999999999999E-12
(PID.TID 0000.0001)     ;
(PID.TID 0000.0001) cg2dTargetResWunit =   /* CG2d target residual [W units] */
(PID.TID 0000.0001)                -1.000000000000000E+00
(PID.TID 0000.0001)     ;
(PID.TID 0000.0001) cg2dPreCondFreq =   /* Freq. for updating cg2d preconditioner */
(PID.TID 0000.0001)                       1
(PID.TID 0000.0001)     ;
(PID.TID 0000.0001) //
(PID.TID 0000.0001) // Time stepping paramters ( PARM03 in namelist )
(PID.TID 0000.0001) //
(PID.TID 0000.0001) nIter0 =   /* Base timestep number  */
(PID.TID 0000.0001)                       0
(PID.TID 0000.0001)     ;
(PID.TID 0000.0001) nTimeSteps =   /* Number of timesteps */
(PID.TID 0000.0001)                      20
(PID.TID 0000.0001)     ;
(PID.TID 0000.0001) deltatTmom =   /* Momentum equation timestep ( s ) */
(PID.TID 0000.0001)                 3.000000000000000E+02
(PID.TID 0000.0001)     ;
(PID.TID 0000.0001) deltaTfreesurf =   /* FreeSurface equation timestep ( s ) */
(PID.TID 0000.0001)                 3.000000000000000E+02
(PID.TID 0000.0001)     ;
(PID.TID 0000.0001) dTtracerLev =   /* Tracer equation timestep ( s ) */
(PID.TID 0000.0001)    25 @  3.000000000000000E+02              /* K =  1: 25 */
(PID.TID 0000.0001)     ;
(PID.TID 0000.0001) deltatTClock  =   /* Model clock timestep ( s ) */
(PID.TID 0000.0001)                 3.000000000000000E+02
(PID.TID 0000.0001)     ;
(PID.TID 0000.0001) cAdjFreq =   /* Convective adjustment interval ( s ) */
(PID.TID 0000.0001)                 0.000000000000000E+00
(PID.TID 0000.0001)     ;
(PID.TID 0000.0001) forcing_In_AB =   /* put T,S Forcing in Adams-Bash. stepping */
(PID.TID 0000.0001)                   T
(PID.TID 0000.0001)     ;
(PID.TID 0000.0001) abeps =   /* Adams-Bashforth stabilizing weight */
(PID.TID 0000.0001)                 1.000000000000000E-01
(PID.TID 0000.0001)     ;
(PID.TID 0000.0001) startTime =   /* Run start time ( s ). */
(PID.TID 0000.0001)                 0.000000000000000E+00
(PID.TID 0000.0001)     ;
(PID.TID 0000.0001) endTime =   /* Integration ending time ( s ). */
(PID.TID 0000.0001)                 6.000000000000000E+03
(PID.TID 0000.0001)     ;
(PID.TID 0000.0001) pChkPtFreq =   /* Permanent restart/checkpoint file interval ( s ). */
(PID.TID 0000.0001)                 0.000000000000000E+00
(PID.TID 0000.0001)     ;
(PID.TID 0000.0001) chkPtFreq =   /* Rolling restart/checkpoint file interval ( s ). */
(PID.TID 0000.0001)                 1.000000000000000E+05
(PID.TID 0000.0001)     ;
(PID.TID 0000.0001) pickup_write_mdsio =   /* Model IO flag. */
(PID.TID 0000.0001)                   T
(PID.TID 0000.0001)     ;
(PID.TID 0000.0001) pickup_read_mdsio =   /* Model IO flag. */
(PID.TID 0000.0001)                   T
(PID.TID 0000.0001)     ;
(PID.TID 0000.0001) pickup_write_immed =   /* Model IO flag. */
(PID.TID 0000.0001)                   F
(PID.TID 0000.0001)     ;
(PID.TID 0000.0001) dumpFreq =   /* Model state write out interval ( s ). */
(PID.TID 0000.0001)                 3.000000000000000E+04
(PID.TID 0000.0001)     ;
(PID.TID 0000.0001) snapshot_mdsio =   /* Model IO flag. */
(PID.TID 0000.0001)                   T
(PID.TID 0000.0001)     ;
(PID.TID 0000.0001) monitorFreq =   /* Monitor output interval ( s ). */
(PID.TID 0000.0001)                 3.000000000000000E+02
(PID.TID 0000.0001)     ;
(PID.TID 0000.0001) monitor_stdio =   /* Model IO flag. */
(PID.TID 0000.0001)                   T
(PID.TID 0000.0001)     ;
(PID.TID 0000.0001) externForcingPeriod =   /* forcing period (s) */
(PID.TID 0000.0001)                 0.000000000000000E+00
(PID.TID 0000.0001)     ;
(PID.TID 0000.0001) externForcingCycle =   /* period of the cyle (s). */
(PID.TID 0000.0001)                 0.000000000000000E+00
(PID.TID 0000.0001)     ;
(PID.TID 0000.0001) tauThetaClimRelax =   /* relaxation time scale (s) */
(PID.TID 0000.0001)                 0.000000000000000E+00
(PID.TID 0000.0001)     ;
(PID.TID 0000.0001) tauSaltClimRelax =   /* relaxation time scale (s) */
(PID.TID 0000.0001)                 0.000000000000000E+00
(PID.TID 0000.0001)     ;
(PID.TID 0000.0001) latBandClimRelax =   /* max. Lat. where relaxation */
(PID.TID 0000.0001)                 8.818410084852436E+07
(PID.TID 0000.0001)     ;
(PID.TID 0000.0001) //
(PID.TID 0000.0001) // Gridding paramters ( PARM04 in namelist )
(PID.TID 0000.0001) //
(PID.TID 0000.0001) usingCartesianGrid =   /* Cartesian coordinates flag ( True / False ) */
(PID.TID 0000.0001)                   T
(PID.TID 0000.0001)     ;
(PID.TID 0000.0001) usingSphericalPolarGrid =   /* Spherical coordinates flag ( True / False ) */
(PID.TID 0000.0001)                   F
(PID.TID 0000.0001)     ;
(PID.TID 0000.0001) usingCylindricalGrid =   /* Spherical coordinates flag ( True / False ) */
(PID.TID 0000.0001)                   F
(PID.TID 0000.0001)     ;
(PID.TID 0000.0001) groundAtK1 =   /* Lower Boundary (ground) at the surface(k=1) ( T / F ) */
(PID.TID 0000.0001)                   F
(PID.TID 0000.0001)     ;
(PID.TID 0000.0001) Ro_SeaLevel =   /* r(1) ( units of r ) */
(PID.TID 0000.0001)                 0.000000000000000E+00
(PID.TID 0000.0001)     ;
(PID.TID 0000.0001) rkFac =   /* minus Vertical index orientation  */
(PID.TID 0000.0001)                 1.000000000000000E+00
(PID.TID 0000.0001)     ;
(PID.TID 0000.0001) horiVertRatio =   /* Ratio on units : Horiz - Vertical */
(PID.TID 0000.0001)                 1.000000000000000E+00
(PID.TID 0000.0001)     ;
(PID.TID 0000.0001) drC =   /* C spacing ( units of r ) */
(PID.TID 0000.0001)                 7.200000000000000E+01,      /* K =  1 */
(PID.TID 0000.0001)    24 @  1.440000000000000E+02              /* K =  2: 25 */
(PID.TID 0000.0001)     ;
(PID.TID 0000.0001) drF =   /* W spacing ( units of r ) */
(PID.TID 0000.0001)    25 @  1.440000000000000E+02              /* K =  1: 25 */
(PID.TID 0000.0001)     ;
(PID.TID 0000.0001) delX =   /* U spacing ( m - cartesian, degrees - spherical ) */
(PID.TID 0000.0001)   200 @  1.000000000000000E+04              /* I =  1:200 */
(PID.TID 0000.0001)     ;
(PID.TID 0000.0001) delY =   /* V spacing ( m - cartesian, degrees - spherical ) */
(PID.TID 0000.0001)                 4.354770412272808E+04,      /* J =  1 */
(PID.TID 0000.0001)                 3.976328763529614E+04,      /* J =  2 */
(PID.TID 0000.0001)                 3.845253979986927E+04,      /* J =  3 */
(PID.TID 0000.0001)                 3.330179774422351E+04,      /* J =  4 */
(PID.TID 0000.0001)                 2.498218561664100E+04,      /* J =  5 */
(PID.TID 0000.0001)                 1.850347835747289E+04,      /* J =  6 */
(PID.TID 0000.0001)                 1.476940894853175E+04,      /* J =  7 */
(PID.TID 0000.0001)                 1.272781949244290E+04,      /* J =  8 */
(PID.TID 0000.0001)                 1.159189758968330E+04,      /* J =  9 */
(PID.TID 0000.0001)                 1.094219501627191E+04,      /* J = 10 */
(PID.TID 0000.0001)                 1.056279034603045E+04,      /* J = 11 */
(PID.TID 0000.0001)                 1.033823866459392E+04,      /* J = 12 */
(PID.TID 0000.0001)                 1.020398171822501E+04,      /* J = 13 */
(PID.TID 0000.0001)                 1.012328472029299E+04,      /* J = 14 */
(PID.TID 0000.0001)                 1.007461407944328E+04,      /* J = 15 */
(PID.TID 0000.0001)                 1.004519587625975E+04,      /* J = 16 */
(PID.TID 0000.0001)                 1.002739060034890E+04,      /* J = 17 */
(PID.TID 0000.0001)                 1.001660509967246E+04,      /* J = 18 */
(PID.TID 0000.0001)                 1.001006850448283E+04,      /* J = 19 */
(PID.TID 0000.0001)                 1.000610575317793E+04,      /* J = 20 */
(PID.TID 0000.0001)                 1.000370292038679E+04,      /* J = 21 */
(PID.TID 0000.0001)                 1.000224578530626E+04,      /* J = 22 */
(PID.TID 0000.0001)                 1.000136208265968E+04,      /* J = 23 */
(PID.TID 0000.0001)                 1.000082612466494E+04,      /* J = 24 */
(PID.TID 0000.0001)                 1.000050106249572E+04,      /* J = 25 */
(PID.TID 0000.0001)                 1.000030390702810E+04,      /* J = 26 */
(PID.TID 0000.0001)                 1.000018432792299E+04,      /* J = 27 */
(PID.TID 0000.0001)                 1.000011180016617E+04,      /* J = 28 */
(PID.TID 0000.0001)                 1.000006781009222E+04,      /* J = 29 */
(PID.TID 0000.0001)                 1.000004112884983E+04,      /* J = 30 */
(PID.TID 0000.0001)                 1.000002494588998E+04,      /* J = 31 */
(PID.TID 0000.0001)                 1.000001513044032E+04,      /* J = 32 */
(PID.TID 0000.0001)                 1.000000917707345E+04,      /* J = 33 */
(PID.TID 0000.0001)                 1.000000556617549E+04,      /* J = 34 */
(PID.TID 0000.0001)                 1.000000337605576E+04,      /* J = 35 */
(PID.TID 0000.0001)                 1.000000204768121E+04,      /* J = 36 */
(PID.TID 0000.0001)                 1.000000124198138E+04,      /* J = 37 */
(PID.TID 0000.0001)                 1.000000075329977E+04,      /* J = 38 */
(PID.TID 0000.0001)                 1.000000045689940E+04,      /* J = 39 */
(PID.TID 0000.0001)                 1.000000027712349E+04,      /* J = 40 */
(PID.TID 0000.0001)                 1.000000016808389E+04,      /* J = 41 */
(PID.TID 0000.0001)                 1.000000010194804E+04,      /* J = 42 */
(PID.TID 0000.0001)                 1.000000006183461E+04,      /* J = 43 */
(PID.TID 0000.0001)                 1.000000003750459E+04,      /* J = 44 */
(PID.TID 0000.0001)                 1.000000002274768E+04       /* J = 45 */
(PID.TID 0000.0001)     ;
(PID.TID 0000.0001) phiMin =    /* South edge (ignored - cartesian, degrees - spherical ) */
(PID.TID 0000.0001)                 0.000000000000000E+00
(PID.TID 0000.0001)     ;
(PID.TID 0000.0001) thetaMin =    /* West edge ( ignored - cartesian, degrees - spherical ) */
(PID.TID 0000.0001)                 0.000000000000000E+00
(PID.TID 0000.0001)     ;
(PID.TID 0000.0001) rSphere =    /* Radius ( ignored - cartesian, m - spherical ) */
(PID.TID 0000.0001)                 6.370000000000000E+06
(PID.TID 0000.0001)     ;
(PID.TID 0000.0001) xcoord =   /* P-point X coord ( m - cartesian, degrees - spherical ) */
(PID.TID 0000.0001)                 5.000000000000000E+03,      /* I =  1 */
(PID.TID 0000.0001)                 1.500000000000000E+04,      /* I =  2 */
(PID.TID 0000.0001)                 2.500000000000000E+04,      /* I =  3 */
(PID.TID 0000.0001)                 3.500000000000000E+04,      /* I =  4 */
(PID.TID 0000.0001)                 4.500000000000000E+04,      /* I =  5 */
(PID.TID 0000.0001)                 5.500000000000000E+04,      /* I =  6 */
(PID.TID 0000.0001)                 6.500000000000000E+04,      /* I =  7 */
(PID.TID 0000.0001)                 7.500000000000000E+04,      /* I =  8 */
(PID.TID 0000.0001)                 8.500000000000000E+04,      /* I =  9 */
(PID.TID 0000.0001)                 9.500000000000000E+04,      /* I = 10 */
(PID.TID 0000.0001)                 1.050000000000000E+05,      /* I = 11 */
(PID.TID 0000.0001)                 1.150000000000000E+05,      /* I = 12 */
(PID.TID 0000.0001)                 1.250000000000000E+05,      /* I = 13 */
(PID.TID 0000.0001)                 1.350000000000000E+05,      /* I = 14 */
(PID.TID 0000.0001)                 1.450000000000000E+05,      /* I = 15 */
(PID.TID 0000.0001)                 1.550000000000000E+05,      /* I = 16 */
(PID.TID 0000.0001)                 1.650000000000000E+05,      /* I = 17 */
(PID.TID 0000.0001)                 1.750000000000000E+05,      /* I = 18 */
(PID.TID 0000.0001)                 1.850000000000000E+05,      /* I = 19 */
(PID.TID 0000.0001)                 1.950000000000000E+05,      /* I = 20 */
(PID.TID 0000.0001)                 2.050000000000000E+05,      /* I = 21 */
(PID.TID 0000.0001)                 2.150000000000000E+05,      /* I = 22 */
(PID.TID 0000.0001)                 2.250000000000000E+05,      /* I = 23 */
(PID.TID 0000.0001)                 2.350000000000000E+05,      /* I = 24 */
(PID.TID 0000.0001)                 2.450000000000000E+05,      /* I = 25 */
(PID.TID 0000.0001)                 2.550000000000000E+05,      /* I = 26 */
(PID.TID 0000.0001)                 2.650000000000000E+05,      /* I = 27 */
(PID.TID 0000.0001)                 2.750000000000000E+05,      /* I = 28 */
(PID.TID 0000.0001)                 2.850000000000000E+05,      /* I = 29 */
(PID.TID 0000.0001)                 2.950000000000000E+05,      /* I = 30 */
(PID.TID 0000.0001)                 3.050000000000000E+05,      /* I = 31 */
(PID.TID 0000.0001)                 3.150000000000000E+05,      /* I = 32 */
(PID.TID 0000.0001)                 3.250000000000000E+05,      /* I = 33 */
(PID.TID 0000.0001)                 3.350000000000000E+05,      /* I = 34 */
(PID.TID 0000.0001)                 3.450000000000000E+05,      /* I = 35 */
(PID.TID 0000.0001)                 3.550000000000000E+05,      /* I = 36 */
(PID.TID 0000.0001)                 3.650000000000000E+05,      /* I = 37 */
(PID.TID 0000.0001)                 3.750000000000000E+05,      /* I = 38 */
(PID.TID 0000.0001)                 3.850000000000000E+05,      /* I = 39 */
(PID.TID 0000.0001)                 3.950000000000000E+05,      /* I = 40 */
(PID.TID 0000.0001)                 4.050000000000000E+05,      /* I = 41 */
(PID.TID 0000.0001)                 4.150000000000000E+05,      /* I = 42 */
(PID.TID 0000.0001)                 4.250000000000000E+05,      /* I = 43 */
(PID.TID 0000.0001)                 4.350000000000000E+05,      /* I = 44 */
(PID.TID 0000.0001)                 4.450000000000000E+05,      /* I = 45 */
(PID.TID 0000.0001)                 4.550000000000000E+05,      /* I = 46 */
(PID.TID 0000.0001)                 4.650000000000000E+05,      /* I = 47 */
(PID.TID 0000.0001)                 4.750000000000000E+05,      /* I = 48 */
(PID.TID 0000.0001)                 4.850000000000000E+05,      /* I = 49 */
(PID.TID 0000.0001)                 4.950000000000000E+05,      /* I = 50 */
(PID.TID 0000.0001)                 5.050000000000000E+05,      /* I = 51 */
(PID.TID 0000.0001)                 5.150000000000000E+05,      /* I = 52 */
(PID.TID 0000.0001)                 5.250000000000000E+05,      /* I = 53 */
(PID.TID 0000.0001)                 5.350000000000000E+05,      /* I = 54 */
(PID.TID 0000.0001)                 5.450000000000000E+05,      /* I = 55 */
(PID.TID 0000.0001)                 5.550000000000000E+05,      /* I = 56 */
(PID.TID 0000.0001)                 5.650000000000000E+05,      /* I = 57 */
(PID.TID 0000.0001)                 5.750000000000000E+05,      /* I = 58 */
(PID.TID 0000.0001)                 5.850000000000000E+05,      /* I = 59 */
(PID.TID 0000.0001)                 5.950000000000000E+05,      /* I = 60 */
(PID.TID 0000.0001)                 6.050000000000000E+05,      /* I = 61 */
(PID.TID 0000.0001)                 6.150000000000000E+05,      /* I = 62 */
(PID.TID 0000.0001)                 6.250000000000000E+05,      /* I = 63 */
(PID.TID 0000.0001)                 6.350000000000000E+05,      /* I = 64 */
(PID.TID 0000.0001)                 6.450000000000000E+05,      /* I = 65 */
(PID.TID 0000.0001)                 6.550000000000000E+05,      /* I = 66 */
(PID.TID 0000.0001)                 6.650000000000000E+05,      /* I = 67 */
(PID.TID 0000.0001)                 6.750000000000000E+05,      /* I = 68 */
(PID.TID 0000.0001)                 6.850000000000000E+05,      /* I = 69 */
(PID.TID 0000.0001)                 6.950000000000000E+05,      /* I = 70 */
(PID.TID 0000.0001)                 7.050000000000000E+05,      /* I = 71 */
(PID.TID 0000.0001)                 7.150000000000000E+05,      /* I = 72 */
(PID.TID 0000.0001)                 7.250000000000000E+05,      /* I = 73 */
(PID.TID 0000.0001)                 7.350000000000000E+05,      /* I = 74 */
(PID.TID 0000.0001)                 7.450000000000000E+05,      /* I = 75 */
(PID.TID 0000.0001)                 7.550000000000000E+05,      /* I = 76 */
(PID.TID 0000.0001)                 7.650000000000000E+05,      /* I = 77 */
(PID.TID 0000.0001)                 7.750000000000000E+05,      /* I = 78 */
(PID.TID 0000.0001)                 7.850000000000000E+05,      /* I = 79 */
(PID.TID 0000.0001)                 7.950000000000000E+05,      /* I = 80 */
(PID.TID 0000.0001)                 8.050000000000000E+05,      /* I = 81 */
(PID.TID 0000.0001)                 8.150000000000000E+05,      /* I = 82 */
(PID.TID 0000.0001)                 8.250000000000000E+05,      /* I = 83 */
(PID.TID 0000.0001)                 8.350000000000000E+05,      /* I = 84 */
(PID.TID 0000.0001)                 8.450000000000000E+05,      /* I = 85 */
(PID.TID 0000.0001)                 8.550000000000000E+05,      /* I = 86 */
(PID.TID 0000.0001)                 8.650000000000000E+05,      /* I = 87 */
(PID.TID 0000.0001)                 8.750000000000000E+05,      /* I = 88 */
(PID.TID 0000.0001)                 8.850000000000000E+05,      /* I = 89 */
(PID.TID 0000.0001)                 8.950000000000000E+05,      /* I = 90 */
(PID.TID 0000.0001)                 9.050000000000000E+05,      /* I = 91 */
(PID.TID 0000.0001)                 9.150000000000000E+05,      /* I = 92 */
(PID.TID 0000.0001)                 9.250000000000000E+05,      /* I = 93 */
(PID.TID 0000.0001)                 9.350000000000000E+05,      /* I = 94 */
(PID.TID 0000.0001)                 9.450000000000000E+05,      /* I = 95 */
(PID.TID 0000.0001)                 9.550000000000000E+05,      /* I = 96 */
(PID.TID 0000.0001)                 9.650000000000000E+05,      /* I = 97 */
(PID.TID 0000.0001)                 9.750000000000000E+05,      /* I = 98 */
(PID.TID 0000.0001)                 9.850000000000000E+05,      /* I = 99 */
(PID.TID 0000.0001)                 9.950000000000000E+05,      /* I =100 */
(PID.TID 0000.0001)                 1.005000000000000E+06,      /* I =101 */
(PID.TID 0000.0001)                 1.015000000000000E+06,      /* I =102 */
(PID.TID 0000.0001)                 1.025000000000000E+06,      /* I =103 */
(PID.TID 0000.0001)                 1.035000000000000E+06,      /* I =104 */
(PID.TID 0000.0001)                 1.045000000000000E+06,      /* I =105 */
(PID.TID 0000.0001)                 1.055000000000000E+06,      /* I =106 */
(PID.TID 0000.0001)                 1.065000000000000E+06,      /* I =107 */
(PID.TID 0000.0001)                 1.075000000000000E+06,      /* I =108 */
(PID.TID 0000.0001)                 1.085000000000000E+06,      /* I =109 */
(PID.TID 0000.0001)                 1.095000000000000E+06,      /* I =110 */
(PID.TID 0000.0001)                 1.105000000000000E+06,      /* I =111 */
(PID.TID 0000.0001)                 1.115000000000000E+06,      /* I =112 */
(PID.TID 0000.0001)                 1.125000000000000E+06,      /* I =113 */
(PID.TID 0000.0001)                 1.135000000000000E+06,      /* I =114 */
(PID.TID 0000.0001)                 1.145000000000000E+06,      /* I =115 */
(PID.TID 0000.0001)                 1.155000000000000E+06,      /* I =116 */
(PID.TID 0000.0001)                 1.165000000000000E+06,      /* I =117 */
(PID.TID 0000.0001)                 1.175000000000000E+06,      /* I =118 */
(PID.TID 0000.0001)                 1.185000000000000E+06,      /* I =119 */
(PID.TID 0000.0001)                 1.195000000000000E+06,      /* I =120 */
(PID.TID 0000.0001)                 1.205000000000000E+06,      /* I =121 */
(PID.TID 0000.0001)                 1.215000000000000E+06,      /* I =122 */
(PID.TID 0000.0001)                 1.225000000000000E+06,      /* I =123 */
(PID.TID 0000.0001)                 1.235000000000000E+06,      /* I =124 */
(PID.TID 0000.0001)                 1.245000000000000E+06,      /* I =125 */
(PID.TID 0000.0001)                 1.255000000000000E+06,      /* I =126 */
(PID.TID 0000.0001)                 1.265000000000000E+06,      /* I =127 */
(PID.TID 0000.0001)                 1.275000000000000E+06,      /* I =128 */
(PID.TID 0000.0001)                 1.285000000000000E+06,      /* I =129 */
(PID.TID 0000.0001)                 1.295000000000000E+06,      /* I =130 */
(PID.TID 0000.0001)                 1.305000000000000E+06,      /* I =131 */
(PID.TID 0000.0001)                 1.315000000000000E+06,      /* I =132 */
(PID.TID 0000.0001)                 1.325000000000000E+06,      /* I =133 */
(PID.TID 0000.0001)                 1.335000000000000E+06,      /* I =134 */
(PID.TID 0000.0001)                 1.345000000000000E+06,      /* I =135 */
(PID.TID 0000.0001)                 1.355000000000000E+06,      /* I =136 */
(PID.TID 0000.0001)                 1.365000000000000E+06,      /* I =137 */
(PID.TID 0000.0001)                 1.375000000000000E+06,      /* I =138 */
(PID.TID 0000.0001)                 1.385000000000000E+06,      /* I =139 */
(PID.TID 0000.0001)                 1.395000000000000E+06,      /* I =140 */
(PID.TID 0000.0001)                 1.405000000000000E+06,      /* I =141 */
(PID.TID 0000.0001)                 1.415000000000000E+06,      /* I =142 */
(PID.TID 0000.0001)                 1.425000000000000E+06,      /* I =143 */
(PID.TID 0000.0001)                 1.435000000000000E+06,      /* I =144 */
(PID.TID 0000.0001)                 1.445000000000000E+06,      /* I =145 */
(PID.TID 0000.0001)                 1.455000000000000E+06,      /* I =146 */
(PID.TID 0000.0001)                 1.465000000000000E+06,      /* I =147 */
(PID.TID 0000.0001)                 1.475000000000000E+06,      /* I =148 */
(PID.TID 0000.0001)                 1.485000000000000E+06,      /* I =149 */
(PID.TID 0000.0001)                 1.495000000000000E+06,      /* I =150 */
(PID.TID 0000.0001)                 1.505000000000000E+06,      /* I =151 */
(PID.TID 0000.0001)                 1.515000000000000E+06,      /* I =152 */
(PID.TID 0000.0001)                 1.525000000000000E+06,      /* I =153 */
(PID.TID 0000.0001)                 1.535000000000000E+06,      /* I =154 */
(PID.TID 0000.0001)                 1.545000000000000E+06,      /* I =155 */
(PID.TID 0000.0001)                 1.555000000000000E+06,      /* I =156 */
(PID.TID 0000.0001)                 1.565000000000000E+06,      /* I =157 */
(PID.TID 0000.0001)                 1.575000000000000E+06,      /* I =158 */
(PID.TID 0000.0001)                 1.585000000000000E+06,      /* I =159 */
(PID.TID 0000.0001)                 1.595000000000000E+06,      /* I =160 */
(PID.TID 0000.0001)                 1.605000000000000E+06,      /* I =161 */
(PID.TID 0000.0001)                 1.615000000000000E+06,      /* I =162 */
(PID.TID 0000.0001)                 1.625000000000000E+06,      /* I =163 */
(PID.TID 0000.0001)                 1.635000000000000E+06,      /* I =164 */
(PID.TID 0000.0001)                 1.645000000000000E+06,      /* I =165 */
(PID.TID 0000.0001)                 1.655000000000000E+06,      /* I =166 */
(PID.TID 0000.0001)                 1.665000000000000E+06,      /* I =167 */
(PID.TID 0000.0001)                 1.675000000000000E+06,      /* I =168 */
(PID.TID 0000.0001)                 1.685000000000000E+06,      /* I =169 */
(PID.TID 0000.0001)                 1.695000000000000E+06,      /* I =170 */
(PID.TID 0000.0001)                 1.705000000000000E+06,      /* I =171 */
(PID.TID 0000.0001)                 1.715000000000000E+06,      /* I =172 */
(PID.TID 0000.0001)                 1.725000000000000E+06,      /* I =173 */
(PID.TID 0000.0001)                 1.735000000000000E+06,      /* I =174 */
(PID.TID 0000.0001)                 1.745000000000000E+06,      /* I =175 */
(PID.TID 0000.0001)                 1.755000000000000E+06,      /* I =176 */
(PID.TID 0000.0001)                 1.765000000000000E+06,      /* I =177 */
(PID.TID 0000.0001)                 1.775000000000000E+06,      /* I =178 */
(PID.TID 0000.0001)                 1.785000000000000E+06,      /* I =179 */
(PID.TID 0000.0001)                 1.795000000000000E+06,      /* I =180 */
(PID.TID 0000.0001)                 1.805000000000000E+06,      /* I =181 */
(PID.TID 0000.0001)                 1.815000000000000E+06,      /* I =182 */
(PID.TID 0000.0001)                 1.825000000000000E+06,      /* I =183 */
(PID.TID 0000.0001)                 1.835000000000000E+06,      /* I =184 */
(PID.TID 0000.0001)                 1.845000000000000E+06,      /* I =185 */
(PID.TID 0000.0001)                 1.855000000000000E+06,      /* I =186 */
(PID.TID 0000.0001)                 1.865000000000000E+06,      /* I =187 */
(PID.TID 0000.0001)                 1.875000000000000E+06,      /* I =188 */
(PID.TID 0000.0001)                 1.885000000000000E+06,      /* I =189 */
(PID.TID 0000.0001)                 1.895000000000000E+06,      /* I =190 */
(PID.TID 0000.0001)                 1.905000000000000E+06,      /* I =191 */
(PID.TID 0000.0001)                 1.915000000000000E+06,      /* I =192 */
(PID.TID 0000.0001)                 1.925000000000000E+06,      /* I =193 */
(PID.TID 0000.0001)                 1.935000000000000E+06,      /* I =194 */
(PID.TID 0000.0001)                 1.945000000000000E+06,      /* I =195 */
(PID.TID 0000.0001)                 1.955000000000000E+06,      /* I =196 */
(PID.TID 0000.0001)                 1.965000000000000E+06,      /* I =197 */
(PID.TID 0000.0001)                 1.975000000000000E+06,      /* I =198 */
(PID.TID 0000.0001)                 1.985000000000000E+06,      /* I =199 */
(PID.TID 0000.0001)                 1.995000000000000E+06       /* I =200 */
(PID.TID 0000.0001)     ;
(PID.TID 0000.0001) ycoord =   /* P-point Y coord ( m - cartesian, degrees - spherical ) */
(PID.TID 0000.0001)                 2.177385206136404E+04,      /* J =  1 */
(PID.TID 0000.0001)                 6.342934794037614E+04,      /* J =  2 */
(PID.TID 0000.0001)                 1.025372616579589E+05,      /* J =  3 */
(PID.TID 0000.0001)                 1.384144304300052E+05,      /* J =  4 */
(PID.TID 0000.0001)                 1.675564221104375E+05,      /* J =  5 */
(PID.TID 0000.0001)                 1.892992540974944E+05,      /* J =  6 */
(PID.TID 0000.0001)                 2.059356977504968E+05,      /* J =  7 */
(PID.TID 0000.0001)                 2.196843119709841E+05,      /* J =  8 */
(PID.TID 0000.0001)                 2.318441705120472E+05,      /* J =  9 */
(PID.TID 0000.0001)                 2.431112168150248E+05,      /* J = 10 */
(PID.TID 0000.0001)                 2.538637094961760E+05,      /* J = 11 */
(PID.TID 0000.0001)                 2.643142240014882E+05,      /* J = 12 */
(PID.TID 0000.0001)                 2.745853341928977E+05,      /* J = 13 */
(PID.TID 0000.0001)                 2.847489674121566E+05,      /* J = 14 */
(PID.TID 0000.0001)                 2.948479168120248E+05,      /* J = 15 */
(PID.TID 0000.0001)                 3.049078217898763E+05,      /* J = 16 */
(PID.TID 0000.0001)                 3.149441150281806E+05,      /* J = 17 */
(PID.TID 0000.0001)                 3.249661128781913E+05,      /* J = 18 */
(PID.TID 0000.0001)                 3.349794496802689E+05,      /* J = 19 */
(PID.TID 0000.0001)                 3.449875368090993E+05,      /* J = 20 */
(PID.TID 0000.0001)                 3.549924411458817E+05,      /* J = 21 */
(PID.TID 0000.0001)                 3.649954154987283E+05,      /* J = 22 */
(PID.TID 0000.0001)                 3.749972194327112E+05,      /* J = 23 */
(PID.TID 0000.0001)                 3.849983135363735E+05,      /* J = 24 */
(PID.TID 0000.0001)                 3.949989771299539E+05,      /* J = 25 */
(PID.TID 0000.0001)                 4.049993796147157E+05,      /* J = 26 */
(PID.TID 0000.0001)                 4.149996237321913E+05,      /* J = 27 */
(PID.TID 0000.0001)                 4.249997717962359E+05,      /* J = 28 */
(PID.TID 0000.0001)                 4.349998616013651E+05,      /* J = 29 */
(PID.TID 0000.0001)                 4.449999160708361E+05,      /* J = 30 */
(PID.TID 0000.0001)                 4.549999491082060E+05,      /* J = 31 */
(PID.TID 0000.0001)                 4.649999691463711E+05,      /* J = 32 */
(PID.TID 0000.0001)                 4.749999813001280E+05,      /* J = 33 */
(PID.TID 0000.0001)                 4.849999886717524E+05,      /* J = 34 */
(PID.TID 0000.0001)                 4.949999931428681E+05,      /* J = 35 */
(PID.TID 0000.0001)                 5.049999958547366E+05,      /* J = 36 */
(PID.TID 0000.0001)                 5.149999974995678E+05,      /* J = 37 */
(PID.TID 0000.0001)                 5.249999984972085E+05,      /* J = 38 */
(PID.TID 0000.0001)                 5.349999991023081E+05,      /* J = 39 */
(PID.TID 0000.0001)                 5.449999994693196E+05,      /* J = 40 */
(PID.TID 0000.0001)                 5.549999996919233E+05,      /* J = 41 */
(PID.TID 0000.0001)                 5.649999998269393E+05,      /* J = 42 */
(PID.TID 0000.0001)                 5.749999999088305E+05,      /* J = 43 */
(PID.TID 0000.0001)                 5.849999999585001E+05,      /* J = 44 */
(PID.TID 0000.0001)                 5.949999999886262E+05       /* J = 45 */
(PID.TID 0000.0001)     ;
(PID.TID 0000.0001) rcoord =   /* P-point R coordinate (  units of r ) */
(PID.TID 0000.0001)                -7.200000000000000E+01,      /* K =  1 */
(PID.TID 0000.0001)                -2.160000000000000E+02,      /* K =  2 */
(PID.TID 0000.0001)                -3.600000000000000E+02,      /* K =  3 */
(PID.TID 0000.0001)                -5.040000000000000E+02,      /* K =  4 */
(PID.TID 0000.0001)                -6.480000000000000E+02,      /* K =  5 */
(PID.TID 0000.0001)                -7.920000000000000E+02,      /* K =  6 */
(PID.TID 0000.0001)                -9.360000000000000E+02,      /* K =  7 */
(PID.TID 0000.0001)                -1.080000000000000E+03,      /* K =  8 */
(PID.TID 0000.0001)                -1.224000000000000E+03,      /* K =  9 */
(PID.TID 0000.0001)                -1.368000000000000E+03,      /* K = 10 */
(PID.TID 0000.0001)                -1.512000000000000E+03,      /* K = 11 */
(PID.TID 0000.0001)                -1.656000000000000E+03,      /* K = 12 */
(PID.TID 0000.0001)                -1.800000000000000E+03,      /* K = 13 */
(PID.TID 0000.0001)                -1.944000000000000E+03,      /* K = 14 */
(PID.TID 0000.0001)                -2.088000000000000E+03,      /* K = 15 */
(PID.TID 0000.0001)                -2.232000000000000E+03,      /* K = 16 */
(PID.TID 0000.0001)                -2.376000000000000E+03,      /* K = 17 */
(PID.TID 0000.0001)                -2.520000000000000E+03,      /* K = 18 */
(PID.TID 0000.0001)                -2.664000000000000E+03,      /* K = 19 */
(PID.TID 0000.0001)                -2.808000000000000E+03,      /* K = 20 */
(PID.TID 0000.0001)                -2.952000000000000E+03,      /* K = 21 */
(PID.TID 0000.0001)                -3.096000000000000E+03,      /* K = 22 */
(PID.TID 0000.0001)                -3.240000000000000E+03,      /* K = 23 */
(PID.TID 0000.0001)                -3.384000000000000E+03,      /* K = 24 */
(PID.TID 0000.0001)                -3.528000000000000E+03       /* K = 25 */
(PID.TID 0000.0001)     ;
(PID.TID 0000.0001) rF =   /* W-Interf. R coordinate (  units of r ) */
(PID.TID 0000.0001)                 0.000000000000000E+00,      /* K =  1 */
(PID.TID 0000.0001)                -1.440000000000000E+02,      /* K =  2 */
(PID.TID 0000.0001)                -2.880000000000000E+02,      /* K =  3 */
(PID.TID 0000.0001)                -4.320000000000000E+02,      /* K =  4 */
(PID.TID 0000.0001)                -5.760000000000000E+02,      /* K =  5 */
(PID.TID 0000.0001)                -7.200000000000000E+02,      /* K =  6 */
(PID.TID 0000.0001)                -8.640000000000000E+02,      /* K =  7 */
(PID.TID 0000.0001)                -1.008000000000000E+03,      /* K =  8 */
(PID.TID 0000.0001)                -1.152000000000000E+03,      /* K =  9 */
(PID.TID 0000.0001)                -1.296000000000000E+03,      /* K = 10 */
(PID.TID 0000.0001)                -1.440000000000000E+03,      /* K = 11 */
(PID.TID 0000.0001)                -1.584000000000000E+03,      /* K = 12 */
(PID.TID 0000.0001)                -1.728000000000000E+03,      /* K = 13 */
(PID.TID 0000.0001)                -1.872000000000000E+03,      /* K = 14 */
(PID.TID 0000.0001)                -2.016000000000000E+03,      /* K = 15 */
(PID.TID 0000.0001)                -2.160000000000000E+03,      /* K = 16 */
(PID.TID 0000.0001)                -2.304000000000000E+03,      /* K = 17 */
(PID.TID 0000.0001)                -2.448000000000000E+03,      /* K = 18 */
(PID.TID 0000.0001)                -2.592000000000000E+03,      /* K = 19 */
(PID.TID 0000.0001)                -2.736000000000000E+03,      /* K = 20 */
(PID.TID 0000.0001)                -2.880000000000000E+03,      /* K = 21 */
(PID.TID 0000.0001)                -3.024000000000000E+03,      /* K = 22 */
(PID.TID 0000.0001)                -3.168000000000000E+03,      /* K = 23 */
(PID.TID 0000.0001)                -3.312000000000000E+03,      /* K = 24 */
(PID.TID 0000.0001)                -3.456000000000000E+03,      /* K = 25 */
(PID.TID 0000.0001)                -3.600000000000000E+03       /* K = 26 */
(PID.TID 0000.0001)     ;
(PID.TID 0000.0001) dxF =  /* dxF(:,1,:,1) ( m - cartesian, degrees - spherical ) */
(PID.TID 0000.0001)   200 @  1.000000000000000E+04              /* I =  1:200 */
(PID.TID 0000.0001)     ;
(PID.TID 0000.0001) dxF =  /* dxF(1,:,1,:) ( m - cartesian, degrees - spherical ) */
(PID.TID 0000.0001)    45 @  1.000000000000000E+04              /* J =  1: 45 */
(PID.TID 0000.0001)     ;
(PID.TID 0000.0001) dyF =  /* dyF(:,1,:,1) ( m - cartesian, degrees - spherical ) */
(PID.TID 0000.0001)   200 @  4.354770412272808E+04              /* I =  1:200 */
(PID.TID 0000.0001)     ;
(PID.TID 0000.0001) dyF =  /* dyF(1,:,1,:) ( m - cartesian, degrees - spherical ) */
(PID.TID 0000.0001)                 4.354770412272808E+04,      /* J =  1 */
(PID.TID 0000.0001)                 3.976328763529614E+04,      /* J =  2 */
(PID.TID 0000.0001)                 3.845253979986927E+04,      /* J =  3 */
(PID.TID 0000.0001)                 3.330179774422351E+04,      /* J =  4 */
(PID.TID 0000.0001)                 2.498218561664100E+04,      /* J =  5 */
(PID.TID 0000.0001)                 1.850347835747289E+04,      /* J =  6 */
(PID.TID 0000.0001)                 1.476940894853175E+04,      /* J =  7 */
(PID.TID 0000.0001)                 1.272781949244290E+04,      /* J =  8 */
(PID.TID 0000.0001)                 1.159189758968330E+04,      /* J =  9 */
(PID.TID 0000.0001)                 1.094219501627191E+04,      /* J = 10 */
(PID.TID 0000.0001)                 1.056279034603045E+04,      /* J = 11 */
(PID.TID 0000.0001)                 1.033823866459392E+04,      /* J = 12 */
(PID.TID 0000.0001)                 1.020398171822501E+04,      /* J = 13 */
(PID.TID 0000.0001)                 1.012328472029299E+04,      /* J = 14 */
(PID.TID 0000.0001)                 1.007461407944328E+04,      /* J = 15 */
(PID.TID 0000.0001)                 1.004519587625975E+04,      /* J = 16 */
(PID.TID 0000.0001)                 1.002739060034890E+04,      /* J = 17 */
(PID.TID 0000.0001)                 1.001660509967246E+04,      /* J = 18 */
(PID.TID 0000.0001)                 1.001006850448283E+04,      /* J = 19 */
(PID.TID 0000.0001)                 1.000610575317793E+04,      /* J = 20 */
(PID.TID 0000.0001)                 1.000370292038679E+04,      /* J = 21 */
(PID.TID 0000.0001)                 1.000224578530626E+04,      /* J = 22 */
(PID.TID 0000.0001)                 1.000136208265968E+04,      /* J = 23 */
(PID.TID 0000.0001)                 1.000082612466494E+04,      /* J = 24 */
(PID.TID 0000.0001)                 1.000050106249572E+04,      /* J = 25 */
(PID.TID 0000.0001)                 1.000030390702810E+04,      /* J = 26 */
(PID.TID 0000.0001)                 1.000018432792299E+04,      /* J = 27 */
(PID.TID 0000.0001)                 1.000011180016617E+04,      /* J = 28 */
(PID.TID 0000.0001)                 1.000006781009222E+04,      /* J = 29 */
(PID.TID 0000.0001)                 1.000004112884983E+04,      /* J = 30 */
(PID.TID 0000.0001)                 1.000002494588998E+04,      /* J = 31 */
(PID.TID 0000.0001)                 1.000001513044032E+04,      /* J = 32 */
(PID.TID 0000.0001)                 1.000000917707345E+04,      /* J = 33 */
(PID.TID 0000.0001)                 1.000000556617549E+04,      /* J = 34 */
(PID.TID 0000.0001)                 1.000000337605576E+04,      /* J = 35 */
(PID.TID 0000.0001)                 1.000000204768121E+04,      /* J = 36 */
(PID.TID 0000.0001)                 1.000000124198138E+04,      /* J = 37 */
(PID.TID 0000.0001)                 1.000000075329977E+04,      /* J = 38 */
(PID.TID 0000.0001)                 1.000000045689940E+04,      /* J = 39 */
(PID.TID 0000.0001)                 1.000000027712349E+04,      /* J = 40 */
(PID.TID 0000.0001)                 1.000000016808389E+04,      /* J = 41 */
(PID.TID 0000.0001)                 1.000000010194804E+04,      /* J = 42 */
(PID.TID 0000.0001)                 1.000000006183461E+04,      /* J = 43 */
(PID.TID 0000.0001)                 1.000000003750459E+04,      /* J = 44 */
(PID.TID 0000.0001)                 1.000000002274768E+04       /* J = 45 */
(PID.TID 0000.0001)     ;
(PID.TID 0000.0001) dxG =  /* dxG(:,1,:,1) ( m - cartesian, degrees - spherical ) */
(PID.TID 0000.0001)   200 @  1.000000000000000E+04              /* I =  1:200 */
(PID.TID 0000.0001)     ;
(PID.TID 0000.0001) dxG =  /* dxG(1,:,1,:) ( m - cartesian, degrees - spherical ) */
(PID.TID 0000.0001)    45 @  1.000000000000000E+04              /* J =  1: 45 */
(PID.TID 0000.0001)     ;
(PID.TID 0000.0001) dyG =  /* dyG(:,1,:,1) ( m - cartesian, degrees - spherical ) */
(PID.TID 0000.0001)   200 @  4.354770412272808E+04              /* I =  1:200 */
(PID.TID 0000.0001)     ;
(PID.TID 0000.0001) dyG =  /* dyG(1,:,1,:) ( m - cartesian, degrees - spherical ) */
(PID.TID 0000.0001)                 4.354770412272808E+04,      /* J =  1 */
(PID.TID 0000.0001)                 3.976328763529614E+04,      /* J =  2 */
(PID.TID 0000.0001)                 3.845253979986927E+04,      /* J =  3 */
(PID.TID 0000.0001)                 3.330179774422351E+04,      /* J =  4 */
(PID.TID 0000.0001)                 2.498218561664100E+04,      /* J =  5 */
(PID.TID 0000.0001)                 1.850347835747289E+04,      /* J =  6 */
(PID.TID 0000.0001)                 1.476940894853175E+04,      /* J =  7 */
(PID.TID 0000.0001)                 1.272781949244290E+04,      /* J =  8 */
(PID.TID 0000.0001)                 1.159189758968330E+04,      /* J =  9 */
(PID.TID 0000.0001)                 1.094219501627191E+04,      /* J = 10 */
(PID.TID 0000.0001)                 1.056279034603045E+04,      /* J = 11 */
(PID.TID 0000.0001)                 1.033823866459392E+04,      /* J = 12 */
(PID.TID 0000.0001)                 1.020398171822501E+04,      /* J = 13 */
(PID.TID 0000.0001)                 1.012328472029299E+04,      /* J = 14 */
(PID.TID 0000.0001)                 1.007461407944328E+04,      /* J = 15 */
(PID.TID 0000.0001)                 1.004519587625975E+04,      /* J = 16 */
(PID.TID 0000.0001)                 1.002739060034890E+04,      /* J = 17 */
(PID.TID 0000.0001)                 1.001660509967246E+04,      /* J = 18 */
(PID.TID 0000.0001)                 1.001006850448283E+04,      /* J = 19 */
(PID.TID 0000.0001)                 1.000610575317793E+04,      /* J = 20 */
(PID.TID 0000.0001)                 1.000370292038679E+04,      /* J = 21 */
(PID.TID 0000.0001)                 1.000224578530626E+04,      /* J = 22 */
(PID.TID 0000.0001)                 1.000136208265968E+04,      /* J = 23 */
(PID.TID 0000.0001)                 1.000082612466494E+04,      /* J = 24 */
(PID.TID 0000.0001)                 1.000050106249572E+04,      /* J = 25 */
(PID.TID 0000.0001)                 1.000030390702810E+04,      /* J = 26 */
(PID.TID 0000.0001)                 1.000018432792299E+04,      /* J = 27 */
(PID.TID 0000.0001)                 1.000011180016617E+04,      /* J = 28 */
(PID.TID 0000.0001)                 1.000006781009222E+04,      /* J = 29 */
(PID.TID 0000.0001)                 1.000004112884983E+04,      /* J = 30 */
(PID.TID 0000.0001)                 1.000002494588998E+04,      /* J = 31 */
(PID.TID 0000.0001)                 1.000001513044032E+04,      /* J = 32 */
(PID.TID 0000.0001)                 1.000000917707345E+04,      /* J = 33 */
(PID.TID 0000.0001)                 1.000000556617549E+04,      /* J = 34 */
(PID.TID 0000.0001)                 1.000000337605576E+04,      /* J = 35 */
(PID.TID 0000.0001)                 1.000000204768121E+04,      /* J = 36 */
(PID.TID 0000.0001)                 1.000000124198138E+04,      /* J = 37 */
(PID.TID 0000.0001)                 1.000000075329977E+04,      /* J = 38 */
(PID.TID 0000.0001)                 1.000000045689940E+04,      /* J = 39 */
(PID.TID 0000.0001)                 1.000000027712349E+04,      /* J = 40 */
(PID.TID 0000.0001)                 1.000000016808389E+04,      /* J = 41 */
(PID.TID 0000.0001)                 1.000000010194804E+04,      /* J = 42 */
(PID.TID 0000.0001)                 1.000000006183461E+04,      /* J = 43 */
(PID.TID 0000.0001)                 1.000000003750459E+04,      /* J = 44 */
(PID.TID 0000.0001)                 1.000000002274768E+04       /* J = 45 */
(PID.TID 0000.0001)     ;
(PID.TID 0000.0001) dxC =  /* dxC(:,1,:,1) ( m - cartesian, degrees - spherical ) */
(PID.TID 0000.0001)   200 @  1.000000000000000E+04              /* I =  1:200 */
(PID.TID 0000.0001)     ;
(PID.TID 0000.0001) dxC =  /* dxC(1,:,1,:) ( m - cartesian, degrees - spherical ) */
(PID.TID 0000.0001)    45 @  1.000000000000000E+04              /* J =  1: 45 */
(PID.TID 0000.0001)     ;
(PID.TID 0000.0001) dyC =  /* dyC(:,1,:,1) ( m - cartesian, degrees - spherical ) */
(PID.TID 0000.0001)   200 @  2.677385207273788E+04              /* I =  1:200 */
(PID.TID 0000.0001)     ;
(PID.TID 0000.0001) dyC =  /* dyC(1,:,1,:) ( m - cartesian, degrees - spherical ) */
(PID.TID 0000.0001)                 2.677385207273788E+04,      /* J =  1 */
(PID.TID 0000.0001)                 4.165549587901211E+04,      /* J =  2 */
(PID.TID 0000.0001)                 3.910791371758271E+04,      /* J =  3 */
(PID.TID 0000.0001)                 3.587716877204639E+04,      /* J =  4 */
(PID.TID 0000.0001)                 2.914199168043226E+04,      /* J =  5 */
(PID.TID 0000.0001)                 2.174283198705695E+04,      /* J =  6 */
(PID.TID 0000.0001)                 1.663644365300232E+04,      /* J =  7 */
(PID.TID 0000.0001)                 1.374861422048732E+04,      /* J =  8 */
(PID.TID 0000.0001)                 1.215985854106310E+04,      /* J =  9 */
(PID.TID 0000.0001)                 1.126704630297760E+04,      /* J = 10 */
(PID.TID 0000.0001)                 1.075249268115118E+04,      /* J = 11 */
(PID.TID 0000.0001)                 1.045051450531219E+04,      /* J = 12 */
(PID.TID 0000.0001)                 1.027111019140946E+04,      /* J = 13 */
(PID.TID 0000.0001)                 1.016363321925900E+04,      /* J = 14 */
(PID.TID 0000.0001)                 1.009894939986813E+04,      /* J = 15 */
(PID.TID 0000.0001)                 1.005990497785152E+04,      /* J = 16 */
(PID.TID 0000.0001)                 1.003629323830432E+04,      /* J = 17 */
(PID.TID 0000.0001)                 1.002199785001068E+04,      /* J = 18 */
(PID.TID 0000.0001)                 1.001333680207765E+04,      /* J = 19 */
(PID.TID 0000.0001)                 1.000808712883038E+04,      /* J = 20 */
(PID.TID 0000.0001)                 1.000490433678236E+04,      /* J = 21 */
(PID.TID 0000.0001)                 1.000297435284652E+04,      /* J = 22 */
(PID.TID 0000.0001)                 1.000180393398297E+04,      /* J = 23 */
(PID.TID 0000.0001)                 1.000109410366231E+04,      /* J = 24 */
(PID.TID 0000.0001)                 1.000066359358033E+04,      /* J = 25 */
(PID.TID 0000.0001)                 1.000040248476191E+04,      /* J = 26 */
(PID.TID 0000.0001)                 1.000024411747555E+04,      /* J = 27 */
(PID.TID 0000.0001)                 1.000014806404458E+04,      /* J = 28 */
(PID.TID 0000.0001)                 1.000008980512919E+04,      /* J = 29 */
(PID.TID 0000.0001)                 1.000005446947102E+04,      /* J = 30 */
(PID.TID 0000.0001)                 1.000003303736990E+04,      /* J = 31 */
(PID.TID 0000.0001)                 1.000002003816515E+04,      /* J = 32 */
(PID.TID 0000.0001)                 1.000001215375688E+04,      /* J = 33 */
(PID.TID 0000.0001)                 1.000000737162447E+04,      /* J = 34 */
(PID.TID 0000.0001)                 1.000000447111562E+04,      /* J = 35 */
(PID.TID 0000.0001)                 1.000000271186848E+04,      /* J = 36 */
(PID.TID 0000.0001)                 1.000000164483129E+04,      /* J = 37 */
(PID.TID 0000.0001)                 1.000000099764058E+04,      /* J = 38 */
(PID.TID 0000.0001)                 1.000000060509959E+04,      /* J = 39 */
(PID.TID 0000.0001)                 1.000000036701145E+04,      /* J = 40 */
(PID.TID 0000.0001)                 1.000000022260369E+04,      /* J = 41 */
(PID.TID 0000.0001)                 1.000000013501597E+04,      /* J = 42 */
(PID.TID 0000.0001)                 1.000000008189132E+04,      /* J = 43 */
(PID.TID 0000.0001)                 1.000000004966960E+04,      /* J = 44 */
(PID.TID 0000.0001)                 1.000000003012614E+04       /* J = 45 */
(PID.TID 0000.0001)     ;
(PID.TID 0000.0001) dxV =  /* dxV(:,1,:,1) ( m - cartesian, degrees - spherical ) */
(PID.TID 0000.0001)   200 @  1.000000000000000E+04              /* I =  1:200 */
(PID.TID 0000.0001)     ;
(PID.TID 0000.0001) dxV =  /* dxV(1,:,1,:) ( m - cartesian, degrees - spherical ) */
(PID.TID 0000.0001)    45 @  1.000000000000000E+04              /* J =  1: 45 */
(PID.TID 0000.0001)     ;
(PID.TID 0000.0001) dyU =  /* dyU(:,1,:,1) ( m - cartesian, degrees - spherical ) */
(PID.TID 0000.0001)   200 @  2.677385207273788E+04              /* I =  1:200 */
(PID.TID 0000.0001)     ;
(PID.TID 0000.0001) dyU =  /* dyU(1,:,1,:) ( m - cartesian, degrees - spherical ) */
(PID.TID 0000.0001)                 2.677385207273788E+04,      /* J =  1 */
(PID.TID 0000.0001)                 4.165549587901211E+04,      /* J =  2 */
(PID.TID 0000.0001)                 3.910791371758271E+04,      /* J =  3 */
(PID.TID 0000.0001)                 3.587716877204639E+04,      /* J =  4 */
(PID.TID 0000.0001)                 2.914199168043226E+04,      /* J =  5 */
(PID.TID 0000.0001)                 2.174283198705695E+04,      /* J =  6 */
(PID.TID 0000.0001)                 1.663644365300232E+04,      /* J =  7 */
(PID.TID 0000.0001)                 1.374861422048732E+04,      /* J =  8 */
(PID.TID 0000.0001)                 1.215985854106310E+04,      /* J =  9 */
(PID.TID 0000.0001)                 1.126704630297760E+04,      /* J = 10 */
(PID.TID 0000.0001)                 1.075249268115118E+04,      /* J = 11 */
(PID.TID 0000.0001)                 1.045051450531219E+04,      /* J = 12 */
(PID.TID 0000.0001)                 1.027111019140946E+04,      /* J = 13 */
(PID.TID 0000.0001)                 1.016363321925900E+04,      /* J = 14 */
(PID.TID 0000.0001)                 1.009894939986813E+04,      /* J = 15 */
(PID.TID 0000.0001)                 1.005990497785152E+04,      /* J = 16 */
(PID.TID 0000.0001)                 1.003629323830432E+04,      /* J = 17 */
(PID.TID 0000.0001)                 1.002199785001068E+04,      /* J = 18 */
(PID.TID 0000.0001)                 1.001333680207765E+04,      /* J = 19 */
(PID.TID 0000.0001)                 1.000808712883038E+04,      /* J = 20 */
(PID.TID 0000.0001)                 1.000490433678236E+04,      /* J = 21 */
(PID.TID 0000.0001)                 1.000297435284652E+04,      /* J = 22 */
(PID.TID 0000.0001)                 1.000180393398297E+04,      /* J = 23 */
(PID.TID 0000.0001)                 1.000109410366231E+04,      /* J = 24 */
(PID.TID 0000.0001)                 1.000066359358033E+04,      /* J = 25 */
(PID.TID 0000.0001)                 1.000040248476191E+04,      /* J = 26 */
(PID.TID 0000.0001)                 1.000024411747555E+04,      /* J = 27 */
(PID.TID 0000.0001)                 1.000014806404458E+04,      /* J = 28 */
(PID.TID 0000.0001)                 1.000008980512919E+04,      /* J = 29 */
(PID.TID 0000.0001)                 1.000005446947102E+04,      /* J = 30 */
(PID.TID 0000.0001)                 1.000003303736990E+04,      /* J = 31 */
(PID.TID 0000.0001)                 1.000002003816515E+04,      /* J = 32 */
(PID.TID 0000.0001)                 1.000001215375688E+04,      /* J = 33 */
(PID.TID 0000.0001)                 1.000000737162447E+04,      /* J = 34 */
(PID.TID 0000.0001)                 1.000000447111562E+04,      /* J = 35 */
(PID.TID 0000.0001)                 1.000000271186848E+04,      /* J = 36 */
(PID.TID 0000.0001)                 1.000000164483129E+04,      /* J = 37 */
(PID.TID 0000.0001)                 1.000000099764058E+04,      /* J = 38 */
(PID.TID 0000.0001)                 1.000000060509959E+04,      /* J = 39 */
(PID.TID 0000.0001)                 1.000000036701145E+04,      /* J = 40 */
(PID.TID 0000.0001)                 1.000000022260369E+04,      /* J = 41 */
(PID.TID 0000.0001)                 1.000000013501597E+04,      /* J = 42 */
(PID.TID 0000.0001)                 1.000000008189132E+04,      /* J = 43 */
(PID.TID 0000.0001)                 1.000000004966960E+04,      /* J = 44 */
(PID.TID 0000.0001)                 1.000000003012614E+04       /* J = 45 */
(PID.TID 0000.0001)     ;
(PID.TID 0000.0001) rA =  /* rA(:,1,:,1) ( m - cartesian, degrees - spherical ) */
(PID.TID 0000.0001)   200 @  4.354770412272808E+08              /* I =  1:200 */
(PID.TID 0000.0001)     ;
(PID.TID 0000.0001) rA =  /* rA(1,:,1,:) ( m - cartesian, degrees - spherical ) */
(PID.TID 0000.0001)                 4.354770412272808E+08,      /* J =  1 */
(PID.TID 0000.0001)                 3.976328763529614E+08,      /* J =  2 */
(PID.TID 0000.0001)                 3.845253979986927E+08,      /* J =  3 */
(PID.TID 0000.0001)                 3.330179774422351E+08,      /* J =  4 */
(PID.TID 0000.0001)                 2.498218561664100E+08,      /* J =  5 */
(PID.TID 0000.0001)                 1.850347835747289E+08,      /* J =  6 */
(PID.TID 0000.0001)                 1.476940894853175E+08,      /* J =  7 */
(PID.TID 0000.0001)                 1.272781949244290E+08,      /* J =  8 */
(PID.TID 0000.0001)                 1.159189758968330E+08,      /* J =  9 */
(PID.TID 0000.0001)                 1.094219501627191E+08,      /* J = 10 */
(PID.TID 0000.0001)                 1.056279034603045E+08,      /* J = 11 */
(PID.TID 0000.0001)                 1.033823866459392E+08,      /* J = 12 */
(PID.TID 0000.0001)                 1.020398171822501E+08,      /* J = 13 */
(PID.TID 0000.0001)                 1.012328472029299E+08,      /* J = 14 */
(PID.TID 0000.0001)                 1.007461407944328E+08,      /* J = 15 */
(PID.TID 0000.0001)                 1.004519587625975E+08,      /* J = 16 */
(PID.TID 0000.0001)                 1.002739060034890E+08,      /* J = 17 */
(PID.TID 0000.0001)                 1.001660509967246E+08,      /* J = 18 */
(PID.TID 0000.0001)                 1.001006850448283E+08,      /* J = 19 */
(PID.TID 0000.0001)                 1.000610575317793E+08,      /* J = 20 */
(PID.TID 0000.0001)                 1.000370292038679E+08,      /* J = 21 */
(PID.TID 0000.0001)                 1.000224578530626E+08,      /* J = 22 */
(PID.TID 0000.0001)                 1.000136208265968E+08,      /* J = 23 */
(PID.TID 0000.0001)                 1.000082612466494E+08,      /* J = 24 */
(PID.TID 0000.0001)                 1.000050106249572E+08,      /* J = 25 */
(PID.TID 0000.0001)                 1.000030390702810E+08,      /* J = 26 */
(PID.TID 0000.0001)                 1.000018432792299E+08,      /* J = 27 */
(PID.TID 0000.0001)                 1.000011180016617E+08,      /* J = 28 */
(PID.TID 0000.0001)                 1.000006781009222E+08,      /* J = 29 */
(PID.TID 0000.0001)                 1.000004112884983E+08,      /* J = 30 */
(PID.TID 0000.0001)                 1.000002494588998E+08,      /* J = 31 */
(PID.TID 0000.0001)                 1.000001513044032E+08,      /* J = 32 */
(PID.TID 0000.0001)                 1.000000917707345E+08,      /* J = 33 */
(PID.TID 0000.0001)                 1.000000556617549E+08,      /* J = 34 */
(PID.TID 0000.0001)                 1.000000337605576E+08,      /* J = 35 */
(PID.TID 0000.0001)                 1.000000204768121E+08,      /* J = 36 */
(PID.TID 0000.0001)                 1.000000124198138E+08,      /* J = 37 */
(PID.TID 0000.0001)                 1.000000075329977E+08,      /* J = 38 */
(PID.TID 0000.0001)                 1.000000045689940E+08,      /* J = 39 */
(PID.TID 0000.0001)                 1.000000027712349E+08,      /* J = 40 */
(PID.TID 0000.0001)                 1.000000016808389E+08,      /* J = 41 */
(PID.TID 0000.0001)                 1.000000010194803E+08,      /* J = 42 */
(PID.TID 0000.0001)                 1.000000006183461E+08,      /* J = 43 */
(PID.TID 0000.0001)                 1.000000003750459E+08,      /* J = 44 */
(PID.TID 0000.0001)                 1.000000002274768E+08       /* J = 45 */
(PID.TID 0000.0001)     ;
(PID.TID 0000.0001) rAw =  /* rAw(:,1,:,1) ( m - cartesian, degrees - spherical ) */
(PID.TID 0000.0001)   200 @  4.354770412272808E+08              /* I =  1:200 */
(PID.TID 0000.0001)     ;
(PID.TID 0000.0001) rAw =  /* rAw(1,:,1,:) ( m - cartesian, degrees - spherical ) */
(PID.TID 0000.0001)                 4.354770412272808E+08,      /* J =  1 */
(PID.TID 0000.0001)                 3.976328763529614E+08,      /* J =  2 */
(PID.TID 0000.0001)                 3.845253979986927E+08,      /* J =  3 */
(PID.TID 0000.0001)                 3.330179774422351E+08,      /* J =  4 */
(PID.TID 0000.0001)                 2.498218561664100E+08,      /* J =  5 */
(PID.TID 0000.0001)                 1.850347835747289E+08,      /* J =  6 */
(PID.TID 0000.0001)                 1.476940894853175E+08,      /* J =  7 */
(PID.TID 0000.0001)                 1.272781949244290E+08,      /* J =  8 */
(PID.TID 0000.0001)                 1.159189758968330E+08,      /* J =  9 */
(PID.TID 0000.0001)                 1.094219501627191E+08,      /* J = 10 */
(PID.TID 0000.0001)                 1.056279034603045E+08,      /* J = 11 */
(PID.TID 0000.0001)                 1.033823866459392E+08,      /* J = 12 */
(PID.TID 0000.0001)                 1.020398171822501E+08,      /* J = 13 */
(PID.TID 0000.0001)                 1.012328472029299E+08,      /* J = 14 */
(PID.TID 0000.0001)                 1.007461407944328E+08,      /* J = 15 */
(PID.TID 0000.0001)                 1.004519587625975E+08,      /* J = 16 */
(PID.TID 0000.0001)                 1.002739060034890E+08,      /* J = 17 */
(PID.TID 0000.0001)                 1.001660509967246E+08,      /* J = 18 */
(PID.TID 0000.0001)                 1.001006850448283E+08,      /* J = 19 */
(PID.TID 0000.0001)                 1.000610575317793E+08,      /* J = 20 */
(PID.TID 0000.0001)                 1.000370292038679E+08,      /* J = 21 */
(PID.TID 0000.0001)                 1.000224578530626E+08,      /* J = 22 */
(PID.TID 0000.0001)                 1.000136208265968E+08,      /* J = 23 */
(PID.TID 0000.0001)                 1.000082612466494E+08,      /* J = 24 */
(PID.TID 0000.0001)                 1.000050106249572E+08,      /* J = 25 */
(PID.TID 0000.0001)                 1.000030390702810E+08,      /* J = 26 */
(PID.TID 0000.0001)                 1.000018432792299E+08,      /* J = 27 */
(PID.TID 0000.0001)                 1.000011180016617E+08,      /* J = 28 */
(PID.TID 0000.0001)                 1.000006781009222E+08,      /* J = 29 */
(PID.TID 0000.0001)                 1.000004112884983E+08,      /* J = 30 */
(PID.TID 0000.0001)                 1.000002494588998E+08,      /* J = 31 */
(PID.TID 0000.0001)                 1.000001513044032E+08,      /* J = 32 */
(PID.TID 0000.0001)                 1.000000917707345E+08,      /* J = 33 */
(PID.TID 0000.0001)                 1.000000556617549E+08,      /* J = 34 */
(PID.TID 0000.0001)                 1.000000337605576E+08,      /* J = 35 */
(PID.TID 0000.0001)                 1.000000204768121E+08,      /* J = 36 */
(PID.TID 0000.0001)                 1.000000124198138E+08,      /* J = 37 */
(PID.TID 0000.0001)                 1.000000075329977E+08,      /* J = 38 */
(PID.TID 0000.0001)                 1.000000045689940E+08,      /* J = 39 */
(PID.TID 0000.0001)                 1.000000027712349E+08,      /* J = 40 */
(PID.TID 0000.0001)                 1.000000016808389E+08,      /* J = 41 */
(PID.TID 0000.0001)                 1.000000010194803E+08,      /* J = 42 */
(PID.TID 0000.0001)                 1.000000006183461E+08,      /* J = 43 */
(PID.TID 0000.0001)                 1.000000003750459E+08,      /* J = 44 */
(PID.TID 0000.0001)                 1.000000002274768E+08       /* J = 45 */
(PID.TID 0000.0001)     ;
(PID.TID 0000.0001) rAs =  /* rAs(:,1,:,1) ( m - cartesian, degrees - spherical ) */
(PID.TID 0000.0001)   200 @  2.677385207273788E+08              /* I =  1:200 */
(PID.TID 0000.0001)     ;
(PID.TID 0000.0001) rAs =  /* rAs(1,:,1,:) ( m - cartesian, degrees - spherical ) */
(PID.TID 0000.0001)                 2.677385207273788E+08,      /* J =  1 */
(PID.TID 0000.0001)                 4.165549587901211E+08,      /* J =  2 */
(PID.TID 0000.0001)                 3.910791371758270E+08,      /* J =  3 */
(PID.TID 0000.0001)                 3.587716877204639E+08,      /* J =  4 */
(PID.TID 0000.0001)                 2.914199168043225E+08,      /* J =  5 */
(PID.TID 0000.0001)                 2.174283198705695E+08,      /* J =  6 */
(PID.TID 0000.0001)                 1.663644365300232E+08,      /* J =  7 */
(PID.TID 0000.0001)                 1.374861422048733E+08,      /* J =  8 */
(PID.TID 0000.0001)                 1.215985854106310E+08,      /* J =  9 */
(PID.TID 0000.0001)                 1.126704630297760E+08,      /* J = 10 */
(PID.TID 0000.0001)                 1.075249268115118E+08,      /* J = 11 */
(PID.TID 0000.0001)                 1.045051450531218E+08,      /* J = 12 */
(PID.TID 0000.0001)                 1.027111019140946E+08,      /* J = 13 */
(PID.TID 0000.0001)                 1.016363321925900E+08,      /* J = 14 */
(PID.TID 0000.0001)                 1.009894939986813E+08,      /* J = 15 */
(PID.TID 0000.0001)                 1.005990497785152E+08,      /* J = 16 */
(PID.TID 0000.0001)                 1.003629323830432E+08,      /* J = 17 */
(PID.TID 0000.0001)                 1.002199785001068E+08,      /* J = 18 */
(PID.TID 0000.0001)                 1.001333680207765E+08,      /* J = 19 */
(PID.TID 0000.0001)                 1.000808712883038E+08,      /* J = 20 */
(PID.TID 0000.0001)                 1.000490433678236E+08,      /* J = 21 */
(PID.TID 0000.0001)                 1.000297435284652E+08,      /* J = 22 */
(PID.TID 0000.0001)                 1.000180393398297E+08,      /* J = 23 */
(PID.TID 0000.0001)                 1.000109410366231E+08,      /* J = 24 */
(PID.TID 0000.0001)                 1.000066359358033E+08,      /* J = 25 */
(PID.TID 0000.0001)                 1.000040248476191E+08,      /* J = 26 */
(PID.TID 0000.0001)                 1.000024411747555E+08,      /* J = 27 */
(PID.TID 0000.0001)                 1.000014806404458E+08,      /* J = 28 */
(PID.TID 0000.0001)                 1.000008980512919E+08,      /* J = 29 */
(PID.TID 0000.0001)                 1.000005446947102E+08,      /* J = 30 */
(PID.TID 0000.0001)                 1.000003303736990E+08,      /* J = 31 */
(PID.TID 0000.0001)                 1.000002003816515E+08,      /* J = 32 */
(PID.TID 0000.0001)                 1.000001215375689E+08,      /* J = 33 */
(PID.TID 0000.0001)                 1.000000737162447E+08,      /* J = 34 */
(PID.TID 0000.0001)                 1.000000447111562E+08,      /* J = 35 */
(PID.TID 0000.0001)                 1.000000271186848E+08,      /* J = 36 */
(PID.TID 0000.0001)                 1.000000164483129E+08,      /* J = 37 */
(PID.TID 0000.0001)                 1.000000099764058E+08,      /* J = 38 */
(PID.TID 0000.0001)                 1.000000060509959E+08,      /* J = 39 */
(PID.TID 0000.0001)                 1.000000036701145E+08,      /* J = 40 */
(PID.TID 0000.0001)                 1.000000022260369E+08,      /* J = 41 */
(PID.TID 0000.0001)                 1.000000013501597E+08,      /* J = 42 */
(PID.TID 0000.0001)                 1.000000008189132E+08,      /* J = 43 */
(PID.TID 0000.0001)                 1.000000004966960E+08,      /* J = 44 */
(PID.TID 0000.0001)                 1.000000003012614E+08       /* J = 45 */
(PID.TID 0000.0001)     ;
(PID.TID 0000.0001) 
(PID.TID 0000.0001)  MDSREADFIELD: opening global file: T.init
(PID.TID 0000.0001) // =======================================================
(PID.TID 0000.0001) // Field Initial Temperature at iteration          1
(PID.TID 0000.0001) // CMIN =         -1.941747572815533E-01
(PID.TID 0000.0001) // CMAX =         -1.941747572815533E-01
(PID.TID 0000.0001) // CINT =          0.000000000000000E+00
(PID.TID 0000.0001) // SYMBOLS (CMIN->CMAX): -abcdefghijklmnopqrstuvwxyz+
(PID.TID 0000.0001) //                  0.0: .
(PID.TID 0000.0001) // RANGE I (Lo:Hi:Step):(   1: 200:   1)
(PID.TID 0000.0001) // RANGE J (Lo:Hi:Step):(  45:   1:  -1)
(PID.TID 0000.0001) // RANGE K (Lo:Hi:Step):(   1:   1:   1)
(PID.TID 0000.0001) // =======================================================
(PID.TID 0000.0001) // =======================================================
(PID.TID 0000.0001) // END OF FIELD                                          =
(PID.TID 0000.0001) // =======================================================
(PID.TID 0000.0001) 
(PID.TID 0000.0001) // =======================================================
(PID.TID 0000.0001) // Field Initial Salinity at iteration          1
(PID.TID 0000.0001) // CMIN =          1.000000000000000E+00
(PID.TID 0000.0001) // CMAX =          1.000000000000000E+00
(PID.TID 0000.0001) // CINT =          0.000000000000000E+00
(PID.TID 0000.0001) // SYMBOLS (CMIN->CMAX): -abcdefghijklmnopqrstuvwxyz+
(PID.TID 0000.0001) //                  0.0: .
(PID.TID 0000.0001) // RANGE I (Lo:Hi:Step):(   1: 200:   1)
(PID.TID 0000.0001) // RANGE J (Lo:Hi:Step):(  45:   1:  -1)
(PID.TID 0000.0001) // RANGE K (Lo:Hi:Step):(   1:   1:   1)
(PID.TID 0000.0001) // =======================================================
(PID.TID 0000.0001) // =======================================================
(PID.TID 0000.0001) // END OF FIELD                                          =
(PID.TID 0000.0001) // =======================================================
(PID.TID 0000.0001) 
(PID.TID 0000.0001) Start initial hydrostatic pressure computation
(PID.TID 0000.0001) Pressure is predetermined for buoyancyRelation OCEANIC
(PID.TID 0000.0001) 
(PID.TID 0000.0001) // =======================================================
(PID.TID 0000.0001) // Model current state
(PID.TID 0000.0001) // =======================================================
(PID.TID 0000.0001) 
(PID.TID 0000.0001) // =======================================================
(PID.TID 0000.0001) // Begin MONITOR dynamic field statistics
(PID.TID 0000.0001) // =======================================================
(PID.TID 0000.0001) %MON time_tsnumber                =                     0
(PID.TID 0000.0001) %MON time_secondsf                =   0.0000000000000E+00
(PID.TID 0000.0001) %MON dynstat_eta_max              =   0.0000000000000E+00
(PID.TID 0000.0001) %MON dynstat_eta_min              =   0.0000000000000E+00
(PID.TID 0000.0001) %MON dynstat_eta_mean             =   0.0000000000000E+00
(PID.TID 0000.0001) %MON dynstat_eta_sd               =   0.0000000000000E+00
(PID.TID 0000.0001) %MON dynstat_eta_del2             =   0.0000000000000E+00
(PID.TID 0000.0001) %MON dynstat_uvel_max             =   0.0000000000000E+00
(PID.TID 0000.0001) %MON dynstat_uvel_min             =   0.0000000000000E+00
(PID.TID 0000.0001) %MON dynstat_uvel_mean            =   0.0000000000000E+00
(PID.TID 0000.0001) %MON dynstat_uvel_sd              =   0.0000000000000E+00
(PID.TID 0000.0001) %MON dynstat_uvel_del2            =   0.0000000000000E+00
(PID.TID 0000.0001) %MON dynstat_vvel_max             =   0.0000000000000E+00
(PID.TID 0000.0001) %MON dynstat_vvel_min             =  -1.9393425212476E+00
(PID.TID 0000.0001) %MON dynstat_vvel_mean            =  -3.4481281093507E-05
(PID.TID 0000.0001) %MON dynstat_vvel_sd              =   6.8634250558140E-03
(PID.TID 0000.0001) %MON dynstat_vvel_del2            =   4.7959883259205E-05
(PID.TID 0000.0001) %MON dynstat_wvel_max             =   4.8654876599978E-02
(PID.TID 0000.0001) %MON dynstat_wvel_min             =  -4.8654876671778E-02
(PID.TID 0000.0001) %MON dynstat_wvel_mean            =   1.1859288267474E-23
(PID.TID 0000.0001) %MON dynstat_wvel_sd              =   3.1707972158465E-04
(PID.TID 0000.0001) %MON dynstat_wvel_del2            =   4.1329437904732E-06
(PID.TID 0000.0001) %MON dynstat_theta_max            =  -1.9417475728155E-01
(PID.TID 0000.0001) %MON dynstat_theta_min            =  -9.7087381093410E+00
(PID.TID 0000.0001) %MON dynstat_theta_mean           =  -4.1282029734285E+00
(PID.TID 0000.0001) %MON dynstat_theta_sd             =   2.6834035016147E+00
(PID.TID 0000.0001) %MON dynstat_theta_del2           =   4.4351272023061E-04
(PID.TID 0000.0001) %MON dynstat_salt_max             =   2.0000000000000E+00
(PID.TID 0000.0001) %MON dynstat_salt_min             =   1.0000000000000E+00
(PID.TID 0000.0001) %MON dynstat_salt_mean            =   1.0000284002028E+00
(PID.TID 0000.0001) %MON dynstat_salt_sd              =   5.1195250063010E-03
(PID.TID 0000.0001) %MON dynstat_salt_del2            =   5.5335980057108E-05
(PID.TID 0000.0001) %MON advcfl_uvel_max              =   0.0000000000000E+00
(PID.TID 0000.0001) %MON advcfl_vvel_max              =   5.8180275462155E-02
(PID.TID 0000.0001) %MON advcfl_wvel_max              =   2.0272865279907E-01
(PID.TID 0000.0001) %MON advcfl_W_hf_max              =   2.0272865279907E-01
(PID.TID 0000.0001) %MON pe_b_mean                    =   0.0000000000000E+00
(PID.TID 0000.0001) %MON ke_max                       =   9.4026235437356E-01
(PID.TID 0000.0001) %MON ke_mean                      =   2.2000289742654E-05
(PID.TID 0000.0001) %MON ke_vol                       =   2.7059236822589E+15
(PID.TID 0000.0001) %MON vort_r_min                   =  -1.9393425212476E-04
(PID.TID 0000.0001) %MON vort_r_max                   =   1.0515998621734E-04
(PID.TID 0000.0001) %MON vort_a_mean                  =   1.0000000000000E-04
(PID.TID 0000.0001) %MON vort_a_sd                    =   7.5823206071254E-07
(PID.TID 0000.0001) %MON vort_p_mean                  =   1.1277618388223E-04
(PID.TID 0000.0001) %MON vort_p_sd                    =   7.1146391807535E-05
(PID.TID 0000.0001) %MON surfExpan_theta_mean         =   2.0884615728699E-12
(PID.TID 0000.0001) %MON surfExpan_salt_mean          =   1.2804977662655E-21
(PID.TID 0000.0001) // =======================================================
(PID.TID 0000.0001) // End MONITOR dynamic field statistics
(PID.TID 0000.0001) // =======================================================
 cg2d: Sum(rhs),rhsMax =  -1.80359192267009E+00  1.12517547250487E+00
(PID.TID 0000.0001)                    cg2d_init_res =    1.12412619412957E+00
(PID.TID 0000.0001)                       cg2d_iters =    78
(PID.TID 0000.0001)                         cg2d_res =    8.30749292170561E-12
(PID.TID 0000.0001) // =======================================================
(PID.TID 0000.0001) // Begin MONITOR dynamic field statistics
(PID.TID 0000.0001) // =======================================================
(PID.TID 0000.0001) %MON time_tsnumber                =                     1
(PID.TID 0000.0001) %MON time_secondsf                =   3.0000000000000E+02
(PID.TID 0000.0001) %MON dynstat_eta_max              =   3.0403433403294E+00
(PID.TID 0000.0001) %MON dynstat_eta_min              =   0.0000000000000E+00
(PID.TID 0000.0001) %MON dynstat_eta_mean             =   2.5813385030270E-03
(PID.TID 0000.0001) %MON dynstat_eta_sd               =   5.2401644326006E-02
(PID.TID 0000.0001) %MON dynstat_eta_del2             =   7.7911849555206E-04
(PID.TID 0000.0001) %MON dynstat_uvel_max             =   2.3637202186940E-01
(PID.TID 0000.0001) %MON dynstat_uvel_min             =  -3.6244508068802E-02
(PID.TID 0000.0001) %MON dynstat_uvel_mean            =   3.9253678199996E-05
(PID.TID 0000.0001) %MON dynstat_uvel_sd              =   2.1484073045490E-03
(PID.TID 0000.0001) %MON dynstat_uvel_del2            =   2.4094670165547E-05
(PID.TID 0000.0001) %MON dynstat_vvel_max             =   1.5624885588918E-06
(PID.TID 0000.0001) %MON dynstat_vvel_min             =  -1.9393425212476E+00
(PID.TID 0000.0001) %MON dynstat_vvel_mean            =  -1.0470470139707E-04
(PID.TID 0000.0001) %MON dynstat_vvel_sd              =   7.5352443730329E-03
(PID.TID 0000.0001) %MON dynstat_vvel_del2            =   5.1753102090288E-05
(PID.TID 0000.0001) %MON dynstat_wvel_max             =   2.8318026395070E-02
(PID.TID 0000.0001) %MON dynstat_wvel_min             =  -4.8654876671778E-02
(PID.TID 0000.0001) %MON dynstat_wvel_mean            =  -4.9181166050409E-23
(PID.TID 0000.0001) %MON dynstat_wvel_sd              =   2.5607541985940E-04
(PID.TID 0000.0001) %MON dynstat_wvel_del2            =   2.7312366540279E-06
(PID.TID 0000.0001) %MON dynstat_theta_max            =  -1.9417475728155E-01
(PID.TID 0000.0001) %MON dynstat_theta_min            =  -9.7087381093410E+00
(PID.TID 0000.0001) %MON dynstat_theta_mean           =  -4.1282112077302E+00
(PID.TID 0000.0001) %MON dynstat_theta_sd             =   2.6833953070530E+00
(PID.TID 0000.0001) %MON dynstat_theta_del2           =   4.3485384071486E-04
(PID.TID 0000.0001) %MON dynstat_salt_max             =   2.0000000000000E+00
(PID.TID 0000.0001) %MON dynstat_salt_min             =   1.0000000000000E+00
(PID.TID 0000.0001) %MON dynstat_salt_mean            =   1.0000292676600E+00
(PID.TID 0000.0001) %MON dynstat_salt_sd              =   5.1227753897862E-03
(PID.TID 0000.0001) %MON dynstat_salt_del2            =   5.4236547841431E-05
(PID.TID 0000.0001) %MON advcfl_uvel_max              =   7.0911606560820E-03
(PID.TID 0000.0001) %MON advcfl_vvel_max              =   5.8180275462155E-02
(PID.TID 0000.0001) %MON advcfl_wvel_max              =   2.0272865279907E-01
(PID.TID 0000.0001) %MON advcfl_W_hf_max              =   2.0272865279907E-01
(PID.TID 0000.0001) %MON pe_b_mean                    =   5.0536685973134E-06
(PID.TID 0000.0001) %MON ke_max                       =   9.9754281626360E-01
(PID.TID 0000.0001) %MON ke_mean                      =   2.8819234131663E-05
(PID.TID 0000.0001) %MON ke_vol                       =   2.7059236822589E+15
(PID.TID 0000.0001) %MON vort_r_min                   =  -1.9393425212476E-04
(PID.TID 0000.0001) %MON vort_r_max                   =   1.2842318678920E-04
(PID.TID 0000.0001) %MON vort_a_mean                  =   1.0000000000000E-04
(PID.TID 0000.0001) %MON vort_a_sd                    =   8.7415217222541E-07
(PID.TID 0000.0001) %MON vort_p_mean                  =   1.1277618388223E-04
(PID.TID 0000.0001) %MON vort_p_sd                    =   7.1134889329113E-05
(PID.TID 0000.0001) %MON surfExpan_theta_mean         =  -1.4115485026150E-08
(PID.TID 0000.0001) %MON surfExpan_salt_mean          =   4.3784762330369E-21
(PID.TID 0000.0001) // =======================================================
(PID.TID 0000.0001) // End MONITOR dynamic field statistics
(PID.TID 0000.0001) // =======================================================
 cg2d: Sum(rhs),rhsMax =  -8.45388802630714E+00  4.80100372147742E-01
(PID.TID 0000.0001)                    cg2d_init_res =    1.77627612126732E+00
(PID.TID 0000.0001)                       cg2d_iters =    83
(PID.TID 0000.0001)                         cg2d_res =    9.76502244230726E-12
(PID.TID 0000.0001) // =======================================================
(PID.TID 0000.0001) // Begin MONITOR dynamic field statistics
(PID.TID 0000.0001) // =======================================================
(PID.TID 0000.0001) %MON time_tsnumber                =                     2
(PID.TID 0000.0001) %MON time_secondsf                =   6.0000000000000E+02
(PID.TID 0000.0001) %MON dynstat_eta_max              =   2.3909670143822E+00
(PID.TID 0000.0001) %MON dynstat_eta_min              =   0.0000000000000E+00
(PID.TID 0000.0001) %MON dynstat_eta_mean             =   5.1626770061175E-03
(PID.TID 0000.0001) %MON dynstat_eta_sd               =   6.5618542310515E-02
(PID.TID 0000.0001) %MON dynstat_eta_del2             =   8.0871075346470E-04
(PID.TID 0000.0001) %MON dynstat_uvel_max             =   3.3312645494488E-01
(PID.TID 0000.0001) %MON dynstat_uvel_min             =  -1.0670675636019E-01
(PID.TID 0000.0001) %MON dynstat_uvel_mean            =   7.5648387488295E-05
(PID.TID 0000.0001) %MON dynstat_uvel_sd              =   3.6823127927298E-03
(PID.TID 0000.0001) %MON dynstat_uvel_del2            =   3.8470775741435E-05
(PID.TID 0000.0001) %MON dynstat_vvel_max             =   9.5224994461873E-06
(PID.TID 0000.0001) %MON dynstat_vvel_min             =  -1.9393425212476E+00
(PID.TID 0000.0001) %MON dynstat_vvel_mean            =  -2.0579306269690E-04
(PID.TID 0000.0001) %MON dynstat_vvel_sd              =   8.5747960636526E-03
(PID.TID 0000.0001) %MON dynstat_vvel_del2            =   5.4593868712065E-05
(PID.TID 0000.0001) %MON dynstat_wvel_max             =   2.1910504416041E-02
(PID.TID 0000.0001) %MON dynstat_wvel_min             =  -4.8654876671778E-02
(PID.TID 0000.0001) %MON dynstat_wvel_mean            =   2.0230550573927E-22
(PID.TID 0000.0001) %MON dynstat_wvel_sd              =   2.4207364569537E-04
(PID.TID 0000.0001) %MON dynstat_wvel_del2            =   2.4316167982177E-06
(PID.TID 0000.0001) %MON dynstat_theta_max            =  -1.9417475728155E-01
(PID.TID 0000.0001) %MON dynstat_theta_min            =  -9.7087381093410E+00
(PID.TID 0000.0001) %MON dynstat_theta_mean           =  -4.1282194419145E+00
(PID.TID 0000.0001) %MON dynstat_theta_sd             =   2.6833879514690E+00
(PID.TID 0000.0001) %MON dynstat_theta_del2           =   4.2627133813249E-04
(PID.TID 0000.0001) %MON dynstat_salt_max             =   2.0000000000000E+00
(PID.TID 0000.0001) %MON dynstat_salt_min             =   1.0000000000000E+00
(PID.TID 0000.0001) %MON dynstat_salt_mean            =   1.0000301351172E+00
(PID.TID 0000.0001) %MON dynstat_salt_sd              =   5.1322759193532E-03
(PID.TID 0000.0001) %MON dynstat_salt_del2            =   5.3153068094156E-05
(PID.TID 0000.0001) %MON advcfl_uvel_max              =   9.9937936483464E-03
(PID.TID 0000.0001) %MON advcfl_vvel_max              =   5.8180275462155E-02
(PID.TID 0000.0001) %MON advcfl_wvel_max              =   2.0272865279907E-01
(PID.TID 0000.0001) %MON advcfl_W_hf_max              =   2.0272865279907E-01
(PID.TID 0000.0001) %MON pe_b_mean                    =   7.9542188002176E-06
(PID.TID 0000.0001) %MON ke_max                       =   1.0436514464127E+00
(PID.TID 0000.0001) %MON ke_mean                      =   4.1106202957822E-05
(PID.TID 0000.0001) %MON ke_vol                       =   2.7059236822589E+15
(PID.TID 0000.0001) %MON vort_r_min                   =  -1.9393425212476E-04
(PID.TID 0000.0001) %MON vort_r_max                   =   1.3591771125799E-04
(PID.TID 0000.0001) %MON vort_a_mean                  =   1.0000000000000E-04
(PID.TID 0000.0001) %MON vort_a_sd                    =   9.6499329895975E-07
(PID.TID 0000.0001) %MON vort_p_mean                  =   1.1277618388223E-04
(PID.TID 0000.0001) %MON vort_p_sd                    =   7.1129732796767E-05
(PID.TID 0000.0001) %MON surfExpan_theta_mean         =  -2.9143733244252E-09
(PID.TID 0000.0001) %MON surfExpan_salt_mean          =  -5.3829152034473E-15
(PID.TID 0000.0001) // =======================================================
(PID.TID 0000.0001) // End MONITOR dynamic field statistics
(PID.TID 0000.0001) // =======================================================
 cg2d: Sum(rhs),rhsMax =  -2.84322739256986E+01  2.14125405418304E-01
(PID.TID 0000.0001)                    cg2d_init_res =    2.22251077457176E+00
(PID.TID 0000.0001)                       cg2d_iters =    86
(PID.TID 0000.0001)                         cg2d_res =    9.27670694947692E-12
(PID.TID 0000.0001) // =======================================================
(PID.TID 0000.0001) // Begin MONITOR dynamic field statistics
(PID.TID 0000.0001) // =======================================================
(PID.TID 0000.0001) %MON time_tsnumber                =                     3
(PID.TID 0000.0001) %MON time_secondsf                =   9.0000000000000E+02
(PID.TID 0000.0001) %MON dynstat_eta_max              =   1.4884803245690E+00
(PID.TID 0000.0001) %MON dynstat_eta_min              =   0.0000000000000E+00
(PID.TID 0000.0001) %MON dynstat_eta_mean             =   7.7440155092137E-03
(PID.TID 0000.0001) %MON dynstat_eta_sd               =   6.7441368796924E-02
(PID.TID 0000.0001) %MON dynstat_eta_del2             =   7.4910498490037E-04
(PID.TID 0000.0001) %MON dynstat_uvel_max             =   3.5601600551152E-01
(PID.TID 0000.0001) %MON dynstat_uvel_min             =  -1.7534215610131E-01
(PID.TID 0000.0001) %MON dynstat_uvel_mean            =   9.2253837339266E-05
(PID.TID 0000.0001) %MON dynstat_uvel_sd              =   4.4883756585780E-03
(PID.TID 0000.0001) %MON dynstat_uvel_del2            =   4.5168855772962E-05
(PID.TID 0000.0001) %MON dynstat_vvel_max             =   2.9997368390585E-05
(PID.TID 0000.0001) %MON dynstat_vvel_min             =  -1.9393425212476E+00
(PID.TID 0000.0001) %MON dynstat_vvel_mean            =  -3.3518297585568E-04
(PID.TID 0000.0001) %MON dynstat_vvel_sd              =   9.3726275943564E-03
(PID.TID 0000.0001) %MON dynstat_vvel_del2            =   5.9186563186650E-05
(PID.TID 0000.0001) %MON dynstat_wvel_max             =   2.1396004098872E-02
(PID.TID 0000.0001) %MON dynstat_wvel_min             =  -4.8654876671778E-02
(PID.TID 0000.0001) %MON dynstat_wvel_mean            =  -1.7188991935916E-21
(PID.TID 0000.0001) %MON dynstat_wvel_sd              =   2.4029235364701E-04
(PID.TID 0000.0001) %MON dynstat_wvel_del2            =   2.4672017651720E-06
(PID.TID 0000.0001) %MON dynstat_theta_max            =  -1.9417475728155E-01
(PID.TID 0000.0001) %MON dynstat_theta_min            =  -9.7087381093410E+00
(PID.TID 0000.0001) %MON dynstat_theta_mean           =  -4.1282276765575E+00
(PID.TID 0000.0001) %MON dynstat_theta_sd             =   2.6833813718963E+00
(PID.TID 0000.0001) %MON dynstat_theta_del2           =   4.1790114084118E-04
(PID.TID 0000.0001) %MON dynstat_salt_max             =   2.0000000000000E+00
(PID.TID 0000.0001) %MON dynstat_salt_min             =   1.0000000000000E+00
(PID.TID 0000.0001) %MON dynstat_salt_mean            =   1.0000310025744E+00
(PID.TID 0000.0001) %MON dynstat_salt_sd              =   5.1475993207593E-03
(PID.TID 0000.0001) %MON dynstat_salt_del2            =   5.2089722596892E-05
(PID.TID 0000.0001) %MON advcfl_uvel_max              =   1.0680480165346E-02
(PID.TID 0000.0001) %MON advcfl_vvel_max              =   5.8180275462155E-02
(PID.TID 0000.0001) %MON advcfl_wvel_max              =   2.0272865279907E-01
(PID.TID 0000.0001) %MON advcfl_W_hf_max              =   2.0272865279907E-01
(PID.TID 0000.0001) %MON pe_b_mean                    =   8.4606911107279E-06
(PID.TID 0000.0001) %MON ke_max                       =   1.0533061188544E+00
(PID.TID 0000.0001) %MON ke_mean                      =   5.1103698117247E-05
(PID.TID 0000.0001) %MON ke_vol                       =   2.7059236822589E+15
(PID.TID 0000.0001) %MON vort_r_min                   =  -1.9393425212476E-04
(PID.TID 0000.0001) %MON vort_r_max                   =   1.3613841393516E-04
(PID.TID 0000.0001) %MON vort_a_mean                  =   1.0000000000000E-04
(PID.TID 0000.0001) %MON vort_a_sd                    =   1.0036497392714E-06
(PID.TID 0000.0001) %MON vort_p_mean                  =   1.1277618388223E-04
(PID.TID 0000.0001) %MON vort_p_sd                    =   7.1127829449008E-05
(PID.TID 0000.0001) %MON surfExpan_theta_mean         =   2.3614482852767E-09
(PID.TID 0000.0001) %MON surfExpan_salt_mean          =  -2.2716452345156E-14
(PID.TID 0000.0001) // =======================================================
(PID.TID 0000.0001) // End MONITOR dynamic field statistics
(PID.TID 0000.0001) // =======================================================
 cg2d: Sum(rhs),rhsMax =  -7.18519395796305E+01  1.12974397386890E-01
(PID.TID 0000.0001)                    cg2d_init_res =    2.54319299202929E+00
(PID.TID 0000.0001)                       cg2d_iters =    89
(PID.TID 0000.0001)                         cg2d_res =    7.27092510309697E-12
(PID.TID 0000.0001) // =======================================================
(PID.TID 0000.0001) // Begin MONITOR dynamic field statistics
(PID.TID 0000.0001) // =======================================================
(PID.TID 0000.0001) %MON time_tsnumber                =                     4
(PID.TID 0000.0001) %MON time_secondsf                =   1.2000000000000E+03
(PID.TID 0000.0001) %MON dynstat_eta_max              =   9.4323478855018E-01
(PID.TID 0000.0001) %MON dynstat_eta_min              =   0.0000000000000E+00
(PID.TID 0000.0001) %MON dynstat_eta_mean             =   1.0325354012319E-02
(PID.TID 0000.0001) %MON dynstat_eta_sd               =   6.5608464231383E-02
(PID.TID 0000.0001) %MON dynstat_eta_del2             =   6.3186651641911E-04
(PID.TID 0000.0001) %MON dynstat_uvel_max             =   3.4592184616806E-01
(PID.TID 0000.0001) %MON dynstat_uvel_min             =  -2.1874585059186E-01
(PID.TID 0000.0001) %MON dynstat_uvel_mean            =   8.7107663337164E-05
(PID.TID 0000.0001) %MON dynstat_uvel_sd              =   4.8017302283225E-03
(PID.TID 0000.0001) %MON dynstat_uvel_del2            =   4.6543748385255E-05
(PID.TID 0000.0001) %MON dynstat_vvel_max             =   6.9699363582986E-05
(PID.TID 0000.0001) %MON dynstat_vvel_min             =  -1.9393425212476E+00
(PID.TID 0000.0001) %MON dynstat_vvel_mean            =  -4.9532374190713E-04
(PID.TID 0000.0001) %MON dynstat_vvel_sd              =   9.9532005770960E-03
(PID.TID 0000.0001) %MON dynstat_vvel_del2            =   6.2305667988773E-05
(PID.TID 0000.0001) %MON dynstat_wvel_max             =   2.1791875421936E-02
(PID.TID 0000.0001) %MON dynstat_wvel_min             =  -4.8654876671778E-02
(PID.TID 0000.0001) %MON dynstat_wvel_mean            =   3.0136544303229E-22
(PID.TID 0000.0001) %MON dynstat_wvel_sd              =   2.4083563118327E-04
(PID.TID 0000.0001) %MON dynstat_wvel_del2            =   2.5334843895742E-06
(PID.TID 0000.0001) %MON dynstat_theta_max            =  -1.9417475728155E-01
(PID.TID 0000.0001) %MON dynstat_theta_min            =  -9.7087381093410E+00
(PID.TID 0000.0001) %MON dynstat_theta_mean           =  -4.1282359113234E+00
(PID.TID 0000.0001) %MON dynstat_theta_sd             =   2.6833755108941E+00
(PID.TID 0000.0001) %MON dynstat_theta_del2           =   4.0975240686971E-04
(PID.TID 0000.0001) %MON dynstat_salt_max             =   2.0000000000000E+00
(PID.TID 0000.0001) %MON dynstat_salt_min             =   1.0000000000000E+00
(PID.TID 0000.0001) %MON dynstat_salt_mean            =   1.0000318700316E+00
(PID.TID 0000.0001) %MON dynstat_salt_sd              =   5.1683144509316E-03
(PID.TID 0000.0001) %MON dynstat_salt_del2            =   5.1050281819738E-05
(PID.TID 0000.0001) %MON advcfl_uvel_max              =   1.0377655385042E-02
(PID.TID 0000.0001) %MON advcfl_vvel_max              =   5.8180275462155E-02
(PID.TID 0000.0001) %MON advcfl_wvel_max              =   2.0272865279907E-01
(PID.TID 0000.0001) %MON advcfl_W_hf_max              =   2.0272865279907E-01
(PID.TID 0000.0001) %MON pe_b_mean                    =   8.0985939018256E-06
(PID.TID 0000.0001) %MON ke_max                       =   1.0571066316756E+00
(PID.TID 0000.0001) %MON ke_mean                      =   5.7853422984306E-05
(PID.TID 0000.0001) %MON ke_vol                       =   2.7059236822589E+15
(PID.TID 0000.0001) %MON vort_r_min                   =  -1.9393425212476E-04
(PID.TID 0000.0001) %MON vort_r_max                   =   1.3478404602739E-04
(PID.TID 0000.0001) %MON vort_a_mean                  =   1.0000000000000E-04
(PID.TID 0000.0001) %MON vort_a_sd                    =   1.0136632628148E-06
(PID.TID 0000.0001) %MON vort_p_mean                  =   1.1277618388223E-04
(PID.TID 0000.0001) %MON vort_p_sd                    =   7.1127652721788E-05
(PID.TID 0000.0001) %MON surfExpan_theta_mean         =   3.8601676263820E-09
(PID.TID 0000.0001) %MON surfExpan_salt_mean          =  -5.1892776200446E-14
(PID.TID 0000.0001) // =======================================================
(PID.TID 0000.0001) // End MONITOR dynamic field statistics
(PID.TID 0000.0001) // =======================================================
 cg2d: Sum(rhs),rhsMax =  -1.42537453712700E+02  7.11868123400767E-02
(PID.TID 0000.0001)                    cg2d_init_res =    2.93165619495834E+00
(PID.TID 0000.0001)                       cg2d_iters =    90
(PID.TID 0000.0001)                         cg2d_res =    8.09778785263990E-12
(PID.TID 0000.0001) // =======================================================
(PID.TID 0000.0001) // Begin MONITOR dynamic field statistics
(PID.TID 0000.0001) // =======================================================
(PID.TID 0000.0001) %MON time_tsnumber                =                     5
(PID.TID 0000.0001) %MON time_secondsf                =   1.5000000000000E+03
(PID.TID 0000.0001) %MON dynstat_eta_max              =   7.7201042487315E-01
(PID.TID 0000.0001) %MON dynstat_eta_min              =   0.0000000000000E+00
(PID.TID 0000.0001) %MON dynstat_eta_mean             =   1.2906692515425E-02
(PID.TID 0000.0001) %MON dynstat_eta_sd               =   6.1699754119916E-02
(PID.TID 0000.0001) %MON dynstat_eta_del2             =   4.9466704730933E-04
(PID.TID 0000.0001) %MON dynstat_uvel_max             =   3.3144018533586E-01
(PID.TID 0000.0001) %MON dynstat_uvel_min             =  -2.3767704646610E-01
(PID.TID 0000.0001) %MON dynstat_uvel_mean            =   6.4733772229773E-05
(PID.TID 0000.0001) %MON dynstat_uvel_sd              =   4.8890006761622E-03
(PID.TID 0000.0001) %MON dynstat_uvel_del2            =   4.4614652217325E-05
(PID.TID 0000.0001) %MON dynstat_vvel_max             =   1.3196350537444E-04
(PID.TID 0000.0001) %MON dynstat_vvel_min             =  -1.9393425212476E+00
(PID.TID 0000.0001) %MON dynstat_vvel_mean            =  -6.8490381433329E-04
(PID.TID 0000.0001) %MON dynstat_vvel_sd              =   1.0369751414033E-02
(PID.TID 0000.0001) %MON dynstat_vvel_del2            =   6.3831232040465E-05
(PID.TID 0000.0001) %MON dynstat_wvel_max             =   2.2008323511695E-02
(PID.TID 0000.0001) %MON dynstat_wvel_min             =  -4.8654876671778E-02
(PID.TID 0000.0001) %MON dynstat_wvel_mean            =   7.4113575619793E-21
(PID.TID 0000.0001) %MON dynstat_wvel_sd              =   2.4155568538247E-04
(PID.TID 0000.0001) %MON dynstat_wvel_del2            =   2.5788867656927E-06
(PID.TID 0000.0001) %MON dynstat_theta_max            =  -1.9417475728155E-01
(PID.TID 0000.0001) %MON dynstat_theta_min            =  -9.7087381093410E+00
(PID.TID 0000.0001) %MON dynstat_theta_mean           =  -4.1282441460928E+00
(PID.TID 0000.0001) %MON dynstat_theta_sd             =   2.6833703200143E+00
(PID.TID 0000.0001) %MON dynstat_theta_del2           =   4.0183386819892E-04
(PID.TID 0000.0001) %MON dynstat_salt_max             =   2.0000000000000E+00
(PID.TID 0000.0001) %MON dynstat_salt_min             =   1.0000000000000E+00
(PID.TID 0000.0001) %MON dynstat_salt_mean            =   1.0000327374888E+00
(PID.TID 0000.0001) %MON dynstat_salt_sd              =   5.1940279133700E-03
(PID.TID 0000.0001) %MON dynstat_salt_del2            =   5.0036572321292E-05
(PID.TID 0000.0001) %MON advcfl_uvel_max              =   9.9432055600757E-03
(PID.TID 0000.0001) %MON advcfl_vvel_max              =   5.8180275462155E-02
(PID.TID 0000.0001) %MON advcfl_wvel_max              =   2.0272865279907E-01
(PID.TID 0000.0001) %MON advcfl_W_hf_max              =   2.0272865279907E-01
(PID.TID 0000.0001) %MON pe_b_mean                    =   7.2951001820622E-06
(PID.TID 0000.0001) %MON ke_max                       =   1.0631467136739E+00
(PID.TID 0000.0001) %MON ke_mean                      =   6.2330494398669E-05
(PID.TID 0000.0001) %MON ke_vol                       =   2.7059236822589E+15
(PID.TID 0000.0001) %MON vort_r_min                   =  -1.9393425212476E-04
(PID.TID 0000.0001) %MON vort_r_max                   =   1.3345065710313E-04
(PID.TID 0000.0001) %MON vort_a_mean                  =   1.0000000000000E-04
(PID.TID 0000.0001) %MON vort_a_sd                    =   1.0119077997768E-06
(PID.TID 0000.0001) %MON vort_p_mean                  =   1.1277618388223E-04
(PID.TID 0000.0001) %MON vort_p_sd                    =   7.1128098382468E-05
(PID.TID 0000.0001) %MON surfExpan_theta_mean         =   4.0302872172553E-09
(PID.TID 0000.0001) %MON surfExpan_salt_mean          =  -9.5104673096655E-14
(PID.TID 0000.0001) // =======================================================
(PID.TID 0000.0001) // End MONITOR dynamic field statistics
(PID.TID 0000.0001) // =======================================================
 cg2d: Sum(rhs),rhsMax =  -1.97219782620333E+02  6.17389604678241E-02
(PID.TID 0000.0001)                    cg2d_init_res =    2.69539157862464E+00
(PID.TID 0000.0001)                       cg2d_iters =    90
(PID.TID 0000.0001)                         cg2d_res =    9.11126181494071E-12
(PID.TID 0000.0001) // =======================================================
(PID.TID 0000.0001) // Begin MONITOR dynamic field statistics
(PID.TID 0000.0001) // =======================================================
(PID.TID 0000.0001) %MON time_tsnumber                =                     6
(PID.TID 0000.0001) %MON time_secondsf                =   1.8000000000000E+03
(PID.TID 0000.0001) %MON dynstat_eta_max              =   6.3541476842826E-01
(PID.TID 0000.0001) %MON dynstat_eta_min              =   0.0000000000000E+00
(PID.TID 0000.0001) %MON dynstat_eta_mean             =   1.5488031018531E-02
(PID.TID 0000.0001) %MON dynstat_eta_sd               =   5.5993176640431E-02
(PID.TID 0000.0001) %MON dynstat_eta_del2             =   3.5744969210035E-04
(PID.TID 0000.0001) %MON dynstat_uvel_max             =   3.2149889404869E-01
(PID.TID 0000.0001) %MON dynstat_uvel_min             =  -2.4267061575611E-01
(PID.TID 0000.0001) %MON dynstat_uvel_mean            =   2.9113071575643E-05
(PID.TID 0000.0001) %MON dynstat_uvel_sd              =   4.9438517566771E-03
(PID.TID 0000.0001) %MON dynstat_uvel_del2            =   4.2040596485639E-05
(PID.TID 0000.0001) %MON dynstat_vvel_max             =   2.1000296184036E-04
(PID.TID 0000.0001) %MON dynstat_vvel_min             =  -1.9393425212476E+00
(PID.TID 0000.0001) %MON dynstat_vvel_mean            =  -8.9794571445133E-04
(PID.TID 0000.0001) %MON dynstat_vvel_sd              =   1.0646426013781E-02
(PID.TID 0000.0001) %MON dynstat_vvel_del2            =   6.4473157638196E-05
(PID.TID 0000.0001) %MON dynstat_wvel_max             =   2.1997128045028E-02
(PID.TID 0000.0001) %MON dynstat_wvel_min             =  -4.8654876671778E-02
(PID.TID 0000.0001) %MON dynstat_wvel_mean            =  -2.7680974026670E-21
(PID.TID 0000.0001) %MON dynstat_wvel_sd              =   2.4217217462958E-04
(PID.TID 0000.0001) %MON dynstat_wvel_del2            =   2.6281746279225E-06
(PID.TID 0000.0001) %MON dynstat_theta_max            =  -1.9417475728155E-01
(PID.TID 0000.0001) %MON dynstat_theta_min            =  -9.7087381093410E+00
(PID.TID 0000.0001) %MON dynstat_theta_mean           =  -4.1282523808297E+00
(PID.TID 0000.0001) %MON dynstat_theta_sd             =   2.6833657566744E+00
(PID.TID 0000.0001) %MON dynstat_theta_del2           =   3.9421361044576E-04
(PID.TID 0000.0001) %MON dynstat_salt_max             =   2.0000000000000E+00
(PID.TID 0000.0001) %MON dynstat_salt_min             =   1.0000000000000E+00
(PID.TID 0000.0001) %MON dynstat_salt_mean            =   1.0000336049460E+00
(PID.TID 0000.0001) %MON dynstat_salt_sd              =   5.2243823158979E-03
(PID.TID 0000.0001) %MON dynstat_salt_del2            =   4.9049257955677E-05
(PID.TID 0000.0001) %MON advcfl_uvel_max              =   9.6449668214606E-03
(PID.TID 0000.0001) %MON advcfl_vvel_max              =   5.8180275462155E-02
(PID.TID 0000.0001) %MON advcfl_wvel_max              =   2.0272865279907E-01
(PID.TID 0000.0001) %MON advcfl_W_hf_max              =   2.0272865279907E-01
(PID.TID 0000.0001) %MON pe_b_mean                    =   6.1965920942130E-06
(PID.TID 0000.0001) %MON ke_max                       =   1.0715596269952E+00
(PID.TID 0000.0001) %MON ke_mean                      =   6.5470159848994E-05
(PID.TID 0000.0001) %MON ke_vol                       =   2.7059236822589E+15
(PID.TID 0000.0001) %MON vort_r_min                   =  -1.9393425212476E-04
(PID.TID 0000.0001) %MON vort_r_max                   =   1.3241136795302E-04
(PID.TID 0000.0001) %MON vort_a_mean                  =   1.0000000000000E-04
(PID.TID 0000.0001) %MON vort_a_sd                    =   1.0071426862450E-06
(PID.TID 0000.0001) %MON vort_p_mean                  =   1.1277618388223E-04
(PID.TID 0000.0001) %MON vort_p_sd                    =   7.1128108928684E-05
(PID.TID 0000.0001) %MON surfExpan_theta_mean         =   3.7316745892555E-09
(PID.TID 0000.0001) %MON surfExpan_salt_mean          =  -1.3904945947353E-13
(PID.TID 0000.0001) // =======================================================
(PID.TID 0000.0001) // End MONITOR dynamic field statistics
(PID.TID 0000.0001) // =======================================================
 cg2d: Sum(rhs),rhsMax =  -2.55473694404406E+02  5.56045576026008E-02
(PID.TID 0000.0001)                    cg2d_init_res =    2.86538441229780E+00
(PID.TID 0000.0001)                       cg2d_iters =    90
(PID.TID 0000.0001)                         cg2d_res =    9.46321372252387E-12
(PID.TID 0000.0001) // =======================================================
(PID.TID 0000.0001) // Begin MONITOR dynamic field statistics
(PID.TID 0000.0001) // =======================================================
(PID.TID 0000.0001) %MON time_tsnumber                =                     7
(PID.TID 0000.0001) %MON time_secondsf                =   2.1000000000000E+03
(PID.TID 0000.0001) %MON dynstat_eta_max              =   3.9117033911326E-01
(PID.TID 0000.0001) %MON dynstat_eta_min              =   0.0000000000000E+00
(PID.TID 0000.0001) %MON dynstat_eta_mean             =   1.8069369521636E-02
(PID.TID 0000.0001) %MON dynstat_eta_sd               =   4.9829018432308E-02
(PID.TID 0000.0001) %MON dynstat_eta_del2             =   2.2854506437945E-04
(PID.TID 0000.0001) %MON dynstat_uvel_max             =   3.2091106740566E-01
(PID.TID 0000.0001) %MON dynstat_uvel_min             =  -2.4209525062175E-01
(PID.TID 0000.0001) %MON dynstat_uvel_mean            =  -2.0157430400884E-05
(PID.TID 0000.0001) %MON dynstat_uvel_sd              =   5.0280186616245E-03
(PID.TID 0000.0001) %MON dynstat_uvel_del2            =   4.0522533337823E-05
(PID.TID 0000.0001) %MON dynstat_vvel_max             =   3.8133756269229E-04
(PID.TID 0000.0001) %MON dynstat_vvel_min             =  -1.9393425212476E+00
(PID.TID 0000.0001) %MON dynstat_vvel_mean            =  -1.1239364219338E-03
(PID.TID 0000.0001) %MON dynstat_vvel_sd              =   1.0794793094344E-02
(PID.TID 0000.0001) %MON dynstat_vvel_del2            =   6.4726150499792E-05
(PID.TID 0000.0001) %MON dynstat_wvel_max             =   2.1807672684342E-02
(PID.TID 0000.0001) %MON dynstat_wvel_min             =  -4.8654876671778E-02
(PID.TID 0000.0001) %MON dynstat_wvel_mean            =  -3.1252712610756E-21
(PID.TID 0000.0001) %MON dynstat_wvel_sd              =   2.4254916145230E-04
(PID.TID 0000.0001) %MON dynstat_wvel_del2            =   2.6851218884904E-06
(PID.TID 0000.0001) %MON dynstat_theta_max            =  -1.9417475728155E-01
(PID.TID 0000.0001) %MON dynstat_theta_min            =  -9.7087381093410E+00
(PID.TID 0000.0001) %MON dynstat_theta_mean           =  -4.1282606155277E+00
(PID.TID 0000.0001) %MON dynstat_theta_sd             =   2.6833617857917E+00
(PID.TID 0000.0001) %MON dynstat_theta_del2           =   3.8685858459027E-04
(PID.TID 0000.0001) %MON dynstat_salt_max             =   2.0000000000000E+00
(PID.TID 0000.0001) %MON dynstat_salt_min             =   1.0000000000000E+00
(PID.TID 0000.0001) %MON dynstat_salt_mean            =   1.0000344724032E+00
(PID.TID 0000.0001) %MON dynstat_salt_sd              =   5.2590533234318E-03
(PID.TID 0000.0001) %MON dynstat_salt_del2            =   4.8088337876059E-05
(PID.TID 0000.0001) %MON advcfl_uvel_max              =   9.6273320221699E-03
(PID.TID 0000.0001) %MON advcfl_vvel_max              =   5.8180275462155E-02
(PID.TID 0000.0001) %MON advcfl_wvel_max              =   2.0272865279907E-01
(PID.TID 0000.0001) %MON advcfl_W_hf_max              =   2.0272865279907E-01
(PID.TID 0000.0001) %MON pe_b_mean                    =   5.1580203479338E-06
(PID.TID 0000.0001) %MON ke_max                       =   1.0819149851218E+00
(PID.TID 0000.0001) %MON ke_mean                      =   6.7586502777567E-05
(PID.TID 0000.0001) %MON ke_vol                       =   2.7059236822589E+15
(PID.TID 0000.0001) %MON vort_r_min                   =  -1.9393425212476E-04
(PID.TID 0000.0001) %MON vort_r_max                   =   1.3166519781519E-04
(PID.TID 0000.0001) %MON vort_a_mean                  =   1.0000000000000E-04
(PID.TID 0000.0001) %MON vort_a_sd                    =   1.0023796056143E-06
(PID.TID 0000.0001) %MON vort_p_mean                  =   1.1277618388223E-04
(PID.TID 0000.0001) %MON vort_p_sd                    =   7.1126849927977E-05
(PID.TID 0000.0001) %MON surfExpan_theta_mean         =   3.3612865131295E-09
(PID.TID 0000.0001) %MON surfExpan_salt_mean          =  -1.7719618230878E-13
(PID.TID 0000.0001) // =======================================================
(PID.TID 0000.0001) // End MONITOR dynamic field statistics
(PID.TID 0000.0001) // =======================================================
 cg2d: Sum(rhs),rhsMax =  -2.90783425147814E+02  5.58314461767566E-02
(PID.TID 0000.0001)                    cg2d_init_res =    2.78163944899312E+00
(PID.TID 0000.0001)                       cg2d_iters =    90
(PID.TID 0000.0001)                         cg2d_res =    9.33267711898763E-12
(PID.TID 0000.0001) // =======================================================
(PID.TID 0000.0001) // Begin MONITOR dynamic field statistics
(PID.TID 0000.0001) // =======================================================
(PID.TID 0000.0001) %MON time_tsnumber                =                     8
(PID.TID 0000.0001) %MON time_secondsf                =   2.4000000000000E+03
(PID.TID 0000.0001) %MON dynstat_eta_max              =   2.6519539027907E-01
(PID.TID 0000.0001) %MON dynstat_eta_min              =   0.0000000000000E+00
(PID.TID 0000.0001) %MON dynstat_eta_mean             =   2.0650708024721E-02
(PID.TID 0000.0001) %MON dynstat_eta_sd               =   4.5009851371070E-02
(PID.TID 0000.0001) %MON dynstat_eta_del2             =   1.1795247819720E-04
(PID.TID 0000.0001) %MON dynstat_uvel_max             =   3.2202153161590E-01
(PID.TID 0000.0001) %MON dynstat_uvel_min             =  -2.3958243914025E-01
(PID.TID 0000.0001) %MON dynstat_uvel_mean            =  -8.8267850549312E-05
(PID.TID 0000.0001) %MON dynstat_uvel_sd              =   5.1188597330947E-03
(PID.TID 0000.0001) %MON dynstat_uvel_del2            =   4.0299242608785E-05
(PID.TID 0000.0001) %MON dynstat_vvel_max             =   6.1022073644140E-04
(PID.TID 0000.0001) %MON dynstat_vvel_min             =  -1.9393425212476E+00
(PID.TID 0000.0001) %MON dynstat_vvel_mean            =  -1.3479831234988E-03
(PID.TID 0000.0001) %MON dynstat_vvel_sd              =   1.0830819086613E-02
(PID.TID 0000.0001) %MON dynstat_vvel_del2            =   6.4911614457799E-05
(PID.TID 0000.0001) %MON dynstat_wvel_max             =   2.1473797192159E-02
(PID.TID 0000.0001) %MON dynstat_wvel_min             =  -4.8654876671778E-02
(PID.TID 0000.0001) %MON dynstat_wvel_mean            =   7.5676211250331E-21
(PID.TID 0000.0001) %MON dynstat_wvel_sd              =   2.4257212479644E-04
(PID.TID 0000.0001) %MON dynstat_wvel_del2            =   2.7263149888531E-06
(PID.TID 0000.0001) %MON dynstat_theta_max            =  -1.9417475728155E-01
(PID.TID 0000.0001) %MON dynstat_theta_min            =  -9.7087381093410E+00
(PID.TID 0000.0001) %MON dynstat_theta_mean           =  -4.1282688501943E+00
(PID.TID 0000.0001) %MON dynstat_theta_sd             =   2.6833583245766E+00
(PID.TID 0000.0001) %MON dynstat_theta_del2           =   3.8094833356970E-04
(PID.TID 0000.0001) %MON dynstat_salt_max             =   2.0000000000000E+00
(PID.TID 0000.0001) %MON dynstat_salt_min             =   1.0000000000000E+00
(PID.TID 0000.0001) %MON dynstat_salt_mean            =   1.0000353398604E+00
(PID.TID 0000.0001) %MON dynstat_salt_sd              =   5.2974742367020E-03
(PID.TID 0000.0001) %MON dynstat_salt_del2            =   4.7156870696249E-05
(PID.TID 0000.0001) %MON advcfl_uvel_max              =   9.6606459484769E-03
(PID.TID 0000.0001) %MON advcfl_vvel_max              =   5.8180275462155E-02
(PID.TID 0000.0001) %MON advcfl_wvel_max              =   2.0272865279907E-01
(PID.TID 0000.0001) %MON advcfl_W_hf_max              =   2.0272865279907E-01
(PID.TID 0000.0001) %MON pe_b_mean                    =   4.5024070055012E-06
(PID.TID 0000.0001) %MON ke_max                       =   1.0940621396942E+00
(PID.TID 0000.0001) %MON ke_mean                      =   6.8671183711570E-05
(PID.TID 0000.0001) %MON ke_vol                       =   2.7059236822589E+15
(PID.TID 0000.0001) %MON vort_r_min                   =  -1.9393425212476E-04
(PID.TID 0000.0001) %MON vort_r_max                   =   1.3115604755959E-04
(PID.TID 0000.0001) %MON vort_a_mean                  =   1.0000000000000E-04
(PID.TID 0000.0001) %MON vort_a_sd                    =   9.9824956432522E-07
(PID.TID 0000.0001) %MON vort_p_mean                  =   1.1277618388223E-04
(PID.TID 0000.0001) %MON vort_p_sd                    =   7.1123986470368E-05
(PID.TID 0000.0001) %MON surfExpan_theta_mean         =   3.0591509070601E-09
(PID.TID 0000.0001) %MON surfExpan_salt_mean          =  -2.3114547645531E-13
(PID.TID 0000.0001) // =======================================================
(PID.TID 0000.0001) // End MONITOR dynamic field statistics
(PID.TID 0000.0001) // =======================================================
 cg2d: Sum(rhs),rhsMax =  -3.31407148254148E+02  5.51111122380010E-02
(PID.TID 0000.0001)                    cg2d_init_res =    2.60834487208188E+00
(PID.TID 0000.0001)                       cg2d_iters =    91
(PID.TID 0000.0001)                         cg2d_res =    7.52510970100891E-12
(PID.TID 0000.0001) // =======================================================
(PID.TID 0000.0001) // Begin MONITOR dynamic field statistics
(PID.TID 0000.0001) // =======================================================
(PID.TID 0000.0001) %MON time_tsnumber                =                     9
(PID.TID 0000.0001) %MON time_secondsf                =   2.7000000000000E+03
(PID.TID 0000.0001) %MON dynstat_eta_max              =   2.2685800432448E-01
(PID.TID 0000.0001) %MON dynstat_eta_min              =  -6.3910386236718E-02
(PID.TID 0000.0001) %MON dynstat_eta_mean             =   2.3232046527682E-02
(PID.TID 0000.0001) %MON dynstat_eta_sd               =   4.2469130825760E-02
(PID.TID 0000.0001) %MON dynstat_eta_del2             =   9.5876481456621E-05
(PID.TID 0000.0001) %MON dynstat_uvel_max             =   3.2399372475863E-01
(PID.TID 0000.0001) %MON dynstat_uvel_min             =  -2.3590759230010E-01
(PID.TID 0000.0001) %MON dynstat_uvel_mean            =  -1.8299190121630E-04
(PID.TID 0000.0001) %MON dynstat_uvel_sd              =   5.1802009236064E-03
(PID.TID 0000.0001) %MON dynstat_uvel_del2            =   4.0972963824006E-05
(PID.TID 0000.0001) %MON dynstat_vvel_max             =   8.0687858671517E-04
(PID.TID 0000.0001) %MON dynstat_vvel_min             =  -1.9393425212476E+00
(PID.TID 0000.0001) %MON dynstat_vvel_mean            =  -1.5516594484343E-03
(PID.TID 0000.0001) %MON dynstat_vvel_sd              =   1.0778318039234E-02
(PID.TID 0000.0001) %MON dynstat_vvel_del2            =   6.5316082304630E-05
(PID.TID 0000.0001) %MON dynstat_wvel_max             =   2.1031628203249E-02
(PID.TID 0000.0001) %MON dynstat_wvel_min             =  -4.8654876671778E-02
(PID.TID 0000.0001) %MON dynstat_wvel_mean            =   9.4204605155279E-21
(PID.TID 0000.0001) %MON dynstat_wvel_sd              =   2.4228178662768E-04
(PID.TID 0000.0001) %MON dynstat_wvel_del2            =   2.7488842418841E-06
(PID.TID 0000.0001) %MON dynstat_theta_max            =  -1.9417475728155E-01
(PID.TID 0000.0001) %MON dynstat_theta_min            =  -9.7087381093410E+00
(PID.TID 0000.0001) %MON dynstat_theta_mean           =  -4.1282770848308E+00
(PID.TID 0000.0001) %MON dynstat_theta_sd             =   2.6833552666086E+00
(PID.TID 0000.0001) %MON dynstat_theta_del2           =   3.7734621419027E-04
(PID.TID 0000.0001) %MON dynstat_salt_max             =   2.0000000000000E+00
(PID.TID 0000.0001) %MON dynstat_salt_min             =   1.0000000000000E+00
(PID.TID 0000.0001) %MON dynstat_salt_mean            =   1.0000362073176E+00
(PID.TID 0000.0001) %MON dynstat_salt_sd              =   5.3387893855182E-03
(PID.TID 0000.0001) %MON dynstat_salt_del2            =   4.6512116860701E-05
(PID.TID 0000.0001) %MON advcfl_uvel_max              =   9.7198117427588E-03
(PID.TID 0000.0001) %MON advcfl_vvel_max              =   5.8180275462155E-02
(PID.TID 0000.0001) %MON advcfl_wvel_max              =   2.0272865279907E-01
(PID.TID 0000.0001) %MON advcfl_W_hf_max              =   2.0272865279907E-01
(PID.TID 0000.0001) %MON pe_b_mean                    =   4.3023173170189E-06
(PID.TID 0000.0001) %MON ke_max                       =   1.1079008098982E+00
(PID.TID 0000.0001) %MON ke_mean                      =   6.8744203948824E-05
(PID.TID 0000.0001) %MON ke_vol                       =   2.7059236822589E+15
(PID.TID 0000.0001) %MON vort_r_min                   =  -1.9393425212476E-04
(PID.TID 0000.0001) %MON vort_r_max                   =   1.3080315522679E-04
(PID.TID 0000.0001) %MON vort_a_mean                  =   1.0000000000000E-04
(PID.TID 0000.0001) %MON vort_a_sd                    =   9.9483614167709E-07
(PID.TID 0000.0001) %MON vort_p_mean                  =   1.1277618388223E-04
(PID.TID 0000.0001) %MON vort_p_sd                    =   7.1119662774379E-05
(PID.TID 0000.0001) %MON surfExpan_theta_mean         =   2.7705619251273E-09
(PID.TID 0000.0001) %MON surfExpan_salt_mean          =  -3.3706830892066E-13
(PID.TID 0000.0001) // =======================================================
(PID.TID 0000.0001) // End MONITOR dynamic field statistics
(PID.TID 0000.0001) // =======================================================
 cg2d: Sum(rhs),rhsMax =  -3.85484324798052E+02  5.26443557665141E-02
(PID.TID 0000.0001)                    cg2d_init_res =    2.54511777362824E+00
(PID.TID 0000.0001)                       cg2d_iters =    91
(PID.TID 0000.0001)                         cg2d_res =    7.77270142776949E-12
(PID.TID 0000.0001) // =======================================================
(PID.TID 0000.0001) // Begin MONITOR dynamic field statistics
(PID.TID 0000.0001) // =======================================================
(PID.TID 0000.0001) %MON time_tsnumber                =                    10
(PID.TID 0000.0001) %MON time_secondsf                =   3.0000000000000E+03
(PID.TID 0000.0001) %MON dynstat_eta_max              =   1.9928761738143E-01
(PID.TID 0000.0001) %MON dynstat_eta_min              =  -1.8095268353004E-01
(PID.TID 0000.0001) %MON dynstat_eta_mean             =   2.5813385030003E-02
(PID.TID 0000.0001) %MON dynstat_eta_sd               =   4.2057145757849E-02
(PID.TID 0000.0001) %MON dynstat_eta_del2             =   1.5168015976063E-04
(PID.TID 0000.0001) %MON dynstat_uvel_max             =   3.2593968303739E-01
(PID.TID 0000.0001) %MON dynstat_uvel_min             =  -2.3109709901465E-01
(PID.TID 0000.0001) %MON dynstat_uvel_mean            =  -3.1133420966756E-04
(PID.TID 0000.0001) %MON dynstat_uvel_sd              =   5.1883991403474E-03
(PID.TID 0000.0001) %MON dynstat_uvel_del2            =   4.2263273756909E-05
(PID.TID 0000.0001) %MON dynstat_vvel_max             =   8.6441809950029E-04
(PID.TID 0000.0001) %MON dynstat_vvel_min             =  -1.9393425212476E+00
(PID.TID 0000.0001) %MON dynstat_vvel_mean            =  -1.7150479313132E-03
(PID.TID 0000.0001) %MON dynstat_vvel_sd              =   1.0663934306355E-02
(PID.TID 0000.0001) %MON dynstat_vvel_del2            =   6.5966175146488E-05
(PID.TID 0000.0001) %MON dynstat_wvel_max             =   2.0521440265140E-02
(PID.TID 0000.0001) %MON dynstat_wvel_min             =  -4.8654876671778E-02
(PID.TID 0000.0001) %MON dynstat_wvel_mean            =  -1.3712127657969E-20
(PID.TID 0000.0001) %MON dynstat_wvel_sd              =   2.4179229895488E-04
(PID.TID 0000.0001) %MON dynstat_wvel_del2            =   2.7536280492273E-06
(PID.TID 0000.0001) %MON dynstat_theta_max            =  -1.9417475728156E-01
(PID.TID 0000.0001) %MON dynstat_theta_min            =  -9.7087381093410E+00
(PID.TID 0000.0001) %MON dynstat_theta_mean           =  -4.1282853194233E+00
(PID.TID 0000.0001) %MON dynstat_theta_sd             =   2.6833525588851E+00
(PID.TID 0000.0001) %MON dynstat_theta_del2           =   3.7775860202708E-04
(PID.TID 0000.0001) %MON dynstat_salt_max             =   2.0000000000000E+00
(PID.TID 0000.0001) %MON dynstat_salt_min             =   1.0000000000000E+00
(PID.TID 0000.0001) %MON dynstat_salt_mean            =   1.0000370747749E+00
(PID.TID 0000.0001) %MON dynstat_salt_sd              =   5.3824778227469E-03
(PID.TID 0000.0001) %MON dynstat_salt_del2            =   4.6401612421337E-05
(PID.TID 0000.0001) %MON advcfl_uvel_max              =   9.7781904911217E-03
(PID.TID 0000.0001) %MON advcfl_vvel_max              =   5.8180275462155E-02
(PID.TID 0000.0001) %MON advcfl_wvel_max              =   2.0272865279907E-01
(PID.TID 0000.0001) %MON advcfl_W_hf_max              =   2.0272865279907E-01
(PID.TID 0000.0001) %MON pe_b_mean                    =   4.4708208724265E-06
(PID.TID 0000.0001) %MON ke_max                       =   1.1233046553591E+00
(PID.TID 0000.0001) %MON ke_mean                      =   6.7921880387798E-05
(PID.TID 0000.0001) %MON ke_vol                       =   2.7059236822589E+15
(PID.TID 0000.0001) %MON vort_r_min                   =  -1.9393425212476E-04
(PID.TID 0000.0001) %MON vort_r_max                   =   1.3051689072637E-04
(PID.TID 0000.0001) %MON vort_a_mean                  =   1.0000000000000E-04
(PID.TID 0000.0001) %MON vort_a_sd                    =   9.9198990327230E-07
(PID.TID 0000.0001) %MON vort_p_mean                  =   1.1277618388223E-04
(PID.TID 0000.0001) %MON vort_p_sd                    =   7.1114285620707E-05
(PID.TID 0000.0001) %MON surfExpan_theta_mean         =   2.3635639605838E-09
(PID.TID 0000.0001) %MON surfExpan_salt_mean          =  -4.8733670889457E-13
(PID.TID 0000.0001) // =======================================================
(PID.TID 0000.0001) // End MONITOR dynamic field statistics
(PID.TID 0000.0001) // =======================================================
 Computing Diagnostic # 272  VISCA4       Counter:   10      Parms: SM      MR      
 cg2d: Sum(rhs),rhsMax =  -4.52521502053248E+02  4.93301008387351E-02
(PID.TID 0000.0001)                    cg2d_init_res =    2.63936196405714E+00
(PID.TID 0000.0001)                       cg2d_iters =    91
(PID.TID 0000.0001)                         cg2d_res =    8.26212610534786E-12
(PID.TID 0000.0001) // =======================================================
(PID.TID 0000.0001) // Begin MONITOR dynamic field statistics
(PID.TID 0000.0001) // =======================================================
(PID.TID 0000.0001) %MON time_tsnumber                =                    11
(PID.TID 0000.0001) %MON time_secondsf                =   3.3000000000000E+03
(PID.TID 0000.0001) %MON dynstat_eta_max              =   1.7856845762315E-01
(PID.TID 0000.0001) %MON dynstat_eta_min              =  -2.2586011856898E-01
(PID.TID 0000.0001) %MON dynstat_eta_mean             =   2.8394723529430E-02
(PID.TID 0000.0001) %MON dynstat_eta_sd               =   4.3143896588471E-02
(PID.TID 0000.0001) %MON dynstat_eta_del2             =   1.8231724216187E-04
(PID.TID 0000.0001) %MON dynstat_uvel_max             =   3.2714467651795E-01
(PID.TID 0000.0001) %MON dynstat_uvel_min             =  -2.2549316029346E-01
(PID.TID 0000.0001) %MON dynstat_uvel_mean            =  -4.7652482416237E-04
(PID.TID 0000.0001) %MON dynstat_uvel_sd              =   5.1361155902310E-03
(PID.TID 0000.0001) %MON dynstat_uvel_del2            =   4.3674677016914E-05
(PID.TID 0000.0001) %MON dynstat_vvel_max             =   7.3646355313316E-04
(PID.TID 0000.0001) %MON dynstat_vvel_min             =  -1.9393425212476E+00
(PID.TID 0000.0001) %MON dynstat_vvel_mean            =  -1.8198597456054E-03
(PID.TID 0000.0001) %MON dynstat_vvel_sd              =   1.0512900134739E-02
(PID.TID 0000.0001) %MON dynstat_vvel_del2            =   6.6658680305620E-05
(PID.TID 0000.0001) %MON dynstat_wvel_max             =   1.9973481927724E-02
(PID.TID 0000.0001) %MON dynstat_wvel_min             =  -4.8654876671778E-02
(PID.TID 0000.0001) %MON dynstat_wvel_mean            =   1.9644562212475E-20
(PID.TID 0000.0001) %MON dynstat_wvel_sd              =   2.4117554173754E-04
(PID.TID 0000.0001) %MON dynstat_wvel_del2            =   2.7471687741838E-06
(PID.TID 0000.0001) %MON dynstat_theta_max            =  -1.9417475728157E-01
(PID.TID 0000.0001) %MON dynstat_theta_min            =  -9.7087381093410E+00
(PID.TID 0000.0001) %MON dynstat_theta_mean           =  -4.1282935539474E+00
(PID.TID 0000.0001) %MON dynstat_theta_sd             =   2.6833501363924E+00
(PID.TID 0000.0001) %MON dynstat_theta_del2           =   3.7871786979603E-04
(PID.TID 0000.0001) %MON dynstat_salt_max             =   2.0000000000000E+00
(PID.TID 0000.0001) %MON dynstat_salt_min             =   1.0000000000000E+00
(PID.TID 0000.0001) %MON dynstat_salt_mean            =   1.0000379422321E+00
(PID.TID 0000.0001) %MON dynstat_salt_sd              =   5.4280678861909E-03
(PID.TID 0000.0001) %MON dynstat_salt_del2            =   4.6407839599727E-05
(PID.TID 0000.0001) %MON advcfl_uvel_max              =   9.8143402955384E-03
(PID.TID 0000.0001) %MON advcfl_vvel_max              =   5.8180275462155E-02
(PID.TID 0000.0001) %MON advcfl_wvel_max              =   2.0272865279907E-01
(PID.TID 0000.0001) %MON advcfl_W_hf_max              =   2.0272865279907E-01
(PID.TID 0000.0001) %MON pe_b_mean                    =   4.8977226693952E-06
(PID.TID 0000.0001) %MON ke_max                       =   1.1402168523486E+00
(PID.TID 0000.0001) %MON ke_mean                      =   6.6397405424099E-05
(PID.TID 0000.0001) %MON ke_vol                       =   2.7059236822589E+15
(PID.TID 0000.0001) %MON vort_r_min                   =  -1.9393425212476E-04
(PID.TID 0000.0001) %MON vort_r_max                   =   1.3022364033557E-04
(PID.TID 0000.0001) %MON vort_a_mean                  =   1.0000000000000E-04
(PID.TID 0000.0001) %MON vort_a_sd                    =   9.8952611397376E-07
(PID.TID 0000.0001) %MON vort_p_mean                  =   1.1277618388223E-04
(PID.TID 0000.0001) %MON vort_p_sd                    =   7.1108337693760E-05
(PID.TID 0000.0001) %MON surfExpan_theta_mean         =   1.7445997238210E-09
(PID.TID 0000.0001) %MON surfExpan_salt_mean          =  -6.1679749860948E-13
(PID.TID 0000.0001) // =======================================================
(PID.TID 0000.0001) // End MONITOR dynamic field statistics
(PID.TID 0000.0001) // =======================================================
 cg2d: Sum(rhs),rhsMax =  -5.21408969081092E+02  4.67047752414389E-02
(PID.TID 0000.0001)                    cg2d_init_res =    2.72391279100635E+00
(PID.TID 0000.0001)                       cg2d_iters =    91
(PID.TID 0000.0001)                         cg2d_res =    7.57931740858174E-12
(PID.TID 0000.0001) // =======================================================
(PID.TID 0000.0001) // Begin MONITOR dynamic field statistics
(PID.TID 0000.0001) // =======================================================
(PID.TID 0000.0001) %MON time_tsnumber                =                    12
(PID.TID 0000.0001) %MON time_secondsf                =   3.6000000000000E+03
(PID.TID 0000.0001) %MON dynstat_eta_max              =   1.6255969975167E-01
(PID.TID 0000.0001) %MON dynstat_eta_min              =  -2.2308106334317E-01
(PID.TID 0000.0001) %MON dynstat_eta_mean             =   3.0976062017310E-02
(PID.TID 0000.0001) %MON dynstat_eta_sd               =   4.4998612614298E-02
(PID.TID 0000.0001) %MON dynstat_eta_del2             =   1.9116990900510E-04
(PID.TID 0000.0001) %MON dynstat_uvel_max             =   3.2724629047791E-01
(PID.TID 0000.0001) %MON dynstat_uvel_min             =  -2.1991423764329E-01
(PID.TID 0000.0001) %MON dynstat_uvel_mean            =  -6.7640868889812E-04
(PID.TID 0000.0001) %MON dynstat_uvel_sd              =   5.0348116493629E-03
(PID.TID 0000.0001) %MON dynstat_uvel_del2            =   4.4728838078984E-05
(PID.TID 0000.0001) %MON dynstat_vvel_max             =   7.3266708035010E-04
(PID.TID 0000.0001) %MON dynstat_vvel_min             =  -1.9393425212476E+00
(PID.TID 0000.0001) %MON dynstat_vvel_mean            =  -1.8529204130229E-03
(PID.TID 0000.0001) %MON dynstat_vvel_sd              =   1.0347778858149E-02
(PID.TID 0000.0001) %MON dynstat_vvel_del2            =   6.7069317342307E-05
(PID.TID 0000.0001) %MON dynstat_wvel_max             =   1.9401135765234E-02
(PID.TID 0000.0001) %MON dynstat_wvel_min             =  -4.8654876671778E-02
(PID.TID 0000.0001) %MON dynstat_wvel_mean            =   1.0045514767743E-20
(PID.TID 0000.0001) %MON dynstat_wvel_sd              =   2.4045575752907E-04
(PID.TID 0000.0001) %MON dynstat_wvel_del2            =   2.7308790407127E-06
(PID.TID 0000.0001) %MON dynstat_theta_max            =  -1.9417475728166E-01
(PID.TID 0000.0001) %MON dynstat_theta_min            =  -9.7087381093410E+00
(PID.TID 0000.0001) %MON dynstat_theta_mean           =  -4.1283017883798E+00
(PID.TID 0000.0001) %MON dynstat_theta_sd             =   2.6833479730075E+00
(PID.TID 0000.0001) %MON dynstat_theta_del2           =   3.7956302438652E-04
(PID.TID 0000.0001) %MON dynstat_salt_max             =   2.0000000000000E+00
(PID.TID 0000.0001) %MON dynstat_salt_min             =   1.0000000000000E+00
(PID.TID 0000.0001) %MON dynstat_salt_mean            =   1.0000388096894E+00
(PID.TID 0000.0001) %MON dynstat_salt_sd              =   5.4750447536306E-03
(PID.TID 0000.0001) %MON dynstat_salt_del2            =   4.6413714349059E-05
(PID.TID 0000.0001) %MON advcfl_uvel_max              =   9.8173887143373E-03
(PID.TID 0000.0001) %MON advcfl_vvel_max              =   5.8180275462155E-02
(PID.TID 0000.0001) %MON advcfl_wvel_max              =   2.0272865279907E-01
(PID.TID 0000.0001) %MON advcfl_W_hf_max              =   2.0272865279907E-01
(PID.TID 0000.0001) %MON pe_b_mean                    =   5.4792377365477E-06
(PID.TID 0000.0001) %MON ke_max                       =   1.1586846226026E+00
(PID.TID 0000.0001) %MON ke_mean                      =   6.4447543696095E-05
(PID.TID 0000.0001) %MON ke_vol                       =   2.7059236822589E+15
(PID.TID 0000.0001) %MON vort_r_min                   =  -1.9393425212476E-04
(PID.TID 0000.0001) %MON vort_r_max                   =   1.2988379377384E-04
(PID.TID 0000.0001) %MON vort_a_mean                  =   1.0000000000000E-04
(PID.TID 0000.0001) %MON vort_a_sd                    =   9.8752590093206E-07
(PID.TID 0000.0001) %MON vort_p_mean                  =   1.1277618388223E-04
(PID.TID 0000.0001) %MON vort_p_sd                    =   7.1102287799123E-05
(PID.TID 0000.0001) %MON surfExpan_theta_mean         =   9.2682222549879E-10
(PID.TID 0000.0001) %MON surfExpan_salt_mean          =  -6.0210923608750E-13
(PID.TID 0000.0001) // =======================================================
(PID.TID 0000.0001) // End MONITOR dynamic field statistics
(PID.TID 0000.0001) // =======================================================
 cg2d: Sum(rhs),rhsMax =  -5.51062708318122E+02  4.78741269565865E-02
(PID.TID 0000.0001)                    cg2d_init_res =    2.50775823523464E+00
(PID.TID 0000.0001)                       cg2d_iters =    90
(PID.TID 0000.0001)                         cg2d_res =    8.35698676409584E-12
(PID.TID 0000.0001) // =======================================================
(PID.TID 0000.0001) // Begin MONITOR dynamic field statistics
(PID.TID 0000.0001) // =======================================================
(PID.TID 0000.0001) %MON time_tsnumber                =                    13
(PID.TID 0000.0001) %MON time_secondsf                =   3.9000000000000E+03
(PID.TID 0000.0001) %MON dynstat_eta_max              =   1.7391032053350E-01
(PID.TID 0000.0001) %MON dynstat_eta_min              =  -1.9626081767235E-01
(PID.TID 0000.0001) %MON dynstat_eta_mean             =   3.3557400463772E-02
(PID.TID 0000.0001) %MON dynstat_eta_sd               =   4.6905484161879E-02
(PID.TID 0000.0001) %MON dynstat_eta_del2             =   1.8237446658401E-04
(PID.TID 0000.0001) %MON dynstat_uvel_max             =   3.2623375085800E-01
(PID.TID 0000.0001) %MON dynstat_uvel_min             =  -2.1534892151628E-01
(PID.TID 0000.0001) %MON dynstat_uvel_mean            =  -9.0358666380878E-04
(PID.TID 0000.0001) %MON dynstat_uvel_sd              =   4.9115535227196E-03
(PID.TID 0000.0001) %MON dynstat_uvel_del2            =   4.5351705986789E-05
(PID.TID 0000.0001) %MON dynstat_vvel_max             =   8.1027983475598E-04
(PID.TID 0000.0001) %MON dynstat_vvel_min             =  -1.9393425212476E+00
(PID.TID 0000.0001) %MON dynstat_vvel_mean            =  -1.8090247041859E-03
(PID.TID 0000.0001) %MON dynstat_vvel_sd              =   1.0188304578938E-02
(PID.TID 0000.0001) %MON dynstat_vvel_del2            =   6.6951026915248E-05
(PID.TID 0000.0001) %MON dynstat_wvel_max             =   1.8801853175984E-02
(PID.TID 0000.0001) %MON dynstat_wvel_min             =  -4.8654876671778E-02
(PID.TID 0000.0001) %MON dynstat_wvel_mean            =  -1.2501085044302E-21
(PID.TID 0000.0001) %MON dynstat_wvel_sd              =   2.3965657620779E-04
(PID.TID 0000.0001) %MON dynstat_wvel_del2            =   2.7015269342915E-06
(PID.TID 0000.0001) %MON dynstat_theta_max            =  -1.9417475728209E-01
(PID.TID 0000.0001) %MON dynstat_theta_min            =  -9.7087381093410E+00
(PID.TID 0000.0001) %MON dynstat_theta_mean           =  -4.1283100227091E+00
(PID.TID 0000.0001) %MON dynstat_theta_sd             =   2.6833460839789E+00
(PID.TID 0000.0001) %MON dynstat_theta_del2           =   3.8036379817028E-04
(PID.TID 0000.0001) %MON dynstat_salt_max             =   2.0000000000000E+00
(PID.TID 0000.0001) %MON dynstat_salt_min             =   1.0000000000000E+00
(PID.TID 0000.0001) %MON dynstat_salt_mean            =   1.0000396771466E+00
(PID.TID 0000.0001) %MON dynstat_salt_sd              =   5.5236394471869E-03
(PID.TID 0000.0001) %MON dynstat_salt_del2            =   4.6418017260522E-05
(PID.TID 0000.0001) %MON advcfl_uvel_max              =   9.7870125257399E-03
(PID.TID 0000.0001) %MON advcfl_vvel_max              =   5.8180275462155E-02
(PID.TID 0000.0001) %MON advcfl_wvel_max              =   2.0272865279907E-01
(PID.TID 0000.0001) %MON advcfl_W_hf_max              =   2.0272865279907E-01
(PID.TID 0000.0001) %MON pe_b_mean                    =   6.1068292712452E-06
(PID.TID 0000.0001) %MON ke_max                       =   1.1788552815294E+00
(PID.TID 0000.0001) %MON ke_mean                      =   6.2411702140448E-05
(PID.TID 0000.0001) %MON ke_vol                       =   2.7059236822589E+15
(PID.TID 0000.0001) %MON vort_r_min                   =  -1.9393425212476E-04
(PID.TID 0000.0001) %MON vort_r_max                   =   1.2949330109687E-04
(PID.TID 0000.0001) %MON vort_a_mean                  =   1.0000000000000E-04
(PID.TID 0000.0001) %MON vort_a_sd                    =   9.8638827624487E-07
(PID.TID 0000.0001) %MON vort_p_mean                  =   1.1277618388223E-04
(PID.TID 0000.0001) %MON vort_p_sd                    =   7.1096555386525E-05
(PID.TID 0000.0001) %MON surfExpan_theta_mean         =   1.2605311026471E-11
(PID.TID 0000.0001) %MON surfExpan_salt_mean          =  -3.6086238913521E-13
(PID.TID 0000.0001) // =======================================================
(PID.TID 0000.0001) // End MONITOR dynamic field statistics
(PID.TID 0000.0001) // =======================================================
 cg2d: Sum(rhs),rhsMax =  -5.77297881406061E+02  4.92137667872633E-02
(PID.TID 0000.0001)                    cg2d_init_res =    2.19307304963286E+00
(PID.TID 0000.0001)                       cg2d_iters =    89
(PID.TID 0000.0001)                         cg2d_res =    9.29167476174418E-12
(PID.TID 0000.0001) // =======================================================
(PID.TID 0000.0001) // Begin MONITOR dynamic field statistics
(PID.TID 0000.0001) // =======================================================
(PID.TID 0000.0001) %MON time_tsnumber                =                    14
(PID.TID 0000.0001) %MON time_secondsf                =   4.2000000000000E+03
(PID.TID 0000.0001) %MON dynstat_eta_max              =   1.6732373961120E-01
(PID.TID 0000.0001) %MON dynstat_eta_min              =  -1.7943253452071E-01
(PID.TID 0000.0001) %MON dynstat_eta_mean             =   3.6138738775373E-02
(PID.TID 0000.0001) %MON dynstat_eta_sd               =   4.8304353650704E-02
(PID.TID 0000.0001) %MON dynstat_eta_del2             =   1.6506933608824E-04
(PID.TID 0000.0001) %MON dynstat_uvel_max             =   3.2432490810396E-01
(PID.TID 0000.0001) %MON dynstat_uvel_min             =  -2.1257343497327E-01
(PID.TID 0000.0001) %MON dynstat_uvel_mean            =  -1.1470060852444E-03
(PID.TID 0000.0001) %MON dynstat_uvel_sd              =   4.7970398497045E-03
(PID.TID 0000.0001) %MON dynstat_uvel_del2            =   4.5664087098292E-05
(PID.TID 0000.0001) %MON dynstat_vvel_max             =   8.8834953894856E-04
(PID.TID 0000.0001) %MON dynstat_vvel_min             =  -1.9393425212476E+00
(PID.TID 0000.0001) %MON dynstat_vvel_mean            =  -1.6923060298833E-03
(PID.TID 0000.0001) %MON dynstat_vvel_sd              =   1.0050799405056E-02
(PID.TID 0000.0001) %MON dynstat_vvel_del2            =   6.6640884245113E-05
(PID.TID 0000.0001) %MON dynstat_wvel_max             =   1.8166336086515E-02
(PID.TID 0000.0001) %MON dynstat_wvel_min             =  -4.8654876671778E-02
(PID.TID 0000.0001) %MON dynstat_wvel_mean            =   9.6436941770333E-21
(PID.TID 0000.0001) %MON dynstat_wvel_sd              =   2.3882676799480E-04
(PID.TID 0000.0001) %MON dynstat_wvel_del2            =   2.6618912126153E-06
(PID.TID 0000.0001) %MON dynstat_theta_max            =  -1.9417475728388E-01
(PID.TID 0000.0001) %MON dynstat_theta_min            =  -9.7087381093410E+00
(PID.TID 0000.0001) %MON dynstat_theta_mean           =  -4.1283182569400E+00
(PID.TID 0000.0001) %MON dynstat_theta_sd             =   2.6833444478110E+00
(PID.TID 0000.0001) %MON dynstat_theta_del2           =   3.8140116451224E-04
(PID.TID 0000.0001) %MON dynstat_salt_max             =   2.0000000000000E+00
(PID.TID 0000.0001) %MON dynstat_salt_min             =   1.0000000000000E+00
(PID.TID 0000.0001) %MON dynstat_salt_mean            =   1.0000405446038E+00
(PID.TID 0000.0001) %MON dynstat_salt_sd              =   5.5736443368765E-03
(PID.TID 0000.0001) %MON dynstat_salt_del2            =   4.6419391324724E-05
(PID.TID 0000.0001) %MON advcfl_uvel_max              =   9.7297472431189E-03
(PID.TID 0000.0001) %MON advcfl_vvel_max              =   5.8180275462155E-02
(PID.TID 0000.0001) %MON advcfl_wvel_max              =   2.0272865279907E-01
(PID.TID 0000.0001) %MON advcfl_W_hf_max              =   2.0272865279907E-01
(PID.TID 0000.0001) %MON pe_b_mean                    =   6.6816614879393E-06
(PID.TID 0000.0001) %MON ke_max                       =   1.2008896556394E+00
(PID.TID 0000.0001) %MON ke_mean                      =   6.0616401601665E-05
(PID.TID 0000.0001) %MON ke_vol                       =   2.7059236822589E+15
(PID.TID 0000.0001) %MON vort_r_min                   =  -1.9393425212476E-04
(PID.TID 0000.0001) %MON vort_r_max                   =   1.2907005846072E-04
(PID.TID 0000.0001) %MON vort_a_mean                  =   9.9999999999995E-05
(PID.TID 0000.0001) %MON vort_a_sd                    =   9.8658526593984E-07
(PID.TID 0000.0001) %MON vort_p_mean                  =   1.1277618388222E-04
(PID.TID 0000.0001) %MON vort_p_sd                    =   7.1091483288989E-05
(PID.TID 0000.0001) %MON surfExpan_theta_mean         =  -8.5556834836660E-10
(PID.TID 0000.0001) %MON surfExpan_salt_mean          =   8.8223109110958E-14
(PID.TID 0000.0001) // =======================================================
(PID.TID 0000.0001) // End MONITOR dynamic field statistics
(PID.TID 0000.0001) // =======================================================
 cg2d: Sum(rhs),rhsMax =  -5.94372952050314E+02  5.12142420416802E-02
(PID.TID 0000.0001)                    cg2d_init_res =    1.81633017891454E+00
(PID.TID 0000.0001)                       cg2d_iters =    88
(PID.TID 0000.0001)                         cg2d_res =    9.73502601758952E-12
(PID.TID 0000.0001) // =======================================================
(PID.TID 0000.0001) // Begin MONITOR dynamic field statistics
(PID.TID 0000.0001) // =======================================================
(PID.TID 0000.0001) %MON time_tsnumber                =                    15
(PID.TID 0000.0001) %MON time_secondsf                =   4.5000000000000E+03
(PID.TID 0000.0001) %MON dynstat_eta_max              =   1.5147554868612E-01
(PID.TID 0000.0001) %MON dynstat_eta_min              =  -1.5045617670600E-01
(PID.TID 0000.0001) %MON dynstat_eta_mean             =   3.8720076684765E-02
(PID.TID 0000.0001) %MON dynstat_eta_sd               =   4.8902192674923E-02
(PID.TID 0000.0001) %MON dynstat_eta_del2             =   1.4533298940092E-04
(PID.TID 0000.0001) %MON dynstat_uvel_max             =   3.2180091043094E-01
(PID.TID 0000.0001) %MON dynstat_uvel_min             =  -2.1192542638169E-01
(PID.TID 0000.0001) %MON dynstat_uvel_mean            =  -1.3942891307257E-03
(PID.TID 0000.0001) %MON dynstat_uvel_sd              =   4.7123526164061E-03
(PID.TID 0000.0001) %MON dynstat_uvel_del2            =   4.5942280298754E-05
(PID.TID 0000.0001) %MON dynstat_vvel_max             =   9.7212812283335E-04
(PID.TID 0000.0001) %MON dynstat_vvel_min             =  -1.9393425212476E+00
(PID.TID 0000.0001) %MON dynstat_vvel_mean            =  -1.5157487027862E-03
(PID.TID 0000.0001) %MON dynstat_vvel_sd              =   9.9471498370996E-03
(PID.TID 0000.0001) %MON dynstat_vvel_del2            =   6.5804336131424E-05
(PID.TID 0000.0001) %MON dynstat_wvel_max             =   1.7487220007585E-02
(PID.TID 0000.0001) %MON dynstat_wvel_min             =  -4.8654876671778E-02
(PID.TID 0000.0001) %MON dynstat_wvel_mean            =  -5.5361948053339E-21
(PID.TID 0000.0001) %MON dynstat_wvel_sd              =   2.3803193972584E-04
(PID.TID 0000.0001) %MON dynstat_wvel_del2            =   2.6070711515381E-06
(PID.TID 0000.0001) %MON dynstat_theta_max            =  -1.9417475729054E-01
(PID.TID 0000.0001) %MON dynstat_theta_min            =  -9.7087381093410E+00
(PID.TID 0000.0001) %MON dynstat_theta_mean           =  -4.1283264910912E+00
(PID.TID 0000.0001) %MON dynstat_theta_sd             =   2.6833430298981E+00
(PID.TID 0000.0001) %MON dynstat_theta_del2           =   3.8368911648188E-04
(PID.TID 0000.0001) %MON dynstat_salt_max             =   2.0000000000000E+00
(PID.TID 0000.0001) %MON dynstat_salt_min             =   1.0000000000000E+00
(PID.TID 0000.0001) %MON dynstat_salt_mean            =   1.0000414120609E+00
(PID.TID 0000.0001) %MON dynstat_salt_sd              =   5.6248434993262E-03
(PID.TID 0000.0001) %MON dynstat_salt_del2            =   4.6553264537805E-05
(PID.TID 0000.0001) %MON advcfl_uvel_max              =   9.6540273129281E-03
(PID.TID 0000.0001) %MON advcfl_vvel_max              =   5.8180275462155E-02
(PID.TID 0000.0001) %MON advcfl_wvel_max              =   2.0272865279907E-01
(PID.TID 0000.0001) %MON advcfl_W_hf_max              =   2.0272865279907E-01
(PID.TID 0000.0001) %MON pe_b_mean                    =   7.1431307998406E-06
(PID.TID 0000.0001) %MON ke_max                       =   1.2249032088907E+00
(PID.TID 0000.0001) %MON ke_mean                      =   5.9295850655526E-05
(PID.TID 0000.0001) %MON ke_vol                       =   2.7059236822589E+15
(PID.TID 0000.0001) %MON vort_r_min                   =  -1.9393425212476E-04
(PID.TID 0000.0001) %MON vort_r_max                   =   1.2863736260472E-04
(PID.TID 0000.0001) %MON vort_a_mean                  =   9.9999999999983E-05
(PID.TID 0000.0001) %MON vort_a_sd                    =   9.8839835310000E-07
(PID.TID 0000.0001) %MON vort_p_mean                  =   1.1277618388221E-04
(PID.TID 0000.0001) %MON vort_p_sd                    =   7.1087307331684E-05
(PID.TID 0000.0001) %MON surfExpan_theta_mean         =  -1.5460469857726E-09
(PID.TID 0000.0001) %MON surfExpan_salt_mean          =   6.3020181648790E-13
(PID.TID 0000.0001) // =======================================================
(PID.TID 0000.0001) // End MONITOR dynamic field statistics
(PID.TID 0000.0001) // =======================================================
 cg2d: Sum(rhs),rhsMax =  -5.83635089031524E+02  5.56335917707209E-02
(PID.TID 0000.0001)                    cg2d_init_res =    1.42505446708290E+00
(PID.TID 0000.0001)                       cg2d_iters =    88
(PID.TID 0000.0001)                         cg2d_res =    8.71243298823162E-12
(PID.TID 0000.0001) // =======================================================
(PID.TID 0000.0001) // Begin MONITOR dynamic field statistics
(PID.TID 0000.0001) // =======================================================
(PID.TID 0000.0001) %MON time_tsnumber                =                    16
(PID.TID 0000.0001) %MON time_secondsf                =   4.8000000000000E+03
(PID.TID 0000.0001) %MON dynstat_eta_max              =   1.6421886958038E-01
(PID.TID 0000.0001) %MON dynstat_eta_min              =  -1.1224287924959E-01
(PID.TID 0000.0001) %MON dynstat_eta_mean             =   4.1301413487368E-02
(PID.TID 0000.0001) %MON dynstat_eta_sd               =   4.8668367740205E-02
(PID.TID 0000.0001) %MON dynstat_eta_del2             =   1.2085642179618E-04
(PID.TID 0000.0001) %MON dynstat_uvel_max             =   3.1888902735593E-01
(PID.TID 0000.0001) %MON dynstat_uvel_min             =  -2.1329358160655E-01
(PID.TID 0000.0001) %MON dynstat_uvel_mean            =  -1.6340154803666E-03
(PID.TID 0000.0001) %MON dynstat_uvel_sd              =   4.6637036899080E-03
(PID.TID 0000.0001) %MON dynstat_uvel_del2            =   4.6484224180706E-05
(PID.TID 0000.0001) %MON dynstat_vvel_max             =   1.2534980605710E-03
(PID.TID 0000.0001) %MON dynstat_vvel_min             =  -1.9393425212476E+00
(PID.TID 0000.0001) %MON dynstat_vvel_mean            =  -1.2990500065815E-03
(PID.TID 0000.0001) %MON dynstat_vvel_sd              =   9.8838423915981E-03
(PID.TID 0000.0001) %MON dynstat_vvel_del2            =   6.4490040230136E-05
(PID.TID 0000.0001) %MON dynstat_wvel_max             =   1.6763871023716E-02
(PID.TID 0000.0001) %MON dynstat_wvel_min             =  -4.8654876671778E-02
(PID.TID 0000.0001) %MON dynstat_wvel_mean            =   3.6610320486886E-21
(PID.TID 0000.0001) %MON dynstat_wvel_sd              =   2.3733406876420E-04
(PID.TID 0000.0001) %MON dynstat_wvel_del2            =   2.5423231652039E-06
(PID.TID 0000.0001) %MON dynstat_theta_max            =  -1.9417475731312E-01
(PID.TID 0000.0001) %MON dynstat_theta_min            =  -9.7087381093410E+00
(PID.TID 0000.0001) %MON dynstat_theta_mean           =  -4.1283347251889E+00
(PID.TID 0000.0001) %MON dynstat_theta_sd             =   2.6833417896864E+00
(PID.TID 0000.0001) %MON dynstat_theta_del2           =   3.8569461813451E-04
(PID.TID 0000.0001) %MON dynstat_salt_max             =   2.0000000000000E+00
(PID.TID 0000.0001) %MON dynstat_salt_min             =   1.0000000000000E+00
(PID.TID 0000.0001) %MON dynstat_salt_mean            =   1.0000422795180E+00
(PID.TID 0000.0001) %MON dynstat_salt_sd              =   5.6770343767279E-03
(PID.TID 0000.0001) %MON dynstat_salt_del2            =   4.6730361901814E-05
(PID.TID 0000.0001) %MON advcfl_uvel_max              =   9.5666708206779E-03
(PID.TID 0000.0001) %MON advcfl_vvel_max              =   5.8180275462155E-02
(PID.TID 0000.0001) %MON advcfl_wvel_max              =   2.0272865279907E-01
(PID.TID 0000.0001) %MON advcfl_W_hf_max              =   2.0272865279907E-01
(PID.TID 0000.0001) %MON pe_b_mean                    =   7.4804856305815E-06
(PID.TID 0000.0001) %MON ke_max                       =   1.2509225995926E+00
(PID.TID 0000.0001) %MON ke_mean                      =   5.8558887678423E-05
(PID.TID 0000.0001) %MON ke_vol                       =   2.7059236822589E+15
(PID.TID 0000.0001) %MON vort_r_min                   =  -1.9393425212476E-04
(PID.TID 0000.0001) %MON vort_r_max                   =   1.2821162759984E-04
(PID.TID 0000.0001) %MON vort_a_mean                  =   9.9999999999952E-05
(PID.TID 0000.0001) %MON vort_a_sd                    =   9.9182694252332E-07
(PID.TID 0000.0001) %MON vort_p_mean                  =   1.1277618388217E-04
(PID.TID 0000.0001) %MON vort_p_sd                    =   7.1084132927641E-05
(PID.TID 0000.0001) %MON surfExpan_theta_mean         =  -1.9990048352319E-09
(PID.TID 0000.0001) %MON surfExpan_salt_mean          =   1.1197573854747E-12
(PID.TID 0000.0001) // =======================================================
(PID.TID 0000.0001) // End MONITOR dynamic field statistics
(PID.TID 0000.0001) // =======================================================
 cg2d: Sum(rhs),rhsMax =  -5.74487557883059E+02  6.00519012932392E-02
(PID.TID 0000.0001)                    cg2d_init_res =    1.18964712475930E+00
(PID.TID 0000.0001)                       cg2d_iters =    88
(PID.TID 0000.0001)                         cg2d_res =    8.57927589378677E-12
(PID.TID 0000.0001) // =======================================================
(PID.TID 0000.0001) // Begin MONITOR dynamic field statistics
(PID.TID 0000.0001) // =======================================================
(PID.TID 0000.0001) %MON time_tsnumber                =                    17
(PID.TID 0000.0001) %MON time_secondsf                =   5.1000000000000E+03
(PID.TID 0000.0001) %MON dynstat_eta_max              =   1.6759930519140E-01
(PID.TID 0000.0001) %MON dynstat_eta_min              =  -7.0424408553610E-02
(PID.TID 0000.0001) %MON dynstat_eta_mean             =   4.3882747462350E-02
(PID.TID 0000.0001) %MON dynstat_eta_sd               =   4.7757185600178E-02
(PID.TID 0000.0001) %MON dynstat_eta_del2             =   9.3209098797694E-05
(PID.TID 0000.0001) %MON dynstat_uvel_max             =   3.1572398714857E-01
(PID.TID 0000.0001) %MON dynstat_uvel_min             =  -2.1626003754744E-01
(PID.TID 0000.0001) %MON dynstat_uvel_mean            =  -1.8573844510247E-03
(PID.TID 0000.0001) %MON dynstat_uvel_sd              =   4.6467070129709E-03
(PID.TID 0000.0001) %MON dynstat_uvel_del2            =   4.6967231640832E-05
(PID.TID 0000.0001) %MON dynstat_vvel_max             =   1.5894640028783E-03
(PID.TID 0000.0001) %MON dynstat_vvel_min             =  -1.9393425212476E+00
(PID.TID 0000.0001) %MON dynstat_vvel_mean            =  -1.0654687203791E-03
(PID.TID 0000.0001) %MON dynstat_vvel_sd              =   9.8616744993379E-03
(PID.TID 0000.0001) %MON dynstat_vvel_del2            =   6.2941173527393E-05
(PID.TID 0000.0001) %MON dynstat_wvel_max             =   1.6002392438292E-02
(PID.TID 0000.0001) %MON dynstat_wvel_min             =  -4.8654876671778E-02
(PID.TID 0000.0001) %MON dynstat_wvel_mean            =  -7.4560042942804E-21
(PID.TID 0000.0001) %MON dynstat_wvel_sd              =   2.3677507746420E-04
(PID.TID 0000.0001) %MON dynstat_wvel_del2            =   2.4879729578215E-06
(PID.TID 0000.0001) %MON dynstat_theta_max            =  -1.9417475738337E-01
(PID.TID 0000.0001) %MON dynstat_theta_min            =  -9.7087381093410E+00
(PID.TID 0000.0001) %MON dynstat_theta_mean           =  -4.1283429592580E+00
(PID.TID 0000.0001) %MON dynstat_theta_sd             =   2.6833407093926E+00
(PID.TID 0000.0001) %MON dynstat_theta_del2           =   3.8754383788245E-04
(PID.TID 0000.0001) %MON dynstat_salt_max             =   2.0000000000000E+00
(PID.TID 0000.0001) %MON dynstat_salt_min             =   1.0000000000000E+00
(PID.TID 0000.0001) %MON dynstat_salt_mean            =   1.0000431469751E+00
(PID.TID 0000.0001) %MON dynstat_salt_sd              =   5.7298532967528E-03
(PID.TID 0000.0001) %MON dynstat_salt_del2            =   4.6897109772522E-05
(PID.TID 0000.0001) %MON advcfl_uvel_max              =   9.4717196144571E-03
(PID.TID 0000.0001) %MON advcfl_vvel_max              =   5.8180275462155E-02
(PID.TID 0000.0001) %MON advcfl_wvel_max              =   2.0272865279907E-01
(PID.TID 0000.0001) %MON advcfl_W_hf_max              =   2.0272865279907E-01
(PID.TID 0000.0001) %MON pe_b_mean                    =   7.7228835175177E-06
(PID.TID 0000.0001) %MON ke_max                       =   1.2788830322753E+00
(PID.TID 0000.0001) %MON ke_mean                      =   5.8405743900189E-05
(PID.TID 0000.0001) %MON ke_vol                       =   2.7059236822589E+15
(PID.TID 0000.0001) %MON vort_r_min                   =  -1.9393425212476E-04
(PID.TID 0000.0001) %MON vort_r_max                   =   1.2779865176382E-04
(PID.TID 0000.0001) %MON vort_a_mean                  =   9.9999999999874E-05
(PID.TID 0000.0001) %MON vort_a_sd                    =   9.9666054890129E-07
(PID.TID 0000.0001) %MON vort_p_mean                  =   1.1277618388209E-04
(PID.TID 0000.0001) %MON vort_p_sd                    =   7.1081929071922E-05
(PID.TID 0000.0001) %MON surfExpan_theta_mean         =  -2.2415236394003E-09
(PID.TID 0000.0001) %MON surfExpan_salt_mean          =   1.4563420813150E-12
(PID.TID 0000.0001) // =======================================================
(PID.TID 0000.0001) // End MONITOR dynamic field statistics
(PID.TID 0000.0001) // =======================================================
 cg2d: Sum(rhs),rhsMax =  -5.71688433886730E+02  6.38956754901810E-02
(PID.TID 0000.0001)                    cg2d_init_res =    1.12478903025843E+00
(PID.TID 0000.0001)                       cg2d_iters =    88
(PID.TID 0000.0001)                         cg2d_res =    7.73681867328360E-12
(PID.TID 0000.0001) // =======================================================
(PID.TID 0000.0001) // Begin MONITOR dynamic field statistics
(PID.TID 0000.0001) // =======================================================
(PID.TID 0000.0001) %MON time_tsnumber                =                    18
(PID.TID 0000.0001) %MON time_secondsf                =   5.4000000000000E+03
(PID.TID 0000.0001) %MON dynstat_eta_max              =   1.6167371117471E-01
(PID.TID 0000.0001) %MON dynstat_eta_min              =  -3.0015849491905E-02
(PID.TID 0000.0001) %MON dynstat_eta_mean             =   4.6464074694456E-02
(PID.TID 0000.0001) %MON dynstat_eta_sd               =   4.6430396395279E-02
(PID.TID 0000.0001) %MON dynstat_eta_del2             =   6.5953474712579E-05
(PID.TID 0000.0001) %MON dynstat_uvel_max             =   3.1236288029825E-01
(PID.TID 0000.0001) %MON dynstat_uvel_min             =  -2.2029024313611E-01
(PID.TID 0000.0001) %MON dynstat_uvel_mean            =  -2.0590180014199E-03
(PID.TID 0000.0001) %MON dynstat_uvel_sd              =   4.6539898847996E-03
(PID.TID 0000.0001) %MON dynstat_uvel_del2            =   4.7412671484384E-05
(PID.TID 0000.0001) %MON dynstat_vvel_max             =   1.7708819882143E-03
(PID.TID 0000.0001) %MON dynstat_vvel_min             =  -1.9393425212476E+00
(PID.TID 0000.0001) %MON dynstat_vvel_mean            =  -8.3844919130672E-04
(PID.TID 0000.0001) %MON dynstat_vvel_sd              =   9.8766126124236E-03
(PID.TID 0000.0001) %MON dynstat_vvel_del2            =   6.1513726880566E-05
(PID.TID 0000.0001) %MON dynstat_wvel_max             =   1.5212073323606E-02
(PID.TID 0000.0001) %MON dynstat_wvel_min             =  -4.8654876671778E-02
(PID.TID 0000.0001) %MON dynstat_wvel_mean            =   2.9913310641724E-21
(PID.TID 0000.0001) %MON dynstat_wvel_sd              =   2.3636886879174E-04
(PID.TID 0000.0001) %MON dynstat_wvel_del2            =   2.4577368256006E-06
(PID.TID 0000.0001) %MON dynstat_theta_max            =  -1.9417475758583E-01
(PID.TID 0000.0001) %MON dynstat_theta_min            =  -9.7087381093410E+00
(PID.TID 0000.0001) %MON dynstat_theta_mean           =  -4.1283511933137E+00
(PID.TID 0000.0001) %MON dynstat_theta_sd             =   2.6833397157859E+00
(PID.TID 0000.0001) %MON dynstat_theta_del2           =   3.9018440261965E-04
(PID.TID 0000.0001) %MON dynstat_salt_max             =   2.0000000000000E+00
(PID.TID 0000.0001) %MON dynstat_salt_min             =   1.0000000000000E+00
(PID.TID 0000.0001) %MON dynstat_salt_mean            =   1.0000440144321E+00
(PID.TID 0000.0001) %MON dynstat_salt_sd              =   5.7829936313698E-03
(PID.TID 0000.0001) %MON dynstat_salt_del2            =   4.7175993135593E-05
(PID.TID 0000.0001) %MON advcfl_uvel_max              =   9.3708864089475E-03
(PID.TID 0000.0001) %MON advcfl_vvel_max              =   5.8180275462155E-02
(PID.TID 0000.0001) %MON advcfl_wvel_max              =   2.0272865279907E-01
(PID.TID 0000.0001) %MON advcfl_W_hf_max              =   2.0272865279907E-01
(PID.TID 0000.0001) %MON pe_b_mean                    =   7.9216223801132E-06
(PID.TID 0000.0001) %MON ke_max                       =   1.3086703375540E+00
(PID.TID 0000.0001) %MON ke_mean                      =   5.8768094719871E-05
(PID.TID 0000.0001) %MON ke_vol                       =   2.7059236822589E+15
(PID.TID 0000.0001) %MON vort_r_min                   =  -1.9393425212476E-04
(PID.TID 0000.0001) %MON vort_r_max                   =   1.2739658799168E-04
(PID.TID 0000.0001) %MON vort_a_mean                  =   9.9999999999696E-05
(PID.TID 0000.0001) %MON vort_a_sd                    =   1.0026115267842E-06
(PID.TID 0000.0001) %MON vort_p_mean                  =   1.1277618388189E-04
(PID.TID 0000.0001) %MON vort_p_sd                    =   7.1080545743060E-05
(PID.TID 0000.0001) %MON surfExpan_theta_mean         =  -2.3426522785855E-09
(PID.TID 0000.0001) %MON surfExpan_salt_mean          =   1.6169683839713E-12
(PID.TID 0000.0001) // =======================================================
(PID.TID 0000.0001) // End MONITOR dynamic field statistics
(PID.TID 0000.0001) // =======================================================
 cg2d: Sum(rhs),rhsMax =  -5.76636945227051E+02  6.68666058443014E-02
(PID.TID 0000.0001)                    cg2d_init_res =    1.16142536957692E+00
(PID.TID 0000.0001)                       cg2d_iters =    88
(PID.TID 0000.0001)                         cg2d_res =    7.87073303345900E-12
(PID.TID 0000.0001) // =======================================================
(PID.TID 0000.0001) // Begin MONITOR dynamic field statistics
(PID.TID 0000.0001) // =======================================================
(PID.TID 0000.0001) %MON time_tsnumber                =                    19
(PID.TID 0000.0001) %MON time_secondsf                =   5.7000000000000E+03
(PID.TID 0000.0001) %MON dynstat_eta_max              =   1.4798952468100E-01
(PID.TID 0000.0001) %MON dynstat_eta_min              =   0.0000000000000E+00
(PID.TID 0000.0001) %MON dynstat_eta_mean             =   4.9045386847934E-02
(PID.TID 0000.0001) %MON dynstat_eta_sd               =   4.5003730422810E-02
(PID.TID 0000.0001) %MON dynstat_eta_del2             =   6.1800538458139E-05
(PID.TID 0000.0001) %MON dynstat_uvel_max             =   3.0883994426173E-01
(PID.TID 0000.0001) %MON dynstat_uvel_min             =  -2.2488669135449E-01
(PID.TID 0000.0001) %MON dynstat_uvel_mean            =  -2.2369711013162E-03
(PID.TID 0000.0001) %MON dynstat_uvel_sd              =   4.6798866056637E-03
(PID.TID 0000.0001) %MON dynstat_uvel_del2            =   4.7797659481928E-05
(PID.TID 0000.0001) %MON dynstat_vvel_max             =   1.8194303978108E-03
(PID.TID 0000.0001) %MON dynstat_vvel_min             =  -1.9393425212476E+00
(PID.TID 0000.0001) %MON dynstat_vvel_mean            =  -6.3870033191355E-04
(PID.TID 0000.0001) %MON dynstat_vvel_sd              =   9.9216755852156E-03
(PID.TID 0000.0001) %MON dynstat_vvel_del2            =   6.0635845868476E-05
(PID.TID 0000.0001) %MON dynstat_wvel_max             =   1.4403378208418E-02
(PID.TID 0000.0001) %MON dynstat_wvel_min             =  -4.8654876671778E-02
(PID.TID 0000.0001) %MON dynstat_wvel_mean            =  -2.0314263196992E-21
(PID.TID 0000.0001) %MON dynstat_wvel_sd              =   2.3610259132865E-04
(PID.TID 0000.0001) %MON dynstat_wvel_del2            =   2.4478421955726E-06
(PID.TID 0000.0001) %MON dynstat_theta_max            =  -1.9417475812943E-01
(PID.TID 0000.0001) %MON dynstat_theta_min            =  -9.7087381093410E+00
(PID.TID 0000.0001) %MON dynstat_theta_mean           =  -4.1283594273622E+00
(PID.TID 0000.0001) %MON dynstat_theta_sd             =   2.6833387297377E+00
(PID.TID 0000.0001) %MON dynstat_theta_del2           =   3.9237036248691E-04
(PID.TID 0000.0001) %MON dynstat_salt_max             =   2.0000000000000E+00
(PID.TID 0000.0001) %MON dynstat_salt_min             =   1.0000000000000E+00
(PID.TID 0000.0001) %MON dynstat_salt_mean            =   1.0000448818891E+00
(PID.TID 0000.0001) %MON dynstat_salt_sd              =   5.8357834421254E-03
(PID.TID 0000.0001) %MON dynstat_salt_del2            =   4.7408697206242E-05
(PID.TID 0000.0001) %MON advcfl_uvel_max              =   9.2651983278520E-03
(PID.TID 0000.0001) %MON advcfl_vvel_max              =   5.8180275462155E-02
(PID.TID 0000.0001) %MON advcfl_wvel_max              =   2.0272865279907E-01
(PID.TID 0000.0001) %MON advcfl_W_hf_max              =   2.0272865279907E-01
(PID.TID 0000.0001) %MON pe_b_mean                    =   8.1347664628609E-06
(PID.TID 0000.0001) %MON ke_max                       =   1.3401233410575E+00
(PID.TID 0000.0001) %MON ke_mean                      =   5.9547476652118E-05
(PID.TID 0000.0001) %MON ke_vol                       =   2.7059236822589E+15
(PID.TID 0000.0001) %MON vort_r_min                   =  -1.9393425212476E-04
(PID.TID 0000.0001) %MON vort_r_max                   =   1.2700214461966E-04
(PID.TID 0000.0001) %MON vort_a_mean                  =   9.9999999999317E-05
(PID.TID 0000.0001) %MON vort_a_sd                    =   1.0094081147211E-06
(PID.TID 0000.0001) %MON vort_p_mean                  =   1.1277618388146E-04
(PID.TID 0000.0001) %MON vort_p_sd                    =   7.1079750233298E-05
(PID.TID 0000.0001) %MON surfExpan_theta_mean         =  -2.3517646204629E-09
(PID.TID 0000.0001) %MON surfExpan_salt_mean          =   1.6400752188150E-12
(PID.TID 0000.0001) // =======================================================
(PID.TID 0000.0001) // End MONITOR dynamic field statistics
(PID.TID 0000.0001) // =======================================================
 cg2d: Sum(rhs),rhsMax =  -5.89163984967148E+02  6.88892533904755E-02
(PID.TID 0000.0001)                    cg2d_init_res =    1.21495711242832E+00
(PID.TID 0000.0001)                       cg2d_iters =    87
(PID.TID 0000.0001)                         cg2d_res =    9.35801569211721E-12
(PID.TID 0000.0001) // =======================================================
(PID.TID 0000.0001) // Begin MONITOR dynamic field statistics
(PID.TID 0000.0001) // =======================================================
(PID.TID 0000.0001) %MON time_tsnumber                =                    20
(PID.TID 0000.0001) %MON time_secondsf                =   6.0000000000000E+03
(PID.TID 0000.0001) %MON dynstat_eta_max              =   1.6960598939184E-01
(PID.TID 0000.0001) %MON dynstat_eta_min              =  -1.6881195892466E-06
(PID.TID 0000.0001) %MON dynstat_eta_mean             =   5.1626667250486E-02
(PID.TID 0000.0001) %MON dynstat_eta_sd               =   4.3796443783069E-02
(PID.TID 0000.0001) %MON dynstat_eta_del2             =   7.5790362998802E-05
(PID.TID 0000.0001) %MON dynstat_uvel_max             =   3.0539708991999E-01
(PID.TID 0000.0001) %MON dynstat_uvel_min             =  -2.2967066945453E-01
(PID.TID 0000.0001) %MON dynstat_uvel_mean            =  -2.3921947991394E-03
(PID.TID 0000.0001) %MON dynstat_uvel_sd              =   4.7208859529851E-03
(PID.TID 0000.0001) %MON dynstat_uvel_del2            =   4.8201001605954E-05
(PID.TID 0000.0001) %MON dynstat_vvel_max             =   2.0679538603212E-03
(PID.TID 0000.0001) %MON dynstat_vvel_min             =  -1.9393425212476E+00
(PID.TID 0000.0001) %MON dynstat_vvel_mean            =  -4.8214618896478E-04
(PID.TID 0000.0001) %MON dynstat_vvel_sd              =   9.9892512743524E-03
(PID.TID 0000.0001) %MON dynstat_vvel_del2            =   6.0366210014253E-05
(PID.TID 0000.0001) %MON dynstat_wvel_max             =   1.3585884087779E-02
(PID.TID 0000.0001) %MON dynstat_wvel_min             =  -4.8654876671778E-02
(PID.TID 0000.0001) %MON dynstat_wvel_mean            =  -7.0039561297320E-22
(PID.TID 0000.0001) %MON dynstat_wvel_sd              =   2.3594627710731E-04
(PID.TID 0000.0001) %MON dynstat_wvel_del2            =   2.4472264357401E-06
(PID.TID 0000.0001) %MON dynstat_theta_max            =  -1.9417475949652E-01
(PID.TID 0000.0001) %MON dynstat_theta_min            =  -9.7087381093410E+00
(PID.TID 0000.0001) %MON dynstat_theta_mean           =  -4.1283676614017E+00
(PID.TID 0000.0001) %MON dynstat_theta_sd             =   2.6833377371829E+00
(PID.TID 0000.0001) %MON dynstat_theta_del2           =   3.9409206700565E-04
(PID.TID 0000.0001) %MON dynstat_salt_max             =   2.0000000000000E+00
(PID.TID 0000.0001) %MON dynstat_salt_min             =   1.0000000000000E+00
(PID.TID 0000.0001) %MON dynstat_salt_mean            =   1.0000457493462E+00
(PID.TID 0000.0001) %MON dynstat_salt_sd              =   5.8881140870464E-03
(PID.TID 0000.0001) %MON dynstat_salt_del2            =   4.7592512973534E-05
(PID.TID 0000.0001) %MON advcfl_uvel_max              =   9.1619126975996E-03
(PID.TID 0000.0001) %MON advcfl_vvel_max              =   5.8180275462155E-02
(PID.TID 0000.0001) %MON advcfl_wvel_max              =   2.0272865279907E-01
(PID.TID 0000.0001) %MON advcfl_W_hf_max              =   2.0272865279907E-01
(PID.TID 0000.0001) %MON pe_b_mean                    =   8.4150366486769E-06
(PID.TID 0000.0001) %MON ke_max                       =   1.3730551778669E+00
(PID.TID 0000.0001) %MON ke_mean                      =   6.0643058757910E-05
(PID.TID 0000.0001) %MON ke_vol                       =   2.7059236822589E+15
(PID.TID 0000.0001) %MON vort_r_min                   =  -1.9393425212476E-04
(PID.TID 0000.0001) %MON vort_r_max                   =   1.2661264877576E-04
(PID.TID 0000.0001) %MON vort_a_mean                  =   9.9999999998560E-05
(PID.TID 0000.0001) %MON vort_a_sd                    =   1.0168368618414E-06
(PID.TID 0000.0001) %MON vort_p_mean                  =   1.1277618388060E-04
(PID.TID 0000.0001) %MON vort_p_sd                    =   7.1079274498823E-05
(PID.TID 0000.0001) %MON surfExpan_theta_mean         =  -2.2967138489443E-09
(PID.TID 0000.0001) %MON surfExpan_salt_mean          =   1.5777575407258E-12
(PID.TID 0000.0001) // =======================================================
(PID.TID 0000.0001) // End MONITOR dynamic field statistics
(PID.TID 0000.0001) // =======================================================
 Computing Diagnostic # 272  VISCA4       Counter:   10      Parms: SM      MR      
(PID.TID 0000.0001) %CHECKPOINT        20 ckptA
(PID.TID 0000.0001)   Seconds in section "ALL                    [THE_MODEL_MAIN]":
(PID.TID 0000.0001)           User time:  98.5499976
(PID.TID 0000.0001)         System time:  1.94000006
(PID.TID 0000.0001)     Wall clock time:  112.790317
(PID.TID 0000.0001)          No. starts: 1
(PID.TID 0000.0001)           No. stops: 1
(PID.TID 0000.0001)   Seconds in section "INITIALISE_FIXED       [THE_MODEL_MAIN]":
(PID.TID 0000.0001)           User time:  0.949999979
(PID.TID 0000.0001)         System time:  0.270000011
(PID.TID 0000.0001)     Wall clock time:  2.15618682
(PID.TID 0000.0001)          No. starts: 1
(PID.TID 0000.0001)           No. stops: 1
(PID.TID 0000.0001)   Seconds in section "THE_MAIN_LOOP          [THE_MODEL_MAIN]":
(PID.TID 0000.0001)           User time:  96.6099997
(PID.TID 0000.0001)         System time:  0.879999965
(PID.TID 0000.0001)     Wall clock time:  106.573153
(PID.TID 0000.0001)          No. starts: 1
(PID.TID 0000.0001)           No. stops: 1
(PID.TID 0000.0001)   Seconds in section "INITIALISE_VARIA    [THE_MAIN_LOOP]":
(PID.TID 0000.0001)           User time:  0.439999998
(PID.TID 0000.0001)         System time:  0.099999994
(PID.TID 0000.0001)     Wall clock time:  0.596876144
(PID.TID 0000.0001)          No. starts: 1
(PID.TID 0000.0001)           No. stops: 1
(PID.TID 0000.0001)   Seconds in section "MONITOR             [THE_MAIN_LOOP]":
(PID.TID 0000.0001)           User time:  0.440000057
(PID.TID 0000.0001)         System time:  0.
(PID.TID 0000.0001)     Wall clock time:  0.437995911
(PID.TID 0000.0001)          No. starts: 1
(PID.TID 0000.0001)           No. stops: 1
(PID.TID 0000.0001)   Seconds in section "DO_THE_MODEL_IO     [THE_MAIN_LOOP]":
(PID.TID 0000.0001)           User time:  0.350000024
(PID.TID 0000.0001)         System time:  0.290000021
(PID.TID 0000.0001)     Wall clock time:  1.64734817
(PID.TID 0000.0001)          No. starts: 1
(PID.TID 0000.0001)           No. stops: 1
(PID.TID 0000.0001)   Seconds in section "MAIN LOOP           [THE_MAIN_LOOP]":
(PID.TID 0000.0001)           User time:  95.3799996
(PID.TID 0000.0001)         System time:  0.48999995
(PID.TID 0000.0001)     Wall clock time:  103.890781
(PID.TID 0000.0001)          No. starts: 1
(PID.TID 0000.0001)           No. stops: 1
(PID.TID 0000.0001)   Seconds in section "FORWARD_STEP        [THE_MAIN_LOOP]":
(PID.TID 0000.0001)           User time:  95.3799996
(PID.TID 0000.0001)         System time:  0.48999995
(PID.TID 0000.0001)     Wall clock time:  103.890164
(PID.TID 0000.0001)          No. starts: 20
(PID.TID 0000.0001)           No. stops: 20
(PID.TID 0000.0001)   Seconds in section "EXTERNAL_FIELDS_LOAD[FORWARD_STEP]":
(PID.TID 0000.0001)           User time:  0.
(PID.TID 0000.0001)         System time:  0.
(PID.TID 0000.0001)     Wall clock time:  0.000591754913
(PID.TID 0000.0001)          No. starts: 20
(PID.TID 0000.0001)           No. stops: 20
(PID.TID 0000.0001)   Seconds in section "DO_ATMOSPHERIC_PHYS [FORWARD_STEP]":
(PID.TID 0000.0001)           User time:  0.
(PID.TID 0000.0001)         System time:  0.
(PID.TID 0000.0001)     Wall clock time:  0.000591039658
(PID.TID 0000.0001)          No. starts: 20
(PID.TID 0000.0001)           No. stops: 20
(PID.TID 0000.0001)   Seconds in section "DO_OCEANIC_PHYS     [FORWARD_STEP]":
(PID.TID 0000.0001)           User time:  0.720004559
(PID.TID 0000.0001)         System time:  0.
(PID.TID 0000.0001)     Wall clock time:  0.79861927
(PID.TID 0000.0001)          No. starts: 20
(PID.TID 0000.0001)           No. stops: 20
(PID.TID 0000.0001)   Seconds in section "DYNAMICS            [FORWARD_STEP]":
(PID.TID 0000.0001)           User time:  40.7100005
(PID.TID 0000.0001)         System time:  0.
(PID.TID 0000.0001)     Wall clock time:  43.8235302
(PID.TID 0000.0001)          No. starts: 20
(PID.TID 0000.0001)           No. stops: 20
(PID.TID 0000.0001)   Seconds in section "SOLVE_FOR_PRESSURE  [FORWARD_STEP]":
(PID.TID 0000.0001)           User time:  10.6699843
(PID.TID 0000.0001)         System time:  0.
(PID.TID 0000.0001)     Wall clock time:  11.3443038
(PID.TID 0000.0001)          No. starts: 20
(PID.TID 0000.0001)           No. stops: 20
(PID.TID 0000.0001)   Seconds in section "UV_CORRECTION_STEP  [FORWARD_STEP]":
(PID.TID 0000.0001)           User time:  2.160007
(PID.TID 0000.0001)         System time:  0.00999999046
(PID.TID 0000.0001)     Wall clock time:  2.28754926
(PID.TID 0000.0001)          No. starts: 20
(PID.TID 0000.0001)           No. stops: 20
(PID.TID 0000.0001)   Seconds in section "BLOCKING_EXCHANGES  [FORWARD_STEP]":
(PID.TID 0000.0001)           User time:  1.21998262
(PID.TID 0000.0001)         System time:  0.
(PID.TID 0000.0001)     Wall clock time:  1.23396468
(PID.TID 0000.0001)          No. starts: 40
(PID.TID 0000.0001)           No. stops: 40
(PID.TID 0000.0001)   Seconds in section "THERMODYNAMICS      [FORWARD_STEP]":
(PID.TID 0000.0001)           User time:  29.8700128
(PID.TID 0000.0001)         System time:  0.00999999046
(PID.TID 0000.0001)     Wall clock time:  31.678252
(PID.TID 0000.0001)          No. starts: 20
(PID.TID 0000.0001)           No. stops: 20
(PID.TID 0000.0001)   Seconds in section "TS_CORRECTION_STEP  [FORWARD_STEP]":
(PID.TID 0000.0001)           User time:  0.580006599
(PID.TID 0000.0001)         System time:  0.
(PID.TID 0000.0001)     Wall clock time:  0.569326878
(PID.TID 0000.0001)          No. starts: 20
(PID.TID 0000.0001)           No. stops: 20
(PID.TID 0000.0001)   Seconds in section "DO_STATEVARS_DIAGS  [FORWARD_STEP]":
(PID.TID 0000.0001)           User time:  0.
(PID.TID 0000.0001)         System time:  0.
(PID.TID 0000.0001)     Wall clock time:  0.000770568848
(PID.TID 0000.0001)          No. starts: 20
(PID.TID 0000.0001)           No. stops: 20
(PID.TID 0000.0001)   Seconds in section "MONITOR             [FORWARD_STEP]":
(PID.TID 0000.0001)           User time:  8.900002
(PID.TID 0000.0001)         System time:  0.
(PID.TID 0000.0001)     Wall clock time:  9.47196579
(PID.TID 0000.0001)          No. starts: 20
(PID.TID 0000.0001)           No. stops: 20
(PID.TID 0000.0001)   Seconds in section "DO_THE_MODEL_IO     [FORWARD_STEP]":
(PID.TID 0000.0001)           User time:  0.549999237
(PID.TID 0000.0001)         System time:  0.469999969
(PID.TID 0000.0001)     Wall clock time:  2.66925097
(PID.TID 0000.0001)          No. starts: 20
(PID.TID 0000.0001)           No. stops: 20
(PID.TID 0000.0001)   Seconds in section "WRITE_CHECKPOINT    [FORWARD_STEP]":
(PID.TID 0000.0001)           User time:  0.
(PID.TID 0000.0001)         System time:  0.
(PID.TID 0000.0001)     Wall clock time:  0.0006108284
(PID.TID 0000.0001)          No. starts: 20
(PID.TID 0000.0001)           No. stops: 20
(PID.TID 0000.0001)   Seconds in section "WRITE_CHECKPOINT       [THE_MODEL_MAIN]":
(PID.TID 0000.0001)           User time:  0.989997864
(PID.TID 0000.0001)         System time:  0.790000081
(PID.TID 0000.0001)     Wall clock time:  4.06083703
(PID.TID 0000.0001)          No. starts: 1
(PID.TID 0000.0001)           No. stops: 1
(PID.TID 0000.0001) // ======================================================
(PID.TID 0000.0001) // Tile <-> Tile communication statistics
(PID.TID 0000.0001) // ======================================================
(PID.TID 0000.0001) // o Tile number: 000001
(PID.TID 0000.0001) //         No. X exchanges =              0
(PID.TID 0000.0001) //            Max. X spins =              0
(PID.TID 0000.0001) //            Min. X spins =     1000000000
(PID.TID 0000.0001) //          Total. X spins =              0
(PID.TID 0000.0001) //            Avg. X spins =       0.00E+00
(PID.TID 0000.0001) //         No. Y exchanges =              0
(PID.TID 0000.0001) //            Max. Y spins =              0
(PID.TID 0000.0001) //            Min. Y spins =     1000000000
(PID.TID 0000.0001) //          Total. Y spins =              0
(PID.TID 0000.0001) //            Avg. Y spins =       0.00E+00
(PID.TID 0000.0001) // o Tile number: 000002
(PID.TID 0000.0001) //         No. X exchanges =              0
(PID.TID 0000.0001) //            Max. X spins =              0
(PID.TID 0000.0001) //            Min. X spins =     1000000000
(PID.TID 0000.0001) //          Total. X spins =              0
(PID.TID 0000.0001) //            Avg. X spins =       0.00E+00
(PID.TID 0000.0001) //         No. Y exchanges =              0
(PID.TID 0000.0001) //            Max. Y spins =              0
(PID.TID 0000.0001) //            Min. Y spins =     1000000000
(PID.TID 0000.0001) //          Total. Y spins =              0
(PID.TID 0000.0001) //            Avg. Y spins =       0.00E+00
(PID.TID 0000.0001) // o Tile number: 000003
(PID.TID 0000.0001) //         No. X exchanges =              0
(PID.TID 0000.0001) //            Max. X spins =              0
(PID.TID 0000.0001) //            Min. X spins =     1000000000
(PID.TID 0000.0001) //          Total. X spins =              0
(PID.TID 0000.0001) //            Avg. X spins =       0.00E+00
(PID.TID 0000.0001) //         No. Y exchanges =              0
(PID.TID 0000.0001) //            Max. Y spins =              0
(PID.TID 0000.0001) //            Min. Y spins =     1000000000
(PID.TID 0000.0001) //          Total. Y spins =              0
(PID.TID 0000.0001) //            Avg. Y spins =       0.00E+00
(PID.TID 0000.0001) // o Tile number: 000004
(PID.TID 0000.0001) //         No. X exchanges =              0
(PID.TID 0000.0001) //            Max. X spins =              0
(PID.TID 0000.0001) //            Min. X spins =     1000000000
(PID.TID 0000.0001) //          Total. X spins =              0
(PID.TID 0000.0001) //            Avg. X spins =       0.00E+00
(PID.TID 0000.0001) //         No. Y exchanges =              0
(PID.TID 0000.0001) //            Max. Y spins =              0
(PID.TID 0000.0001) //            Min. Y spins =     1000000000
(PID.TID 0000.0001) //          Total. Y spins =              0
(PID.TID 0000.0001) //            Avg. Y spins =       0.00E+00
(PID.TID 0000.0001) // o Tile number: 000005
(PID.TID 0000.0001) //         No. X exchanges =              0
(PID.TID 0000.0001) //            Max. X spins =              0
(PID.TID 0000.0001) //            Min. X spins =     1000000000
(PID.TID 0000.0001) //          Total. X spins =              0
(PID.TID 0000.0001) //            Avg. X spins =       0.00E+00
(PID.TID 0000.0001) //         No. Y exchanges =              0
(PID.TID 0000.0001) //            Max. Y spins =              0
(PID.TID 0000.0001) //            Min. Y spins =     1000000000
(PID.TID 0000.0001) //          Total. Y spins =              0
(PID.TID 0000.0001) //            Avg. Y spins =       0.00E+00
(PID.TID 0000.0001) // o Tile number: 000006
(PID.TID 0000.0001) //         No. X exchanges =              0
(PID.TID 0000.0001) //            Max. X spins =              0
(PID.TID 0000.0001) //            Min. X spins =     1000000000
(PID.TID 0000.0001) //          Total. X spins =              0
(PID.TID 0000.0001) //            Avg. X spins =       0.00E+00
(PID.TID 0000.0001) //         No. Y exchanges =              0
(PID.TID 0000.0001) //            Max. Y spins =              0
(PID.TID 0000.0001) //            Min. Y spins =     1000000000
(PID.TID 0000.0001) //          Total. Y spins =              0
(PID.TID 0000.0001) //            Avg. Y spins =       0.00E+00
(PID.TID 0000.0001) // o Tile number: 000007
(PID.TID 0000.0001) //         No. X exchanges =              0
(PID.TID 0000.0001) //            Max. X spins =              0
(PID.TID 0000.0001) //            Min. X spins =     1000000000
(PID.TID 0000.0001) //          Total. X spins =              0
(PID.TID 0000.0001) //            Avg. X spins =       0.00E+00
(PID.TID 0000.0001) //         No. Y exchanges =              0
(PID.TID 0000.0001) //            Max. Y spins =              0
(PID.TID 0000.0001) //            Min. Y spins =     1000000000
(PID.TID 0000.0001) //          Total. Y spins =              0
(PID.TID 0000.0001) //            Avg. Y spins =       0.00E+00
(PID.TID 0000.0001) // o Tile number: 000008
(PID.TID 0000.0001) //         No. X exchanges =              0
(PID.TID 0000.0001) //            Max. X spins =              0
(PID.TID 0000.0001) //            Min. X spins =     1000000000
(PID.TID 0000.0001) //          Total. X spins =              0
(PID.TID 0000.0001) //            Avg. X spins =       0.00E+00
(PID.TID 0000.0001) //         No. Y exchanges =              0
(PID.TID 0000.0001) //            Max. Y spins =              0
(PID.TID 0000.0001) //            Min. Y spins =     1000000000
(PID.TID 0000.0001) //          Total. Y spins =              0
(PID.TID 0000.0001) //            Avg. Y spins =       0.00E+00
(PID.TID 0000.0001) // o Tile number: 000009
(PID.TID 0000.0001) //         No. X exchanges =              0
(PID.TID 0000.0001) //            Max. X spins =              0
(PID.TID 0000.0001) //            Min. X spins =     1000000000
(PID.TID 0000.0001) //          Total. X spins =              0
(PID.TID 0000.0001) //            Avg. X spins =       0.00E+00
(PID.TID 0000.0001) //         No. Y exchanges =              0
(PID.TID 0000.0001) //            Max. Y spins =              0
(PID.TID 0000.0001) //            Min. Y spins =     1000000000
(PID.TID 0000.0001) //          Total. Y spins =              0
(PID.TID 0000.0001) //            Avg. Y spins =       0.00E+00
(PID.TID 0000.0001) // o Tile number: 000010
(PID.TID 0000.0001) //         No. X exchanges =              0
(PID.TID 0000.0001) //            Max. X spins =              0
(PID.TID 0000.0001) //            Min. X spins =     1000000000
(PID.TID 0000.0001) //          Total. X spins =              0
(PID.TID 0000.0001) //            Avg. X spins =       0.00E+00
(PID.TID 0000.0001) //         No. Y exchanges =              0
(PID.TID 0000.0001) //            Max. Y spins =              0
(PID.TID 0000.0001) //            Min. Y spins =     1000000000
(PID.TID 0000.0001) //          Total. Y spins =              0
(PID.TID 0000.0001) //            Avg. Y spins =       0.00E+00
(PID.TID 0000.0001) // o Tile number: 000011
(PID.TID 0000.0001) //         No. X exchanges =              0
(PID.TID 0000.0001) //            Max. X spins =              0
(PID.TID 0000.0001) //            Min. X spins =     1000000000
(PID.TID 0000.0001) //          Total. X spins =              0
(PID.TID 0000.0001) //            Avg. X spins =       0.00E+00
(PID.TID 0000.0001) //         No. Y exchanges =              0
(PID.TID 0000.0001) //            Max. Y spins =              0
(PID.TID 0000.0001) //            Min. Y spins =     1000000000
(PID.TID 0000.0001) //          Total. Y spins =              0
(PID.TID 0000.0001) //            Avg. Y spins =       0.00E+00
(PID.TID 0000.0001) // o Tile number: 000012
(PID.TID 0000.0001) //         No. X exchanges =              0
(PID.TID 0000.0001) //            Max. X spins =              0
(PID.TID 0000.0001) //            Min. X spins =     1000000000
(PID.TID 0000.0001) //          Total. X spins =              0
(PID.TID 0000.0001) //            Avg. X spins =       0.00E+00
(PID.TID 0000.0001) //         No. Y exchanges =              0
(PID.TID 0000.0001) //            Max. Y spins =              0
(PID.TID 0000.0001) //            Min. Y spins =     1000000000
(PID.TID 0000.0001) //          Total. Y spins =              0
(PID.TID 0000.0001) //            Avg. Y spins =       0.00E+00
(PID.TID 0000.0001) // o Tile number: 000013
(PID.TID 0000.0001) //         No. X exchanges =              0
(PID.TID 0000.0001) //            Max. X spins =              0
(PID.TID 0000.0001) //            Min. X spins =     1000000000
(PID.TID 0000.0001) //          Total. X spins =              0
(PID.TID 0000.0001) //            Avg. X spins =       0.00E+00
(PID.TID 0000.0001) //         No. Y exchanges =              0
(PID.TID 0000.0001) //            Max. Y spins =              0
(PID.TID 0000.0001) //            Min. Y spins =     1000000000
(PID.TID 0000.0001) //          Total. Y spins =              0
(PID.TID 0000.0001) //            Avg. Y spins =       0.00E+00
(PID.TID 0000.0001) // o Tile number: 000014
(PID.TID 0000.0001) //         No. X exchanges =              0
(PID.TID 0000.0001) //            Max. X spins =              0
(PID.TID 0000.0001) //            Min. X spins =     1000000000
(PID.TID 0000.0001) //          Total. X spins =              0
(PID.TID 0000.0001) //            Avg. X spins =       0.00E+00
(PID.TID 0000.0001) //         No. Y exchanges =              0
(PID.TID 0000.0001) //            Max. Y spins =              0
(PID.TID 0000.0001) //            Min. Y spins =     1000000000
(PID.TID 0000.0001) //          Total. Y spins =              0
(PID.TID 0000.0001) //            Avg. Y spins =       0.00E+00
(PID.TID 0000.0001) // o Tile number: 000015
(PID.TID 0000.0001) //         No. X exchanges =              0
(PID.TID 0000.0001) //            Max. X spins =              0
(PID.TID 0000.0001) //            Min. X spins =     1000000000
(PID.TID 0000.0001) //          Total. X spins =              0
(PID.TID 0000.0001) //            Avg. X spins =       0.00E+00
(PID.TID 0000.0001) //         No. Y exchanges =              0
(PID.TID 0000.0001) //            Max. Y spins =              0
(PID.TID 0000.0001) //            Min. Y spins =     1000000000
(PID.TID 0000.0001) //          Total. Y spins =              0
(PID.TID 0000.0001) //            Avg. Y spins =       0.00E+00
(PID.TID 0000.0001) // o Tile number: 000016
(PID.TID 0000.0001) //         No. X exchanges =              0
(PID.TID 0000.0001) //            Max. X spins =              0
(PID.TID 0000.0001) //            Min. X spins =     1000000000
(PID.TID 0000.0001) //          Total. X spins =              0
(PID.TID 0000.0001) //            Avg. X spins =       0.00E+00
(PID.TID 0000.0001) //         No. Y exchanges =              0
(PID.TID 0000.0001) //            Max. Y spins =              0
(PID.TID 0000.0001) //            Min. Y spins =     1000000000
(PID.TID 0000.0001) //          Total. Y spins =              0
(PID.TID 0000.0001) //            Avg. Y spins =       0.00E+00
(PID.TID 0000.0001) // o Tile number: 000017
(PID.TID 0000.0001) //         No. X exchanges =              0
(PID.TID 0000.0001) //            Max. X spins =              0
(PID.TID 0000.0001) //            Min. X spins =     1000000000
(PID.TID 0000.0001) //          Total. X spins =              0
(PID.TID 0000.0001) //            Avg. X spins =       0.00E+00
(PID.TID 0000.0001) //         No. Y exchanges =              0
(PID.TID 0000.0001) //            Max. Y spins =              0
(PID.TID 0000.0001) //            Min. Y spins =     1000000000
(PID.TID 0000.0001) //          Total. Y spins =              0
(PID.TID 0000.0001) //            Avg. Y spins =       0.00E+00
(PID.TID 0000.0001) // o Tile number: 000018
(PID.TID 0000.0001) //         No. X exchanges =              0
(PID.TID 0000.0001) //            Max. X spins =              0
(PID.TID 0000.0001) //            Min. X spins =     1000000000
(PID.TID 0000.0001) //          Total. X spins =              0
(PID.TID 0000.0001) //            Avg. X spins =       0.00E+00
(PID.TID 0000.0001) //         No. Y exchanges =              0
(PID.TID 0000.0001) //            Max. Y spins =              0
(PID.TID 0000.0001) //            Min. Y spins =     1000000000
(PID.TID 0000.0001) //          Total. Y spins =              0
(PID.TID 0000.0001) //            Avg. Y spins =       0.00E+00
(PID.TID 0000.0001) // o Tile number: 000019
(PID.TID 0000.0001) //         No. X exchanges =              0
(PID.TID 0000.0001) //            Max. X spins =              0
(PID.TID 0000.0001) //            Min. X spins =     1000000000
(PID.TID 0000.0001) //          Total. X spins =              0
(PID.TID 0000.0001) //            Avg. X spins =       0.00E+00
(PID.TID 0000.0001) //         No. Y exchanges =              0
(PID.TID 0000.0001) //            Max. Y spins =              0
(PID.TID 0000.0001) //            Min. Y spins =     1000000000
(PID.TID 0000.0001) //          Total. Y spins =              0
(PID.TID 0000.0001) //            Avg. Y spins =       0.00E+00
(PID.TID 0000.0001) // o Tile number: 000020
(PID.TID 0000.0001) //         No. X exchanges =              0
(PID.TID 0000.0001) //            Max. X spins =              0
(PID.TID 0000.0001) //            Min. X spins =     1000000000
(PID.TID 0000.0001) //          Total. X spins =              0
(PID.TID 0000.0001) //            Avg. X spins =       0.00E+00
(PID.TID 0000.0001) //         No. Y exchanges =              0
(PID.TID 0000.0001) //            Max. Y spins =              0
(PID.TID 0000.0001) //            Min. Y spins =     1000000000
(PID.TID 0000.0001) //          Total. Y spins =              0
(PID.TID 0000.0001) //            Avg. Y spins =       0.00E+00
(PID.TID 0000.0001) // o Tile number: 000021
(PID.TID 0000.0001) //         No. X exchanges =              0
(PID.TID 0000.0001) //            Max. X spins =              0
(PID.TID 0000.0001) //            Min. X spins =     1000000000
(PID.TID 0000.0001) //          Total. X spins =              0
(PID.TID 0000.0001) //            Avg. X spins =       0.00E+00
(PID.TID 0000.0001) //         No. Y exchanges =              0
(PID.TID 0000.0001) //            Max. Y spins =              0
(PID.TID 0000.0001) //            Min. Y spins =     1000000000
(PID.TID 0000.0001) //          Total. Y spins =              0
(PID.TID 0000.0001) //            Avg. Y spins =       0.00E+00
(PID.TID 0000.0001) // o Tile number: 000022
(PID.TID 0000.0001) //         No. X exchanges =              0
(PID.TID 0000.0001) //            Max. X spins =              0
(PID.TID 0000.0001) //            Min. X spins =     1000000000
(PID.TID 0000.0001) //          Total. X spins =              0
(PID.TID 0000.0001) //            Avg. X spins =       0.00E+00
(PID.TID 0000.0001) //         No. Y exchanges =              0
(PID.TID 0000.0001) //            Max. Y spins =              0
(PID.TID 0000.0001) //            Min. Y spins =     1000000000
(PID.TID 0000.0001) //          Total. Y spins =              0
(PID.TID 0000.0001) //            Avg. Y spins =       0.00E+00
(PID.TID 0000.0001) // o Tile number: 000023
(PID.TID 0000.0001) //         No. X exchanges =              0
(PID.TID 0000.0001) //            Max. X spins =              0
(PID.TID 0000.0001) //            Min. X spins =     1000000000
(PID.TID 0000.0001) //          Total. X spins =              0
(PID.TID 0000.0001) //            Avg. X spins =       0.00E+00
(PID.TID 0000.0001) //         No. Y exchanges =              0
(PID.TID 0000.0001) //            Max. Y spins =              0
(PID.TID 0000.0001) //            Min. Y spins =     1000000000
(PID.TID 0000.0001) //          Total. Y spins =              0
(PID.TID 0000.0001) //            Avg. Y spins =       0.00E+00
(PID.TID 0000.0001) // o Tile number: 000024
(PID.TID 0000.0001) //         No. X exchanges =              0
(PID.TID 0000.0001) //            Max. X spins =              0
(PID.TID 0000.0001) //            Min. X spins =     1000000000
(PID.TID 0000.0001) //          Total. X spins =              0
(PID.TID 0000.0001) //            Avg. X spins =       0.00E+00
(PID.TID 0000.0001) //         No. Y exchanges =              0
(PID.TID 0000.0001) //            Max. Y spins =              0
(PID.TID 0000.0001) //            Min. Y spins =     1000000000
(PID.TID 0000.0001) //          Total. Y spins =              0
(PID.TID 0000.0001) //            Avg. Y spins =       0.00E+00
(PID.TID 0000.0001) // o Tile number: 000025
(PID.TID 0000.0001) //         No. X exchanges =              0
(PID.TID 0000.0001) //            Max. X spins =              0
(PID.TID 0000.0001) //            Min. X spins =     1000000000
(PID.TID 0000.0001) //          Total. X spins =              0
(PID.TID 0000.0001) //            Avg. X spins =       0.00E+00
(PID.TID 0000.0001) //         No. Y exchanges =              0
(PID.TID 0000.0001) //            Max. Y spins =              0
(PID.TID 0000.0001) //            Min. Y spins =     1000000000
(PID.TID 0000.0001) //          Total. Y spins =              0
(PID.TID 0000.0001) //            Avg. Y spins =       0.00E+00
(PID.TID 0000.0001) // o Tile number: 000026
(PID.TID 0000.0001) //         No. X exchanges =              0
(PID.TID 0000.0001) //            Max. X spins =              0
(PID.TID 0000.0001) //            Min. X spins =     1000000000
(PID.TID 0000.0001) //          Total. X spins =              0
(PID.TID 0000.0001) //            Avg. X spins =       0.00E+00
(PID.TID 0000.0001) //         No. Y exchanges =              0
(PID.TID 0000.0001) //            Max. Y spins =              0
(PID.TID 0000.0001) //            Min. Y spins =     1000000000
(PID.TID 0000.0001) //          Total. Y spins =              0
(PID.TID 0000.0001) //            Avg. Y spins =       0.00E+00
(PID.TID 0000.0001) // o Tile number: 000027
(PID.TID 0000.0001) //         No. X exchanges =              0
(PID.TID 0000.0001) //            Max. X spins =              0
(PID.TID 0000.0001) //            Min. X spins =     1000000000
(PID.TID 0000.0001) //          Total. X spins =              0
(PID.TID 0000.0001) //            Avg. X spins =       0.00E+00
(PID.TID 0000.0001) //         No. Y exchanges =              0
(PID.TID 0000.0001) //            Max. Y spins =              0
(PID.TID 0000.0001) //            Min. Y spins =     1000000000
(PID.TID 0000.0001) //          Total. Y spins =              0
(PID.TID 0000.0001) //            Avg. Y spins =       0.00E+00
(PID.TID 0000.0001) // o Tile number: 000028
(PID.TID 0000.0001) //         No. X exchanges =              0
(PID.TID 0000.0001) //            Max. X spins =              0
(PID.TID 0000.0001) //            Min. X spins =     1000000000
(PID.TID 0000.0001) //          Total. X spins =              0
(PID.TID 0000.0001) //            Avg. X spins =       0.00E+00
(PID.TID 0000.0001) //         No. Y exchanges =              0
(PID.TID 0000.0001) //            Max. Y spins =              0
(PID.TID 0000.0001) //            Min. Y spins =     1000000000
(PID.TID 0000.0001) //          Total. Y spins =              0
(PID.TID 0000.0001) //            Avg. Y spins =       0.00E+00
(PID.TID 0000.0001) // o Tile number: 000029
(PID.TID 0000.0001) //         No. X exchanges =              0
(PID.TID 0000.0001) //            Max. X spins =              0
(PID.TID 0000.0001) //            Min. X spins =     1000000000
(PID.TID 0000.0001) //          Total. X spins =              0
(PID.TID 0000.0001) //            Avg. X spins =       0.00E+00
(PID.TID 0000.0001) //         No. Y exchanges =              0
(PID.TID 0000.0001) //            Max. Y spins =              0
(PID.TID 0000.0001) //            Min. Y spins =     1000000000
(PID.TID 0000.0001) //          Total. Y spins =              0
(PID.TID 0000.0001) //            Avg. Y spins =       0.00E+00
(PID.TID 0000.0001) // o Tile number: 000030
(PID.TID 0000.0001) //         No. X exchanges =              0
(PID.TID 0000.0001) //            Max. X spins =              0
(PID.TID 0000.0001) //            Min. X spins =     1000000000
(PID.TID 0000.0001) //          Total. X spins =              0
(PID.TID 0000.0001) //            Avg. X spins =       0.00E+00
(PID.TID 0000.0001) //         No. Y exchanges =              0
(PID.TID 0000.0001) //            Max. Y spins =              0
(PID.TID 0000.0001) //            Min. Y spins =     1000000000
(PID.TID 0000.0001) //          Total. Y spins =              0
(PID.TID 0000.0001) //            Avg. Y spins =       0.00E+00
(PID.TID 0000.0001) // o Thread number: 000001
(PID.TID 0000.0001) //            No. barriers =          27978
(PID.TID 0000.0001) //      Max. barrier spins =              1
(PID.TID 0000.0001) //      Min. barrier spins =              1
(PID.TID 0000.0001) //     Total barrier spins =          27978
(PID.TID 0000.0001) //      Avg. barrier spins =       1.00E+00
