(PID.TID 0000.0001) 
(PID.TID 0000.0001) // ======================================================
(PID.TID 0000.0001) //                      MITgcm UV
(PID.TID 0000.0001) //                      =========
(PID.TID 0000.0001) // ======================================================
(PID.TID 0000.0001) // execution environment starting up...
(PID.TID 0000.0001) 
(PID.TID 0000.0001) // MITgcmUV version:  checkpoint67w
(PID.TID 0000.0001) // Build user:        jm_c
(PID.TID 0000.0001) // Build host:        villon
(PID.TID 0000.0001) // Build date:        Wed Mar 24 12:08:09 EDT 2021
(PID.TID 0000.0001) 
(PID.TID 0000.0001) // =======================================================
(PID.TID 0000.0001) // Execution Environment parameter file "eedata"
(PID.TID 0000.0001) // =======================================================
(PID.TID 0000.0001) ># Example "eedata" file
(PID.TID 0000.0001) ># Lines beginning "#" are comments
(PID.TID 0000.0001) ># nTx - No. threads per process in X
(PID.TID 0000.0001) ># nTy - No. threads per process in Y
(PID.TID 0000.0001) > &EEPARMS
(PID.TID 0000.0001) > useCubedSphereExchange=.TRUE.,
(PID.TID 0000.0001) > nTx=1,
(PID.TID 0000.0001) > nTy=1,
(PID.TID 0000.0001) > /
(PID.TID 0000.0001) ># Note: Some systems use & as the
(PID.TID 0000.0001) ># namelist terminator. Other systems
(PID.TID 0000.0001) ># use a / character (as shown here).
(PID.TID 0000.0001) 
(PID.TID 0000.0001) // =======================================================
(PID.TID 0000.0001) // Computational Grid Specification ( see files "SIZE.h" )
(PID.TID 0000.0001) //                                  ( and "eedata"       )
(PID.TID 0000.0001) // =======================================================
(PID.TID 0000.0001)      nPx =    1 ; /* No. processes in X */
(PID.TID 0000.0001)      nPy =    1 ; /* No. processes in Y */
(PID.TID 0000.0001)      nSx =   12 ; /* No. tiles in X per process */
(PID.TID 0000.0001)      nSy =    1 ; /* No. tiles in Y per process */
(PID.TID 0000.0001)      sNx =   32 ; /* Tile size in X */
(PID.TID 0000.0001)      sNy =   16 ; /* Tile size in Y */
(PID.TID 0000.0001)      OLx =    4 ; /* Tile overlap distance in X */
(PID.TID 0000.0001)      OLy =    4 ; /* Tile overlap distance in Y */
(PID.TID 0000.0001)      nTx =    1 ; /* No. threads in X per process */
(PID.TID 0000.0001)      nTy =    1 ; /* No. threads in Y per process */
(PID.TID 0000.0001)       Nr =   15 ; /* No. levels in the vertical   */
(PID.TID 0000.0001)       Nx =  384 ; /* Total domain size in X ( = nPx*nSx*sNx ) */
(PID.TID 0000.0001)       Ny =   16 ; /* Total domain size in Y ( = nPy*nSy*sNy ) */
(PID.TID 0000.0001)   nTiles =   12 ; /* Total no. tiles per process ( = nSx*nSy ) */
(PID.TID 0000.0001)   nProcs =    1 ; /* Total no. processes ( = nPx*nPy ) */
(PID.TID 0000.0001) nThreads =    1 ; /* Total no. threads per process ( = nTx*nTy ) */
(PID.TID 0000.0001) usingMPI =    F ; /* Flag used to control whether MPI is in use */
(PID.TID 0000.0001)                   /*  note: To execute a program with MPI calls */
(PID.TID 0000.0001)                   /*  it must be launched appropriately e.g     */
(PID.TID 0000.0001)                   /*  "mpirun -np 64 ......"                    */
(PID.TID 0000.0001) useCoupler=   F ; /* Flag used to control communications with   */
(PID.TID 0000.0001)                   /*  other model components, through a coupler */
(PID.TID 0000.0001) useNest2W_parent =    F ;/* Control 2-W Nesting comm */
(PID.TID 0000.0001) useNest2W_child  =    F ;/* Control 2-W Nesting comm */
(PID.TID 0000.0001) debugMode =    F ; /* print debug msg. (sequence of S/R calls)  */
(PID.TID 0000.0001) printMapIncludesZeros=    F ; /* print zeros in Std.Output maps */
(PID.TID 0000.0001) maxLengthPrt1D=   65 /* maxLength of 1D array printed to StdOut */
(PID.TID 0000.0001) 
(PID.TID 0000.0001) // ======================================================
(PID.TID 0000.0001) // Mapping of tiles to threads
(PID.TID 0000.0001) // ======================================================
(PID.TID 0000.0001) // -o- Thread   1, tiles (   1:  12,   1:   1)
(PID.TID 0000.0001) 
(PID.TID 0000.0001) W2_READPARMS: file data.exch2 not found
(PID.TID 0000.0001) => use W2_EXCH2 default: regular 6-facets Cube
(PID.TID 0000.0001) W2_useE2ioLayOut=    T ;/* T: use Exch2 glob IO map; F: use model default */
(PID.TID 0000.0001) W2_mapIO        =  -1 ; /* select option for Exch2 global-IO map */
(PID.TID 0000.0001) W2_printMsg     =  -1 ; /* select option for printing information */
(PID.TID 0000.0001) ===== Start setting W2 TOPOLOGY:
(PID.TID 0000.0001)  write to log-file: w2_tile_topology.0000.log
(PID.TID 0000.0001) =====       setting W2 TOPOLOGY: Done
(PID.TID 0000.0001) 
(PID.TID 0000.0001)  INI_PARMS: opening model parameter file "data"
(PID.TID 0000.0001)  OPEN_COPY_DATA_FILE: opening file data
(PID.TID 0000.0001) // =======================================================
(PID.TID 0000.0001) // Parameter file "data"
(PID.TID 0000.0001) // =======================================================
(PID.TID 0000.0001) ># ====================
(PID.TID 0000.0001) ># | Model parameters |
(PID.TID 0000.0001) ># ====================
(PID.TID 0000.0001) >#
(PID.TID 0000.0001) ># Continuous equation parameters
(PID.TID 0000.0001) > &PARM01
(PID.TID 0000.0001) > tRef=15*20.,
(PID.TID 0000.0001) > sRef=15*35.,
(PID.TID 0000.0001) > viscAh =3.E5,
(PID.TID 0000.0001) >#- biharmonic Viscosity: 3.e15 is close to the stability limit with deltaTmom=20mn
(PID.TID 0000.0001) >#viscA4 =3.E15,
(PID.TID 0000.0001) > viscAr =1.E-3,
(PID.TID 0000.0001) > diffKhT=0.,
(PID.TID 0000.0001) > diffK4T=0.,
(PID.TID 0000.0001) >#- diffKrT unused when compiled with ALLOW_3D_DIFFKR
(PID.TID 0000.0001) >#diffKrT=3.E-5,
(PID.TID 0000.0001) > diffKhS=0.,
(PID.TID 0000.0001) > diffK4S=0.,
(PID.TID 0000.0001) > diffKrS=3.E-5,
(PID.TID 0000.0001) > ivdc_kappa=10.,
(PID.TID 0000.0001) > implicitDiffusion=.TRUE.,
(PID.TID 0000.0001) > gravity=9.81,
(PID.TID 0000.0001) > rhoConst=1035.,
(PID.TID 0000.0001) > rhoConstFresh=1000.,
(PID.TID 0000.0001) > eosType='JMD95Z',
(PID.TID 0000.0001) > staggerTimeStep=.TRUE.,
(PID.TID 0000.0001) > vectorInvariantMomentum=.TRUE.,
(PID.TID 0000.0001) > implicitFreeSurface=.TRUE.,
(PID.TID 0000.0001) > tempAdvScheme=30,
(PID.TID 0000.0001) > saltAdvScheme=30,
(PID.TID 0000.0001) > exactConserv=.TRUE.,
(PID.TID 0000.0001) > select_rStar=1,
(PID.TID 0000.0001) > nonlinFreeSurf=2,
(PID.TID 0000.0001) > hFacInf=0.2,
(PID.TID 0000.0001) > hFacSup=2.0,
(PID.TID 0000.0001) > useRealFreshWaterFlux=.TRUE.,
(PID.TID 0000.0001) >### allowFreezing=.TRUE.,
(PID.TID 0000.0001) > hFacMin=.1,
(PID.TID 0000.0001) > hFacMinDr=20.,
(PID.TID 0000.0001) > readBinaryPrec=64,
(PID.TID 0000.0001) > /
(PID.TID 0000.0001) >
(PID.TID 0000.0001) ># Elliptic solver parameters
(PID.TID 0000.0001) > &PARM02
(PID.TID 0000.0001) > cg2dMaxIters=200,
(PID.TID 0000.0001) >#cg2dTargetResidual=1.E-9,
(PID.TID 0000.0001) > cg2dTargetResWunit=1.E-14,
(PID.TID 0000.0001) > /
(PID.TID 0000.0001) >
(PID.TID 0000.0001) ># Time stepping parameters
(PID.TID 0000.0001) > &PARM03
(PID.TID 0000.0001) > nIter0=72000,
(PID.TID 0000.0001) > nTimeSteps= 5,
(PID.TID 0000.0001) > deltaTMom   =1200.,
(PID.TID 0000.0001) > deltaTtracer=86400.,
(PID.TID 0000.0001) > deltaTFreeSurf=86400.,
(PID.TID 0000.0001) > deltaTClock =86400.,
(PID.TID 0000.0001) > abEps = 0.1,
(PID.TID 0000.0001) > alph_AB=0.6,
(PID.TID 0000.0001) > beta_AB=0.0,
(PID.TID 0000.0001) > forcing_In_AB=.FALSE.,
(PID.TID 0000.0001) > pChkptFreq  =311040000.,
(PID.TID 0000.0001) > chkptFreq   = 31104000.,
(PID.TID 0000.0001) >#taveFreq    =311040000.,
(PID.TID 0000.0001) >#dumpFreq    = 31104000.,
(PID.TID 0000.0001) >#adjDumpFreq = 31104000.,
(PID.TID 0000.0001) >#monitorFreq = 31104000.,
(PID.TID 0000.0001) >#- forcing is set by EXF
(PID.TID 0000.0001) ># periodicExternalForcing=.TRUE.,
(PID.TID 0000.0001) ># externForcingPeriod=2592000.,
(PID.TID 0000.0001) ># externForcingCycle=31104000.,
(PID.TID 0000.0001) ># 2 months restoring timescale for temperature
(PID.TID 0000.0001) ># tauThetaClimRelax = 5184000.,
(PID.TID 0000.0001) ># 2yrs restoring timescale for salinity
(PID.TID 0000.0001) ># tauSaltClimRelax = 62208000.,
(PID.TID 0000.0001) > monitorFreq   =1.,
(PID.TID 0000.0001) > adjMonitorFreq=1.,
(PID.TID 0000.0001) > dumpFreq    = 432000.,
(PID.TID 0000.0001) > adjDumpFreq = 432000.,
(PID.TID 0000.0001) > pickupStrictlyMatch=.FALSE.,
(PID.TID 0000.0001) > /
(PID.TID 0000.0001) >
(PID.TID 0000.0001) ># Gridding parameters
(PID.TID 0000.0001) > &PARM04
(PID.TID 0000.0001) > usingCurvilinearGrid=.TRUE.,
(PID.TID 0000.0001) > horizGridFile='grid_cs32',
(PID.TID 0000.0001) > delR= 50., 70., 100., 140., 190.,
(PID.TID 0000.0001) >       240., 290., 340., 390., 440.,
(PID.TID 0000.0001) >       490., 540., 590., 640., 690.,
(PID.TID 0000.0001) > /
(PID.TID 0000.0001) >
(PID.TID 0000.0001) ># Input datasets
(PID.TID 0000.0001) > &PARM05
(PID.TID 0000.0001) > bathyFile      ='bathy_Hmin50.bin',
(PID.TID 0000.0001) > hydrogThetaFile='lev_T_cs_15k.bin',
(PID.TID 0000.0001) > hydrogSaltFile ='lev_S_cs_15k.bin',
(PID.TID 0000.0001) >#- forcing is set by EXF
(PID.TID 0000.0001) ># zonalWindFile  ='trenberth_taux.bin',
(PID.TID 0000.0001) ># meridWindFile  ='trenberth_tauy.bin',
(PID.TID 0000.0001) ># thetaClimFile  ='lev_surfT_cs_12m.bin',
(PID.TID 0000.0001) ># saltClimFile   ='lev_surfS_cs_12m.bin',
(PID.TID 0000.0001) ># surfQnetFile   ='shiQnet_cs32.bin',
(PID.TID 0000.0001) ># EmPmRFile      ='shiEmPR_cs32.bin',
(PID.TID 0000.0001) > /
(PID.TID 0000.0001) 
(PID.TID 0000.0001)  INI_PARMS ; starts to read PARM01
(PID.TID 0000.0001)  INI_PARMS ; read PARM01 : OK
(PID.TID 0000.0001)  INI_PARMS ; starts to read PARM02
(PID.TID 0000.0001)  INI_PARMS ; read PARM02 : OK
(PID.TID 0000.0001)  INI_PARMS ; starts to read PARM03
(PID.TID 0000.0001)  INI_PARMS ; read PARM03 : OK
(PID.TID 0000.0001)  INI_PARMS ; starts to read PARM04
(PID.TID 0000.0001)  INI_PARMS ; read PARM04 : OK
(PID.TID 0000.0001)  INI_PARMS ; starts to read PARM05
(PID.TID 0000.0001)  INI_PARMS ; read PARM05 : OK
(PID.TID 0000.0001)  INI_PARMS: finished reading file "data"
(PID.TID 0000.0001)  PACKAGES_BOOT: opening data.pkg
(PID.TID 0000.0001)  OPEN_COPY_DATA_FILE: opening file data.pkg
(PID.TID 0000.0001) // =======================================================
(PID.TID 0000.0001) // Parameter file "data.pkg"
(PID.TID 0000.0001) // =======================================================
(PID.TID 0000.0001) ># Packages
(PID.TID 0000.0001) > &PACKAGES
(PID.TID 0000.0001) > useGMRedi = .TRUE.,
(PID.TID 0000.0001) > useEXF    = .TRUE.,
(PID.TID 0000.0001) > useCAL    = .TRUE.,
(PID.TID 0000.0001) > useTHSICE = .FALSE.,
(PID.TID 0000.0001) > useSEAICE = .TRUE.,
(PID.TID 0000.0001) >#useDiagnostics=.TRUE.,
(PID.TID 0000.0001) >#useMNC=.TRUE.,
(PID.TID 0000.0001) > useGrdchk=.TRUE.,
(PID.TID 0000.0001) > /
(PID.TID 0000.0001) 
(PID.TID 0000.0001)  PACKAGES_BOOT: finished reading data.pkg
(PID.TID 0000.0001)  PACKAGES_BOOT: On/Off package Summary
 --------  pkgs with a standard "usePKG" On/Off switch in "data.pkg":  --------
 pkg/gmredi               compiled   and   used ( useGMRedi                = T )
 pkg/cal                  compiled   and   used ( useCAL                   = T )
 pkg/exf                  compiled   and   used ( useEXF                   = T )
 pkg/autodiff             compiled   and   used ( useAUTODIFF              = T )
 pkg/grdchk               compiled   and   used ( useGrdchk                = T )
 pkg/ctrl                 compiled   and   used ( useCTRL                  = T )
 pkg/seaice               compiled   and   used ( useSEAICE                = T )
 pkg/thsice               compiled but not used ( useThSIce                = F )
 pkg/diagnostics          compiled but not used ( useDiagnostics           = F )
 -------- pkgs without standard "usePKG" On/Off switch in "data.pkg":  --------
 pkg/generic_advdiff      compiled   and   used ( useGAD                   = T )
 pkg/mom_common           compiled   and   used ( momStepping              = T )
 pkg/mom_vecinv           compiled   and   used ( +vectorInvariantMomentum = T )
 pkg/monitor              compiled   and   used ( monitorFreq > 0.         = T )
 pkg/debug                compiled but not used ( debugMode                = F )
 pkg/exch2                compiled   and   used
 pkg/rw                   compiled   and   used
 pkg/mdsio                compiled   and   used
 pkg/autodiff             compiled   and   used
 pkg/cost                 compiled   and   used
(PID.TID 0000.0001)  PACKAGES_BOOT: End of package Summary
(PID.TID 0000.0001) 
(PID.TID 0000.0001) CAL_READPARMS: opening data.cal
(PID.TID 0000.0001)  OPEN_COPY_DATA_FILE: opening file data.cal
(PID.TID 0000.0001) // =======================================================
(PID.TID 0000.0001) // Parameter file "data.cal"
(PID.TID 0000.0001) // =======================================================
(PID.TID 0000.0001) >#
(PID.TID 0000.0001) ># *******************
(PID.TID 0000.0001) ># Calendar Parameters
(PID.TID 0000.0001) ># *******************
(PID.TID 0000.0001) > &CAL_NML
(PID.TID 0000.0001) > TheCalendar='model',
(PID.TID 0000.0001) > startDate_1=00010101,
(PID.TID 0000.0001) > startDate_2=000000,
(PID.TID 0000.0001) > /
(PID.TID 0000.0001) 
(PID.TID 0000.0001) CAL_READPARMS: finished reading data.cal
(PID.TID 0000.0001) EXF_READPARMS: opening data.exf
(PID.TID 0000.0001)  OPEN_COPY_DATA_FILE: opening file data.exf
(PID.TID 0000.0001) // =======================================================
(PID.TID 0000.0001) // Parameter file "data.exf"
(PID.TID 0000.0001) // =======================================================
(PID.TID 0000.0001) ># *********************
(PID.TID 0000.0001) ># External Forcing Data
(PID.TID 0000.0001) ># *********************
(PID.TID 0000.0001) > &EXF_NML_01
(PID.TID 0000.0001) >#exf_debugLev      = 3,
(PID.TID 0000.0001) >#useExfCheckRange  = .TRUE.,
(PID.TID 0000.0001) >#useStabilityFct_overIce=.TRUE.,
(PID.TID 0000.0001) >#snow_emissivity   = 0.98,
(PID.TID 0000.0001) >#ice_emissivity    = 0.98,
(PID.TID 0000.0001) > ocean_emissivity  = 1.,
(PID.TID 0000.0001) > atmrho            = 1.22,
(PID.TID 0000.0001) > humid_fac         = .608,
(PID.TID 0000.0001) > ht                = 10.,
(PID.TID 0000.0001) > exf_albedo        = 0.066,
(PID.TID 0000.0001) >#readStressOnAgrid = .TRUE.,
(PID.TID 0000.0001) > readStressOnCgrid = .TRUE.,
(PID.TID 0000.0001) > exf_monFreq       = 0.,
(PID.TID 0000.0001) > repeatPeriod      = 31104000.,
(PID.TID 0000.0001) > exf_iprec         = 64,
(PID.TID 0000.0001) > /
(PID.TID 0000.0001) >
(PID.TID 0000.0001) ># *********************
(PID.TID 0000.0001) > &EXF_NML_02
(PID.TID 0000.0001) >#
(PID.TID 0000.0001) > atempstartdate1   = 00010116,
(PID.TID 0000.0001) >#atempstartdate2   = 180000,
(PID.TID 0000.0001) > atempperiod       = 2592000.0,
(PID.TID 0000.0001) >#
(PID.TID 0000.0001) > aqhstartdate1     = 00010116,
(PID.TID 0000.0001) >#aqhstartdate2     = 180000,
(PID.TID 0000.0001) > aqhperiod         = 2592000.0,
(PID.TID 0000.0001) >#
(PID.TID 0000.0001) > precipstartdate1  = 00010116,
(PID.TID 0000.0001) >#precipstartdate2  = 180000,
(PID.TID 0000.0001) > precipperiod      = 2592000.0,
(PID.TID 0000.0001) >#
(PID.TID 0000.0001) > snowprecipstartdate1= 00010116,
(PID.TID 0000.0001) >#snowprecipstartdate2= 180000,
(PID.TID 0000.0001) > snowprecipperiod    = 2592000.,
(PID.TID 0000.0001) >#
(PID.TID 0000.0001) > runoffstartdate1  = 00010116,
(PID.TID 0000.0001) >#runoffstartdate2  = 180000,
(PID.TID 0000.0001) > runoffperiod      = 2592000.0,
(PID.TID 0000.0001) >#
(PID.TID 0000.0001) > uwindstartdate1   = 00010116,
(PID.TID 0000.0001) >#uwindstartdate2   = 180000,
(PID.TID 0000.0001) > uwindperiod       = 2592000.0,
(PID.TID 0000.0001) >#
(PID.TID 0000.0001) > vwindstartdate1   = 00010116,
(PID.TID 0000.0001) >#vwindstartdate2   = 180000,
(PID.TID 0000.0001) > vwindperiod       = 2592000.0,
(PID.TID 0000.0001) >#
(PID.TID 0000.0001) > ustressstartdate1 = 00010116,
(PID.TID 0000.0001) >#ustressstartdate2 = 180000,
(PID.TID 0000.0001) > ustressperiod     = 2592000.0,
(PID.TID 0000.0001) >#
(PID.TID 0000.0001) > vstressstartdate1 = 00010116,
(PID.TID 0000.0001) >#vstressstartdate2 = 180000,
(PID.TID 0000.0001) > vstressperiod     = 2592000.0,
(PID.TID 0000.0001) >#
(PID.TID 0000.0001) > wspeedstartdate1  = 00010116,
(PID.TID 0000.0001) >#wspeedstartdate2  = 180000,
(PID.TID 0000.0001) > wspeedperiod      = 2592000.0,
(PID.TID 0000.0001) >#
(PID.TID 0000.0001) > swdownstartdate1  = 00010116,
(PID.TID 0000.0001) >#swdownstartdate2  = 180000,
(PID.TID 0000.0001) > swdownperiod      = 2592000.0,
(PID.TID 0000.0001) >#
(PID.TID 0000.0001) > lwdownstartdate1  = 00010116,
(PID.TID 0000.0001) >#lwdownstartdate2  = 180000,
(PID.TID 0000.0001) > lwdownperiod      = 2592000.0,
(PID.TID 0000.0001) >#
(PID.TID 0000.0001) > climsssstartdate1  = 00010116,
(PID.TID 0000.0001) >#climsssstartdate2  = 180000,
(PID.TID 0000.0001) > climsssperiod      = 2592000.0,
(PID.TID 0000.0001) >#
(PID.TID 0000.0001) > climsststartdate1  = 00010116,
(PID.TID 0000.0001) >#climsststartdate2  = 180000,
(PID.TID 0000.0001) > climsstperiod      = 2592000.0,
(PID.TID 0000.0001) >#
(PID.TID 0000.0001) > atempfile         = 'core_t_Air_cs32.bin',
(PID.TID 0000.0001) > aqhfile           = 'core_q_air_cs32.bin',
(PID.TID 0000.0001) > ustressfile       = 'trenberth_taux.bin',
(PID.TID 0000.0001) > vstressfile       = 'trenberth_tauy.bin',
(PID.TID 0000.0001) >#uwindfile         = 'core_u_wind_cs32.bin',
(PID.TID 0000.0001) >#vwindfile         = 'core_v_wind_cs32.bin',
(PID.TID 0000.0001) > wspeedfile        = 'core_wndSpd_cs32.bin',
(PID.TID 0000.0001) > precipfile        = 'core_prec_1_cs32.bin',
(PID.TID 0000.0001) >#snowprecipfile    = 'core_snwP_1_cs32.bin',
(PID.TID 0000.0001) > lwdownfile        = 'core_dwnLw_cs32.bin',
(PID.TID 0000.0001) > swdownfile        = 'core_dwnSw_cs32.bin',
(PID.TID 0000.0001) > runoffFile        = 'core_rnof_1_cs32.bin'
(PID.TID 0000.0001) > climsstfile       = 'lev_surfT_cs_12m.bin',
(PID.TID 0000.0001) > climsssfile       = 'lev_surfS_cs_12m.bin',
(PID.TID 0000.0001) >#
(PID.TID 0000.0001) > /
(PID.TID 0000.0001) >
(PID.TID 0000.0001) ># *********************
(PID.TID 0000.0001) > &EXF_NML_03
(PID.TID 0000.0001) > /
(PID.TID 0000.0001) >
(PID.TID 0000.0001) ># *********************
(PID.TID 0000.0001) > &EXF_NML_04
(PID.TID 0000.0001) > /
(PID.TID 0000.0001) 
(PID.TID 0000.0001) EXF_READPARMS: reading EXF_NML_01
(PID.TID 0000.0001) EXF_READPARMS: reading EXF_NML_02
(PID.TID 0000.0001) EXF_READPARMS: reading EXF_NML_03
(PID.TID 0000.0001) EXF_READPARMS: finished reading data.exf
(PID.TID 0000.0001)  GM_READPARMS: opening data.gmredi
(PID.TID 0000.0001)  OPEN_COPY_DATA_FILE: opening file data.gmredi
(PID.TID 0000.0001) // =======================================================
(PID.TID 0000.0001) // Parameter file "data.gmredi"
(PID.TID 0000.0001) // =======================================================
(PID.TID 0000.0001) ># GM+Redi package parameters:
(PID.TID 0000.0001) >#     GM_Small_Number  :: epsilon used in computing the slope
(PID.TID 0000.0001) >#     GM_slopeSqCutoff :: slope^2 cut-off value
(PID.TID 0000.0001) >
(PID.TID 0000.0001) >#-from MOM :
(PID.TID 0000.0001) ># GM_background_K: 	G & Mc.W  diffusion coefficient
(PID.TID 0000.0001) ># GM_maxSlope    :	max slope of isopycnals
(PID.TID 0000.0001) ># GM_Scrit       :	transition for scaling diffusion coefficient
(PID.TID 0000.0001) ># GM_Sd          :	half width scaling for diffusion coefficient
(PID.TID 0000.0001) ># GM_taper_scheme:	slope clipping or one of the tapering schemes
(PID.TID 0000.0001) ># GM_Kmin_horiz  :	horizontal diffusion minimum value
(PID.TID 0000.0001) >
(PID.TID 0000.0001) >#-Option parameters (needs to "define" options in GMREDI_OPTIONS.h")
(PID.TID 0000.0001) ># GM_isopycK     :	isopycnal diffusion coefficient (default=GM_background_K)
(PID.TID 0000.0001) ># GM_AdvForm     :	turn on GM Advective form       (default=Skew flux form)
(PID.TID 0000.0001) >
(PID.TID 0000.0001) > &GM_PARM01
(PID.TID 0000.0001) >  GM_Small_Number  = 1.D-20,
(PID.TID 0000.0001) >  GM_slopeSqCutoff = 1.D+08,
(PID.TID 0000.0001) >  GM_AdvForm         = .FALSE.,
(PID.TID 0000.0001) >  GM_background_K    = 1.D+3,
(PID.TID 0000.0001) >  GM_taper_scheme    = 'dm95',
(PID.TID 0000.0001) >  GM_maxSlope        = 1.D-2,
(PID.TID 0000.0001) >  GM_Kmin_horiz      = 50.,
(PID.TID 0000.0001) >  GM_Scrit           = 4.D-3,
(PID.TID 0000.0001) >  GM_Sd              = 1.D-3,
(PID.TID 0000.0001) >#  GM_Visbeck_alpha   = 1.5D-2,
(PID.TID 0000.0001) >  GM_Visbeck_alpha   = 0.,
(PID.TID 0000.0001) >  GM_Visbeck_length  = 2.D+5,
(PID.TID 0000.0001) >  GM_Visbeck_depth   = 1.D+3,
(PID.TID 0000.0001) >  GM_Visbeck_maxval_K= 2.5D+3,
(PID.TID 0000.0001) > /
(PID.TID 0000.0001) >
(PID.TID 0000.0001) >
(PID.TID 0000.0001) 
(PID.TID 0000.0001)  GM_READPARMS: finished reading data.gmredi
(PID.TID 0000.0001) 
(PID.TID 0000.0001)  SEAICE_READPARMS: opening data.seaice
(PID.TID 0000.0001)  OPEN_COPY_DATA_FILE: opening file data.seaice
(PID.TID 0000.0001) // =======================================================
(PID.TID 0000.0001) // Parameter file "data.seaice"
(PID.TID 0000.0001) // =======================================================
(PID.TID 0000.0001) ># SEAICE parameters
(PID.TID 0000.0001) > &SEAICE_PARM01
(PID.TID 0000.0001) > LSR_ERROR             = 1.E-12,
(PID.TID 0000.0001) >#SEAICE_deltaTevp = 60.,
(PID.TID 0000.0001) > SEAICEuseDynamics = .TRUE.,
(PID.TID 0000.0001) > SEAICEuseFREEDRIFT = .FALSE.,
(PID.TID 0000.0001) ># for backward compatibility only
(PID.TID 0000.0001) > SEAICE_clipVelocities = .TRUE.,
(PID.TID 0000.0001) >#- to reproduce old results with former #undef SEAICE_SOLVE4TEMP_LEGACY code
(PID.TID 0000.0001) > SEAICE_wetAlbTemp = 0.,
(PID.TID 0000.0001) > SEAICE_snowThick  = 0.,
(PID.TID 0000.0001) >#
(PID.TID 0000.0001) > SEAICE_salt0          = 4.,
(PID.TID 0000.0001) > SEAICEadvScheme       = 30,
(PID.TID 0000.0001) > SEAICE_areaLossFormula=2,
(PID.TID 0000.0001) > SEAICE_mcPheePiston   = 0.0005787037037037037,
(PID.TID 0000.0001) >#SEAICE_monFreq        = 2592000.,
(PID.TID 0000.0001) >#SEAICEwriteState      = .TRUE.,
(PID.TID 0000.0001) ># old defaults
(PID.TID 0000.0001) > SEAICEscaleSurfStress = .FALSE.,
(PID.TID 0000.0001) > SEAICEaddSnowMass     = .FALSE.,
(PID.TID 0000.0001) > SEAICE_useMultDimSnow = .FALSE.,
(PID.TID 0000.0001) > SEAICEetaZmethod = 0,
(PID.TID 0000.0001) > SEAICE_Olx       = 0,
(PID.TID 0000.0001) > SEAICE_Oly       = 0,
(PID.TID 0000.0001) > SEAICE_drag = 0.002,
(PID.TID 0000.0001) > SEAICE_waterDrag = 0.005314009661835749,
(PID.TID 0000.0001) > /
(PID.TID 0000.0001) >
(PID.TID 0000.0001) > &SEAICE_PARM02
(PID.TID 0000.0001) > mult_ice   = 1.,
(PID.TID 0000.0001) ># choose which seaice cost term you want
(PID.TID 0000.0001) > cost_ice_flag = 1,
(PID.TID 0000.0001) ># the following timings are obsolete;
(PID.TID 0000.0001) ># replaced by lastinterval
(PID.TID 0000.0001) > costIceStart1        = 20000101,
(PID.TID 0000.0001) > costIceStart2        = 00000,
(PID.TID 0000.0001) > costIceEnd1        = 20000201,
(PID.TID 0000.0001) > costIceEnd2        = 00000,
(PID.TID 0000.0001) > /
(PID.TID 0000.0001) >
(PID.TID 0000.0001) > &SEAICE_PARM03
(PID.TID 0000.0001) > /
(PID.TID 0000.0001) 
(PID.TID 0000.0001)  SEAICE_READPARMS: finished reading data.seaice
(PID.TID 0000.0001) AUTODIFF_READPARMS: opening data.autodiff
(PID.TID 0000.0001)  OPEN_COPY_DATA_FILE: opening file data.autodiff
(PID.TID 0000.0001) // =======================================================
(PID.TID 0000.0001) // Parameter file "data.autodiff"
(PID.TID 0000.0001) // =======================================================
(PID.TID 0000.0001) ># =========================
(PID.TID 0000.0001) ># pkg AUTODIFF parameters :
(PID.TID 0000.0001) ># =========================
(PID.TID 0000.0001) >#  inAdExact :: get an exact adjoint (no approximation) (def=.True.)
(PID.TID 0000.0001) >#  SEAICEuseFREEDRIFTswitchInAd :: switch on/off Free-Drift in AD mode (def=F)
(PID.TID 0000.0001) >#
(PID.TID 0000.0001) > &AUTODIFF_PARM01
(PID.TID 0000.0001) ># inAdExact = .FALSE.,
(PID.TID 0000.0001) >  SEAICEuseFREEDRIFTswitchInAd = .TRUE.,
(PID.TID 0000.0001) > /
(PID.TID 0000.0001) 
(PID.TID 0000.0001) AUTODIFF_READPARMS: finished reading data.autodiff
(PID.TID 0000.0001) // ===================================
(PID.TID 0000.0001) // AUTODIFF parameters :
(PID.TID 0000.0001) // ===================================
(PID.TID 0000.0001) inAdExact = /* get an exact adjoint (no approximation) */
(PID.TID 0000.0001)                   T
(PID.TID 0000.0001)     ;
(PID.TID 0000.0001) useApproxAdvectionInAdMode = /* approximate AD-advection */
(PID.TID 0000.0001)                   F
(PID.TID 0000.0001)     ;
(PID.TID 0000.0001) useKPPinAdMode = /* use KPP in adjoint mode */
(PID.TID 0000.0001)                   F
(PID.TID 0000.0001)     ;
(PID.TID 0000.0001) useGMRediInAdMode = /* use GMRedi in adjoint mode */
(PID.TID 0000.0001)                   T
(PID.TID 0000.0001)     ;
(PID.TID 0000.0001) useSEAICEinAdMode = /* use SEAICE in adjoint mode */
(PID.TID 0000.0001)                   T
(PID.TID 0000.0001)     ;
(PID.TID 0000.0001) useGGL90inAdMode = /* use GGL90 in adjoint mode */
(PID.TID 0000.0001)                   F
(PID.TID 0000.0001)     ;
(PID.TID 0000.0001) useSALT_PLUMEinAdMode = /* use SALT_PLUME in adjoint mode */
(PID.TID 0000.0001)                   F
(PID.TID 0000.0001)     ;
(PID.TID 0000.0001) SEAICEuseDYNAMICSswitchInAd = /* switch On/Off SEAICE Dyn in AD mode */
(PID.TID 0000.0001)                   F
(PID.TID 0000.0001)     ;
(PID.TID 0000.0001) SEAICEuseFREEDRIFTswitchInAd= /* switch On/Off Free-Drift in AD mode */
(PID.TID 0000.0001)                   T
(PID.TID 0000.0001)     ;
(PID.TID 0000.0001) SEAICEapproxLevInAd = /* -1:SEAICE_FAKE, >0:other adjoint approximation */
(PID.TID 0000.0001)                       0
(PID.TID 0000.0001)     ;
(PID.TID 0000.0001) dumpAdVarExch = /* control adexch before dumpinp */
(PID.TID 0000.0001)                       2
(PID.TID 0000.0001)     ;
(PID.TID 0000.0001) mon_AdVarExch = /* control adexch before monitor */
(PID.TID 0000.0001)                       2
(PID.TID 0000.0001)     ;
(PID.TID 0000.0001) viscFacInFw = /* viscosity factor for forward model */
(PID.TID 0000.0001)                 1.000000000000000E+00
(PID.TID 0000.0001)     ;
(PID.TID 0000.0001) viscFacInAd = /* viscosity factor for adjoint */
(PID.TID 0000.0001)                 1.000000000000000E+00
(PID.TID 0000.0001)     ;
(PID.TID 0000.0001) SIregFacInAd = /* sea ice factor for adjoint model */
(PID.TID 0000.0001)                 1.234567000000000E+05
(PID.TID 0000.0001)     ;
(PID.TID 0000.0001) SIregFacInFw = /* sea ice factor for forward model */
(PID.TID 0000.0001)                 1.234567000000000E+05
(PID.TID 0000.0001)     ;
(PID.TID 0000.0001) 
(PID.TID 0000.0001) OPTIM_READPARMS: opening data.optim
(PID.TID 0000.0001)  OPEN_COPY_DATA_FILE: opening file data.optim
(PID.TID 0000.0001) // =======================================================
(PID.TID 0000.0001) // Parameter file "data.optim"
(PID.TID 0000.0001) // =======================================================
(PID.TID 0000.0001) > &OPTIM
(PID.TID 0000.0001) > optimcycle=0,
(PID.TID 0000.0001) > /
(PID.TID 0000.0001) 
(PID.TID 0000.0001) OPTIM_READPARMS: finished reading data.optim
(PID.TID 0000.0001) CTRL_READPARMS: opening data.ctrl
(PID.TID 0000.0001)  OPEN_COPY_DATA_FILE: opening file data.ctrl
(PID.TID 0000.0001) // =======================================================
(PID.TID 0000.0001) // Parameter file "data.ctrl"
(PID.TID 0000.0001) // =======================================================
(PID.TID 0000.0001) >#
(PID.TID 0000.0001) >#
(PID.TID 0000.0001) ># *********************
(PID.TID 0000.0001) ># ECCO controlvariables
(PID.TID 0000.0001) ># *********************
(PID.TID 0000.0001) > &CTRL_NML
(PID.TID 0000.0001) > /
(PID.TID 0000.0001) >#
(PID.TID 0000.0001) ># *********************
(PID.TID 0000.0001) ># names for ctrl_pack/unpack
(PID.TID 0000.0001) ># *********************
(PID.TID 0000.0001) > &CTRL_PACKNAMES
(PID.TID 0000.0001) > /
(PID.TID 0000.0001) >#
(PID.TID 0000.0001) ># *********************
(PID.TID 0000.0001) ># names for CTRL_GENARR, CTRL_GENTIM
(PID.TID 0000.0001) ># *********************
(PID.TID 0000.0001) > &CTRL_NML_GENARR
(PID.TID 0000.0001) > xx_genarr3d_file(1)       = 'xx_theta',
(PID.TID 0000.0001) > xx_genarr3d_weight(1)     = 'ones.prec64',
(PID.TID 0000.0001) > xx_genarr3d_bounds(1:5,1) = -2.,-1.9,39.,40.,5.,
(PID.TID 0000.0001) >#
(PID.TID 0000.0001) > xx_genarr3d_file(2)       = 'xx_salt',
(PID.TID 0000.0001) > xx_genarr3d_weight(2)     = 'ones.prec64',
(PID.TID 0000.0001) ># not clear why I have to comment this out, but the reference results have no bounds applied
(PID.TID 0000.0001) >#xx_genarr3d_bounds(1:5,2) = 29.,29.5,40.5,41.,5.,
(PID.TID 0000.0001) >#
(PID.TID 0000.0001) > xx_genarr3d_file(3)       = 'xx_ptr',
(PID.TID 0000.0001) > xx_genarr3d_weight(3)     = 'ones.prec64',
(PID.TID 0000.0001) >#
(PID.TID 0000.0001) > xx_genarr3d_file(4)       = 'xx_diffkr',
(PID.TID 0000.0001) > xx_genarr3d_weight(4)     = 'ones.prec64',
(PID.TID 0000.0001) > xx_genarr3d_bounds(1:5,4) = 1.E-6,2.E-6,4.E-4,5.E-4,0.,
(PID.TID 0000.0001) >#
(PID.TID 0000.0001) > xx_gentim2d_file(1)       = 'xx_qnet',
(PID.TID 0000.0001) > xx_gentim2d_weight(1)     = 'ones.prec64',
(PID.TID 0000.0001) >#
(PID.TID 0000.0001) > xx_gentim2d_file(2)       = 'xx_empmr',
(PID.TID 0000.0001) > xx_gentim2d_weight(2)     = 'ones.prec64',
(PID.TID 0000.0001) >#
(PID.TID 0000.0001) > xx_gentim2d_file(3)       = 'xx_fu',
(PID.TID 0000.0001) > xx_gentim2d_weight(3)     = 'ones.prec64',
(PID.TID 0000.0001) > xx_gentim2d_grid(3)       = 'w',
(PID.TID 0000.0001) >#
(PID.TID 0000.0001) > xx_gentim2d_file(4)       = 'xx_fv',
(PID.TID 0000.0001) > xx_gentim2d_weight(4)     = 'ones.prec64',
(PID.TID 0000.0001) > xx_gentim2d_grid(4)       = 's',
(PID.TID 0000.0001) >#
(PID.TID 0000.0001) > /
(PID.TID 0000.0001) 
(PID.TID 0000.0001) CTRL_READPARMS: finished reading data.ctrl
(PID.TID 0000.0001) COST_READPARMS: opening data.cost
(PID.TID 0000.0001)  OPEN_COPY_DATA_FILE: opening file data.cost
(PID.TID 0000.0001) // =======================================================
(PID.TID 0000.0001) // Parameter file "data.cost"
(PID.TID 0000.0001) // =======================================================
(PID.TID 0000.0001) >#
(PID.TID 0000.0001) >#
(PID.TID 0000.0001) ># ******************
(PID.TID 0000.0001) ># cost function
(PID.TID 0000.0001) ># ******************
(PID.TID 0000.0001) > &COST_NML
(PID.TID 0000.0001) >#revert to default 1 month
(PID.TID 0000.0001) ># lastinterval=7776000.,
(PID.TID 0000.0001) > mult_test=1.,
(PID.TID 0000.0001) > /
(PID.TID 0000.0001) 
(PID.TID 0000.0001) COST_READPARMS: finished reading data.cost
(PID.TID 0000.0001) GRDCHK_READPARMS: opening data.grdchk
(PID.TID 0000.0001)  OPEN_COPY_DATA_FILE: opening file data.grdchk
(PID.TID 0000.0001) // =======================================================
(PID.TID 0000.0001) // Parameter file "data.grdchk"
(PID.TID 0000.0001) // =======================================================
(PID.TID 0000.0001) ># *******************
(PID.TID 0000.0001) ># ECCO gradient check
(PID.TID 0000.0001) ># *******************
(PID.TID 0000.0001) > &GRDCHK_NML
(PID.TID 0000.0001) > grdchk_eps       = 1.d-2,
(PID.TID 0000.0001) >#  iglopos         = 6,
(PID.TID 0000.0001) >#  jglopos         = 17,
(PID.TID 0000.0001) >#  kglopos         = 1,
(PID.TID 0000.0001) > nbeg             = 1,
(PID.TID 0000.0001) > nstep            = 1,
(PID.TID 0000.0001) > nend             = 4,
(PID.TID 0000.0001) ># this is xx_theta
(PID.TID 0000.0001) >#grdchkvarindex   = 1,
(PID.TID 0000.0001) > grdchkvarindex   =201,
(PID.TID 0000.0001) > /
(PID.TID 0000.0001) 
(PID.TID 0000.0001) GRDCHK_READPARMS: finished reading data.grdchk
(PID.TID 0000.0001) 
(PID.TID 0000.0001) // =======================================================
(PID.TID 0000.0001) // Gradient check configuration  >>> START <<<
(PID.TID 0000.0001) // =======================================================
(PID.TID 0000.0001) 
(PID.TID 0000.0001)   grdchkvarindex :                        201
(PID.TID 0000.0001)   eps:                              0.100E-01
(PID.TID 0000.0001)   First location:                           1
(PID.TID 0000.0001)   Last location:                            4
(PID.TID 0000.0001)   Increment:                                1
(PID.TID 0000.0001)   grdchkWhichProc:                          0
(PID.TID 0000.0001)   iLocTile =       1  ,    jLocTile =       1
(PID.TID 0000.0001) 
(PID.TID 0000.0001) // =======================================================
(PID.TID 0000.0001) // Gradient check configuration  >>> END <<<
(PID.TID 0000.0001) // =======================================================
(PID.TID 0000.0001) 
(PID.TID 0000.0001) SET_PARMS: done
(PID.TID 0000.0001) Enter INI_VERTICAL_GRID: setInterFDr=    T ; setCenterDr=    F
(PID.TID 0000.0001) tile:   1 ; Read from file grid_cs32.face001.bin
(PID.TID 0000.0001)   => xC yC dxF dyF rA xG yG dxV dyU rAz dxC dyC rAw rAs dxG dyG AngleCS AngleSN
(PID.TID 0000.0001) tile:   2 ; Read from file grid_cs32.face001.bin
(PID.TID 0000.0001)   => xC yC dxF dyF rA xG yG dxV dyU rAz dxC dyC rAw rAs dxG dyG AngleCS AngleSN
(PID.TID 0000.0001) tile:   3 ; Read from file grid_cs32.face002.bin
(PID.TID 0000.0001)   => xC yC dxF dyF rA xG yG dxV dyU rAz dxC dyC rAw rAs dxG dyG AngleCS AngleSN
(PID.TID 0000.0001) tile:   4 ; Read from file grid_cs32.face002.bin
(PID.TID 0000.0001)   => xC yC dxF dyF rA xG yG dxV dyU rAz dxC dyC rAw rAs dxG dyG AngleCS AngleSN
(PID.TID 0000.0001) tile:   5 ; Read from file grid_cs32.face003.bin
(PID.TID 0000.0001)   => xC yC dxF dyF rA xG yG dxV dyU rAz dxC dyC rAw rAs dxG dyG AngleCS AngleSN
(PID.TID 0000.0001) tile:   6 ; Read from file grid_cs32.face003.bin
(PID.TID 0000.0001)   => xC yC dxF dyF rA xG yG dxV dyU rAz dxC dyC rAw rAs dxG dyG AngleCS AngleSN
(PID.TID 0000.0001) tile:   7 ; Read from file grid_cs32.face004.bin
(PID.TID 0000.0001)   => xC yC dxF dyF rA xG yG dxV dyU rAz dxC dyC rAw rAs dxG dyG AngleCS AngleSN
(PID.TID 0000.0001) tile:   8 ; Read from file grid_cs32.face004.bin
(PID.TID 0000.0001)   => xC yC dxF dyF rA xG yG dxV dyU rAz dxC dyC rAw rAs dxG dyG AngleCS AngleSN
(PID.TID 0000.0001) tile:   9 ; Read from file grid_cs32.face005.bin
(PID.TID 0000.0001)   => xC yC dxF dyF rA xG yG dxV dyU rAz dxC dyC rAw rAs dxG dyG AngleCS AngleSN
(PID.TID 0000.0001) tile:  10 ; Read from file grid_cs32.face005.bin
(PID.TID 0000.0001)   => xC yC dxF dyF rA xG yG dxV dyU rAz dxC dyC rAw rAs dxG dyG AngleCS AngleSN
(PID.TID 0000.0001) tile:  11 ; Read from file grid_cs32.face006.bin
(PID.TID 0000.0001)   => xC yC dxF dyF rA xG yG dxV dyU rAz dxC dyC rAw rAs dxG dyG AngleCS AngleSN
(PID.TID 0000.0001) tile:  12 ; Read from file grid_cs32.face006.bin
(PID.TID 0000.0001)   => xC yC dxF dyF rA xG yG dxV dyU rAz dxC dyC rAw rAs dxG dyG AngleCS AngleSN
(PID.TID 0000.0001) %MON XC_max                       =   1.7854351589505E+02
(PID.TID 0000.0001) %MON XC_min                       =  -1.7854351589505E+02
(PID.TID 0000.0001) %MON XC_mean                      =  -1.4199289892029E-14
(PID.TID 0000.0001) %MON XC_sd                        =   1.0355545336287E+02
(PID.TID 0000.0001) %MON XG_max                       =   1.8000000000000E+02
(PID.TID 0000.0001) %MON XG_min                       =  -1.7708797161002E+02
(PID.TID 0000.0001) %MON XG_mean                      =   1.8603515625000E+00
(PID.TID 0000.0001) %MON XG_sd                        =   1.0357130300504E+02
(PID.TID 0000.0001) %MON DXC_max                      =   3.2375185836900E+05
(PID.TID 0000.0001) %MON DXC_min                      =   1.1142031410131E+05
(PID.TID 0000.0001) %MON DXC_mean                     =   2.8605689051214E+05
(PID.TID 0000.0001) %MON DXC_sd                       =   3.4042087138252E+04
(PID.TID 0000.0001) %MON DXF_max                      =   3.2369947500827E+05
(PID.TID 0000.0001) %MON DXF_min                      =   1.2020820513318E+05
(PID.TID 0000.0001) %MON DXF_mean                     =   2.8605437324820E+05
(PID.TID 0000.0001) %MON DXF_sd                       =   3.4050524252539E+04
(PID.TID 0000.0001) %MON DXG_max                      =   3.2375195872773E+05
(PID.TID 0000.0001) %MON DXG_min                      =   1.0098378008791E+05
(PID.TID 0000.0001) %MON DXG_mean                     =   2.8603818508931E+05
(PID.TID 0000.0001) %MON DXG_sd                       =   3.4140406908005E+04
(PID.TID 0000.0001) %MON DXV_max                      =   3.2380418162750E+05
(PID.TID 0000.0001) %MON DXV_min                      =   8.0152299824136E+04
(PID.TID 0000.0001) %MON DXV_mean                     =   2.8603970633619E+05
(PID.TID 0000.0001) %MON DXV_sd                       =   3.4145142117723E+04
(PID.TID 0000.0001) %MON YC_max                       =   8.7940663871962E+01
(PID.TID 0000.0001) %MON YC_min                       =  -8.7940663871962E+01
(PID.TID 0000.0001) %MON YC_mean                      =  -2.3684757858670E-15
(PID.TID 0000.0001) %MON YC_sd                        =   3.8676242969072E+01
(PID.TID 0000.0001) %MON YG_max                       =   9.0000000000000E+01
(PID.TID 0000.0001) %MON YG_min                       =  -9.0000000000000E+01
(PID.TID 0000.0001) %MON YG_mean                      =  -4.1448326252673E-15
(PID.TID 0000.0001) %MON YG_sd                        =   3.8676895860710E+01
(PID.TID 0000.0001) %MON DYC_max                      =   3.2375185836900E+05
(PID.TID 0000.0001) %MON DYC_min                      =   1.1142031410131E+05
(PID.TID 0000.0001) %MON DYC_mean                     =   2.8605689051214E+05
(PID.TID 0000.0001) %MON DYC_sd                       =   3.4042087138252E+04
(PID.TID 0000.0001) %MON DYF_max                      =   3.2369947500827E+05
(PID.TID 0000.0001) %MON DYF_min                      =   1.2020820513318E+05
(PID.TID 0000.0001) %MON DYF_mean                     =   2.8605437324820E+05
(PID.TID 0000.0001) %MON DYF_sd                       =   3.4050524252539E+04
(PID.TID 0000.0001) %MON DYG_max                      =   3.2375195872773E+05
(PID.TID 0000.0001) %MON DYG_min                      =   1.0098378008791E+05
(PID.TID 0000.0001) %MON DYG_mean                     =   2.8603818508931E+05
(PID.TID 0000.0001) %MON DYG_sd                       =   3.4140406908005E+04
(PID.TID 0000.0001) %MON DYU_max                      =   3.2380418162750E+05
(PID.TID 0000.0001) %MON DYU_min                      =   8.0152299824136E+04
(PID.TID 0000.0001) %MON DYU_mean                     =   2.8603970633619E+05
(PID.TID 0000.0001) %MON DYU_sd                       =   3.4145142117723E+04
(PID.TID 0000.0001) %MON RA_max                       =   1.0479260248419E+11
(PID.TID 0000.0001) %MON RA_min                       =   1.4019007022556E+10
(PID.TID 0000.0001) %MON RA_mean                      =   8.2992246709265E+10
(PID.TID 0000.0001) %MON RA_sd                        =   1.7509089299457E+10
(PID.TID 0000.0001) %MON RAW_max                      =   1.0480965274559E+11
(PID.TID 0000.0001) %MON RAW_min                      =   1.2166903467143E+10
(PID.TID 0000.0001) %MON RAW_mean                     =   8.2992246709235E+10
(PID.TID 0000.0001) %MON RAW_sd                       =   1.7481917919656E+10
(PID.TID 0000.0001) %MON RAS_max                      =   1.0480965274559E+11
(PID.TID 0000.0001) %MON RAS_min                      =   1.2166903467143E+10
(PID.TID 0000.0001) %MON RAS_mean                     =   8.2992246709235E+10
(PID.TID 0000.0001) %MON RAS_sd                       =   1.7481917919656E+10
(PID.TID 0000.0001) %MON RAZ_max                      =   1.0484349334619E+11
(PID.TID 0000.0001) %MON RAZ_min                      =   8.8317900612505E+09
(PID.TID 0000.0001) %MON RAZ_mean                     =   8.2992246709235E+10
(PID.TID 0000.0001) %MON RAZ_sd                       =   1.7482297311044E+10
(PID.TID 0000.0001) %MON AngleCS_max                  =   9.9999994756719E-01
(PID.TID 0000.0001) %MON AngleCS_min                  =  -9.9968286884824E-01
(PID.TID 0000.0001) %MON AngleCS_mean                 =   3.3078922539000E-01
(PID.TID 0000.0001) %MON AngleCS_sd                   =   6.2496278958502E-01
(PID.TID 0000.0001) %MON AngleSN_max                  =   9.9968286884824E-01
(PID.TID 0000.0001) %MON AngleSN_min                  =  -9.9999994756719E-01
(PID.TID 0000.0001) %MON AngleSN_mean                 =  -3.3078922539000E-01
(PID.TID 0000.0001) %MON AngleSN_sd                   =   6.2496278958502E-01
(PID.TID 0000.0001) 
(PID.TID 0000.0001) // =======================================================
(PID.TID 0000.0001) // Calendar configuration >>> START <<<
(PID.TID 0000.0001) // =======================================================
(PID.TID 0000.0001) 
(PID.TID 0000.0001) modelstart = /* Start time of the model integration [s] */
(PID.TID 0000.0001)                 6.220800000000000E+09
(PID.TID 0000.0001)     ;
(PID.TID 0000.0001) modelend  = /* End time of the model integration [s] */
(PID.TID 0000.0001)                 6.221232000000000E+09
(PID.TID 0000.0001)     ;
(PID.TID 0000.0001) modelStep = /* Time interval for a model forward step [s] */
(PID.TID 0000.0001)                 8.640000000000000E+04
(PID.TID 0000.0001)     ;
(PID.TID 0000.0001) usingGregorianCalendar= /* Calendar Type: Gregorian Calendar */
(PID.TID 0000.0001)                   F
(PID.TID 0000.0001)     ;
(PID.TID 0000.0001) usingJulianCalendar = /* Calendar Type: Julian Calendar */
(PID.TID 0000.0001)                   F
(PID.TID 0000.0001)     ;
(PID.TID 0000.0001) usingNoLeapYearCal  = /* Calendar Type: without Leap Year */
(PID.TID 0000.0001)                   F
(PID.TID 0000.0001)     ;
(PID.TID 0000.0001) usingModelCalendar  = /* Calendar Type: Model Calendar */
(PID.TID 0000.0001)                   T
(PID.TID 0000.0001)     ;
(PID.TID 0000.0001) modelStartDate YYYYMMDD = /* Model start date YYYY-MM-DD */
(PID.TID 0000.0001)                 2010101
(PID.TID 0000.0001)     ;
(PID.TID 0000.0001)   modelStartDate HHMMSS = /* Model start date HH-MM-SS  */
(PID.TID 0000.0001)                       0
(PID.TID 0000.0001)     ;
(PID.TID 0000.0001) modelEndDate   YYYYMMDD = /* Model end date YYYY-MM-DD */
(PID.TID 0000.0001)                 2010106
(PID.TID 0000.0001)     ;
(PID.TID 0000.0001)   modelEndDate   HHMMSS = /* Model end date HH-MM-SS  */
(PID.TID 0000.0001)                       0
(PID.TID 0000.0001)     ;
(PID.TID 0000.0001) intyears = /* Number of calendar years affected by the integration */
(PID.TID 0000.0001)                       1
(PID.TID 0000.0001)     ;
(PID.TID 0000.0001) intmonths= /* Number of calendar months affected by the integration */
(PID.TID 0000.0001)                       1
(PID.TID 0000.0001)     ;
(PID.TID 0000.0001) intdays = /* Number of calendar days affected by the integration */
(PID.TID 0000.0001)                       5
(PID.TID 0000.0001)     ;
(PID.TID 0000.0001) modelIter0 = /* Base timestep number  */
(PID.TID 0000.0001)                   72000
(PID.TID 0000.0001)     ;
(PID.TID 0000.0001) modelIterEnd = /* Final timestep number  */
(PID.TID 0000.0001)                   72005
(PID.TID 0000.0001)     ;
(PID.TID 0000.0001) modelIntSteps= /* Number of model timesteps  */
(PID.TID 0000.0001)                       5
(PID.TID 0000.0001)     ;
(PID.TID 0000.0001) 
(PID.TID 0000.0001) // =======================================================
(PID.TID 0000.0001) // Calendar configuration  >>> END <<<
(PID.TID 0000.0001) // =======================================================
(PID.TID 0000.0001) 
(PID.TID 0000.0001) GAD_INIT_FIXED: GAD_OlMinSize=  2  0  2
(PID.TID 0000.0001) 
(PID.TID 0000.0001) // ===================================
(PID.TID 0000.0001) // GAD parameters :
(PID.TID 0000.0001) // ===================================
(PID.TID 0000.0001) tempAdvScheme =   /* Temp. Horiz.Advection scheme selector */
(PID.TID 0000.0001)                      30
(PID.TID 0000.0001)     ;
(PID.TID 0000.0001) tempVertAdvScheme =   /* Temp. Vert. Advection scheme selector */
(PID.TID 0000.0001)                      30
(PID.TID 0000.0001)     ;
(PID.TID 0000.0001) tempMultiDimAdvec =   /* use Muti-Dim Advec method for Temp */
(PID.TID 0000.0001)                   T
(PID.TID 0000.0001)     ;
(PID.TID 0000.0001) tempSOM_Advection = /* use 2nd Order Moment Advection for Temp */
(PID.TID 0000.0001)                   F
(PID.TID 0000.0001)     ;
(PID.TID 0000.0001) AdamsBashforthGt = /* apply Adams-Bashforth extrapolation on Gt */
(PID.TID 0000.0001)                   F
(PID.TID 0000.0001)     ;
(PID.TID 0000.0001) AdamsBashforth_T = /* apply Adams-Bashforth extrapolation on Temp */
(PID.TID 0000.0001)                   F
(PID.TID 0000.0001)     ;
(PID.TID 0000.0001) saltAdvScheme =   /* Salt. Horiz.advection scheme selector */
(PID.TID 0000.0001)                      30
(PID.TID 0000.0001)     ;
(PID.TID 0000.0001) saltVertAdvScheme =   /* Salt. Vert. Advection scheme selector */
(PID.TID 0000.0001)                      30
(PID.TID 0000.0001)     ;
(PID.TID 0000.0001) saltMultiDimAdvec =   /* use Muti-Dim Advec method for Salt */
(PID.TID 0000.0001)                   T
(PID.TID 0000.0001)     ;
(PID.TID 0000.0001) saltSOM_Advection = /* use 2nd Order Moment Advection for Salt */
(PID.TID 0000.0001)                   F
(PID.TID 0000.0001)     ;
(PID.TID 0000.0001) AdamsBashforthGs = /* apply Adams-Bashforth extrapolation on Gs */
(PID.TID 0000.0001)                   F
(PID.TID 0000.0001)     ;
(PID.TID 0000.0001) AdamsBashforth_S = /* apply Adams-Bashforth extrapolation on Salt */
(PID.TID 0000.0001)                   F
(PID.TID 0000.0001)     ;
(PID.TID 0000.0001) // ===================================
(PID.TID 0000.0001) 
(PID.TID 0000.0001) // =======================================================
(PID.TID 0000.0001) // External forcing (EXF) configuration >>> START <<<
(PID.TID 0000.0001) // =======================================================
(PID.TID 0000.0001) 
(PID.TID 0000.0001)  EXF general parameters:
(PID.TID 0000.0001) 
(PID.TID 0000.0001) exf_iprec = /* exf file precision */
(PID.TID 0000.0001)                      64
(PID.TID 0000.0001)     ;
(PID.TID 0000.0001) useExfYearlyFields = /* add extension _YEAR to input file names */
(PID.TID 0000.0001)                   F
(PID.TID 0000.0001)     ;
(PID.TID 0000.0001) twoDigitYear = /* use 2-digit year extension */
(PID.TID 0000.0001)                   F
(PID.TID 0000.0001)     ;
(PID.TID 0000.0001) useExfCheckRange = /* check for fields range */
(PID.TID 0000.0001)                   T
(PID.TID 0000.0001)     ;
(PID.TID 0000.0001) diags_opOceWeighted = /* weight flux diags by open-ocean fraction */
(PID.TID 0000.0001)                   T
(PID.TID 0000.0001)     ;
(PID.TID 0000.0001) exf_debugLev = /* select EXF-debug printing level */
(PID.TID 0000.0001)                       1
(PID.TID 0000.0001)     ;
(PID.TID 0000.0001) exf_monFreq  = /* EXF monitor frequency [ s ] */
(PID.TID 0000.0001)                 0.000000000000000E+00
(PID.TID 0000.0001)     ;
(PID.TID 0000.0001) repeatPeriod = /* period for cycling forcing dataset [ s ] */
(PID.TID 0000.0001)                 3.110400000000000E+07
(PID.TID 0000.0001)     ;
(PID.TID 0000.0001) climTempFreeze= /* Minimum climatological temperature [deg.C] */
(PID.TID 0000.0001)                -1.900000000000000E+00
(PID.TID 0000.0001)     ;
(PID.TID 0000.0001) windStressMax = /* Maximum absolute windstress [ Pa ] */
(PID.TID 0000.0001)                 2.000000000000000E+00
(PID.TID 0000.0001)     ;
(PID.TID 0000.0001) stressIsOnCgrid = /* set u,v_stress on Arakawa C-grid */
(PID.TID 0000.0001)                   T
(PID.TID 0000.0001)     ;
(PID.TID 0000.0001) rotateStressOnAgrid = /* rotate u,v_stress on Arakawa A-grid */
(PID.TID 0000.0001)                   F
(PID.TID 0000.0001)     ;
(PID.TID 0000.0001) cen2kel = /* conversion of deg. Centigrade to Kelvin [K] */
(PID.TID 0000.0001)                 2.731500000000000E+02
(PID.TID 0000.0001)     ;
(PID.TID 0000.0001) gravity_mks= /* gravitational acceleration [m/s^2] */
(PID.TID 0000.0001)                 9.810000000000000E+00
(PID.TID 0000.0001)     ;
(PID.TID 0000.0001) atmrho =  /* mean atmospheric density [kg/m^3] */
(PID.TID 0000.0001)                 1.220000000000000E+00
(PID.TID 0000.0001)     ;
(PID.TID 0000.0001) atmcp =  /* mean atmospheric specific heat [J/kg/K] */
(PID.TID 0000.0001)                 1.005000000000000E+03
(PID.TID 0000.0001)     ;
(PID.TID 0000.0001) flamb =  /* latent heat of evaporation [J/kg] */
(PID.TID 0000.0001)                 2.500000000000000E+06
(PID.TID 0000.0001)     ;
(PID.TID 0000.0001) flami =  /* latent heat of pure-ice melting [J/kg] */
(PID.TID 0000.0001)                 3.340000000000000E+05
(PID.TID 0000.0001)     ;
(PID.TID 0000.0001) cvapor_fac = /* const. for Saturation calculation [?] */
(PID.TID 0000.0001)                 6.403800000000000E+05
(PID.TID 0000.0001)     ;
(PID.TID 0000.0001) cvapor_exp = /* const. for Saturation calculation [?] */
(PID.TID 0000.0001)                 5.107400000000000E+03
(PID.TID 0000.0001)     ;
(PID.TID 0000.0001) cvapor_fac_ice= /* const. for Saturation calculation [?] */
(PID.TID 0000.0001)                 1.163780000000000E+07
(PID.TID 0000.0001)     ;
(PID.TID 0000.0001) cvapor_exp_ice= /* const. for Saturation calculation [?] */
(PID.TID 0000.0001)                 5.897800000000000E+03
(PID.TID 0000.0001)     ;
(PID.TID 0000.0001) humid_fac = /* humidity coef. in virtual temp. [(kg/kg)^-1] */
(PID.TID 0000.0001)                 6.080000000000000E-01
(PID.TID 0000.0001)     ;
(PID.TID 0000.0001) gamma_blk = /* adiabatic lapse rate [?] */
(PID.TID 0000.0001)                 1.000000000000000E-02
(PID.TID 0000.0001)     ;
(PID.TID 0000.0001) saltsat = /* reduction of Qsat over salty water [-] */
(PID.TID 0000.0001)                 9.800000000000000E-01
(PID.TID 0000.0001)     ;
(PID.TID 0000.0001) noNegativeEvap = /* prevent negative Evaporation */
(PID.TID 0000.0001)                   F
(PID.TID 0000.0001)     ;
(PID.TID 0000.0001) sstExtrapol = /* extrapolation coeff from lev. 1 & 2 to surf [-] */
(PID.TID 0000.0001)                 0.000000000000000E+00
(PID.TID 0000.0001)     ;
(PID.TID 0000.0001) cDrag_1 = /* coef used in drag calculation [?] */
(PID.TID 0000.0001)                 2.700000000000000E-03
(PID.TID 0000.0001)     ;
(PID.TID 0000.0001) cDrag_2 = /* coef used in drag calculation [?] */
(PID.TID 0000.0001)                 1.420000000000000E-04
(PID.TID 0000.0001)     ;
(PID.TID 0000.0001) cDrag_3 = /* coef used in drag calculation [?] */
(PID.TID 0000.0001)                 7.640000000000000E-05
(PID.TID 0000.0001)     ;
(PID.TID 0000.0001) cStanton_1 = /* coef used in Stanton number calculation [?] */
(PID.TID 0000.0001)                 3.270000000000000E-02
(PID.TID 0000.0001)     ;
(PID.TID 0000.0001) cStanton_2 = /* coef used in Stanton number calculation [?] */
(PID.TID 0000.0001)                 1.800000000000000E-02
(PID.TID 0000.0001)     ;
(PID.TID 0000.0001) cDalton = /* coef used in Dalton number calculation [?] */
(PID.TID 0000.0001)                 3.460000000000000E-02
(PID.TID 0000.0001)     ;
(PID.TID 0000.0001) exf_scal_BulkCdn= /* Drag coefficient scaling factor [-] */
(PID.TID 0000.0001)                 1.000000000000000E+00
(PID.TID 0000.0001)     ;
(PID.TID 0000.0001) zolmin = /* minimum stability parameter [?] */
(PID.TID 0000.0001)                -1.000000000000000E+02
(PID.TID 0000.0001)     ;
(PID.TID 0000.0001) psim_fac = /* coef used in turbulent fluxes calculation [-] */
(PID.TID 0000.0001)                 5.000000000000000E+00
(PID.TID 0000.0001)     ;
(PID.TID 0000.0001) zref =  /* reference height [ m ] */
(PID.TID 0000.0001)                 1.000000000000000E+01
(PID.TID 0000.0001)     ;
(PID.TID 0000.0001) hu =  /* height of mean wind [ m ] */
(PID.TID 0000.0001)                 1.000000000000000E+01
(PID.TID 0000.0001)     ;
(PID.TID 0000.0001) ht =  /* height of mean temperature [ m ] */
(PID.TID 0000.0001)                 1.000000000000000E+01
(PID.TID 0000.0001)     ;
(PID.TID 0000.0001) hq =  /* height of mean spec.humidity [ m ] */
(PID.TID 0000.0001)                 1.000000000000000E+01
(PID.TID 0000.0001)     ;
(PID.TID 0000.0001) uMin = /* minimum wind speed [m/s] */
(PID.TID 0000.0001)                 5.000000000000000E-01
(PID.TID 0000.0001)     ;
(PID.TID 0000.0001) useStabilityFct_overIce= /* transfert Coeffs over sea-ice depend on stability */
(PID.TID 0000.0001)                   F
(PID.TID 0000.0001)     ;
(PID.TID 0000.0001) exf_iceCd = /* drag coefficient over sea-ice (fixed) [-] */
(PID.TID 0000.0001)                 1.630000000000000E-03
(PID.TID 0000.0001)     ;
(PID.TID 0000.0001) exf_iceCe = /* transfert coeff. over sea-ice, for Evap (fixed) [-] */
(PID.TID 0000.0001)                 1.630000000000000E-03
(PID.TID 0000.0001)     ;
(PID.TID 0000.0001) exf_iceCh = /* transfert coeff. over sea-ice, Sens.Heat.(fixed)[-] */
(PID.TID 0000.0001)                 1.630000000000000E-03
(PID.TID 0000.0001)     ;
(PID.TID 0000.0001) exf_albedo =  /* Sea-water albedo [-] */
(PID.TID 0000.0001)                 6.600000000000000E-02
(PID.TID 0000.0001)     ;
(PID.TID 0000.0001) useExfZenAlbedo = /* Sea-water albedo varies with zenith angle */
(PID.TID 0000.0001)                   F
(PID.TID 0000.0001)     ;
(PID.TID 0000.0001) select_ZenAlbedo = /* Sea-water albedo computation method */
(PID.TID 0000.0001)                       0
(PID.TID 0000.0001)     ;
(PID.TID 0000.0001) useExfZenIncoming = /* compute incoming solar radiation */
(PID.TID 0000.0001)                   F
(PID.TID 0000.0001)     ;
(PID.TID 0000.0001) ocean_emissivity = /* longwave ocean-surface emissivity [-] */
(PID.TID 0000.0001)                 1.000000000000000E+00
(PID.TID 0000.0001)     ;
(PID.TID 0000.0001) ice_emissivity = /* longwave seaice emissivity [-] */
(PID.TID 0000.0001)                 9.500000000000000E-01
(PID.TID 0000.0001)     ;
(PID.TID 0000.0001) snow_emissivity = /* longwave snow  emissivity [-] */
(PID.TID 0000.0001)                 9.500000000000000E-01
(PID.TID 0000.0001)     ;
(PID.TID 0000.0001) 
(PID.TID 0000.0001)  EXF main CPP flags:
(PID.TID 0000.0001) 
(PID.TID 0000.0001) // USE_EXF_INTERPOLATION:          NOT defined
(PID.TID 0000.0001) // ALLOW_ATM_TEMP:                     defined
(PID.TID 0000.0001) // ALLOW_ATM_WIND (useAtmWind):    NOT defined
(PID.TID 0000.0001) // ALLOW_DOWNWARD_RADIATION:           defined
(PID.TID 0000.0001) // ALLOW_BULKFORMULAE:                 defined
(PID.TID 0000.0001) 
(PID.TID 0000.0001)    Zonal wind stress forcing starts at             1296000.
(PID.TID 0000.0001)    Zonal wind stress forcing period is             2592000.
(PID.TID 0000.0001)    Zonal wind stress forcing repeat-cycle is      31104000.
(PID.TID 0000.0001)    Zonal wind stress forcing is read from file:
(PID.TID 0000.0001)    >> trenberth_taux.bin <<
(PID.TID 0000.0001) 
(PID.TID 0000.0001)    Meridional wind stress forcing starts at        1296000.
(PID.TID 0000.0001)    Meridional wind stress forcing period is        2592000.
(PID.TID 0000.0001)    Meridional wind stress forcing rep-cycle is    31104000.
(PID.TID 0000.0001)    Meridional wind stress forcing is read from file:
(PID.TID 0000.0001)    >> trenberth_tauy.bin <<
(PID.TID 0000.0001) 
(PID.TID 0000.0001)    Surface wind speed starts at                    1296000.
(PID.TID 0000.0001)    Surface wind speed period is                    2592000.
(PID.TID 0000.0001)    Surface wind speed repeat-cycle is             31104000.
(PID.TID 0000.0001)    Surface wind speed is read from file:
(PID.TID 0000.0001)    >> core_wndSpd_cs32.bin <<
(PID.TID 0000.0001) 
(PID.TID 0000.0001)    Atmospheric temperature starts at               1296000.
(PID.TID 0000.0001)    Atmospheric temperature period is               2592000.
(PID.TID 0000.0001)    Atmospheric temperature repeat-cycle is        31104000.
(PID.TID 0000.0001)    Atmospheric temperature is read from file:
(PID.TID 0000.0001)    >> core_t_Air_cs32.bin <<
(PID.TID 0000.0001) 
(PID.TID 0000.0001)    Atmospheric specific humidity starts at         1296000.
(PID.TID 0000.0001)    Atmospheric specific humidity period is         2592000.
(PID.TID 0000.0001)    Atmospheric specific humidity rep-cycle is     31104000.
(PID.TID 0000.0001)    Atmospheric specific humidity is read from file:
(PID.TID 0000.0001)    >> core_q_air_cs32.bin <<
(PID.TID 0000.0001) 
(PID.TID 0000.0001) // ALLOW_READ_TURBFLUXES:          NOT defined
(PID.TID 0000.0001) // EXF_READ_EVAP:                  NOT defined
(PID.TID 0000.0001) 
(PID.TID 0000.0001)    Precipitation data starts at                    1296000.
(PID.TID 0000.0001)    Precipitation data period is                    2592000.
(PID.TID 0000.0001)    Precipitation data repeat-cycle is             31104000.
(PID.TID 0000.0001)    Precipitation data is read from file:
(PID.TID 0000.0001)    >> core_prec_1_cs32.bin <<
(PID.TID 0000.0001) 
(PID.TID 0000.0001) // ALLOW_RUNOFF:                       defined
(PID.TID 0000.0001)    Runoff data starts at                           1296000.
(PID.TID 0000.0001)    Runoff data period is                           2592000.
(PID.TID 0000.0001)    Runoff data repeat-cycle is                    31104000.
(PID.TID 0000.0001)    Runoff data is read from file:
(PID.TID 0000.0001)    >> core_rnof_1_cs32.bin <<
(PID.TID 0000.0001) 
(PID.TID 0000.0001) // ALLOW_RUNOFTEMP:                NOT defined
(PID.TID 0000.0001) // ALLOW_SALTFLX:                  NOT defined
(PID.TID 0000.0001) 
(PID.TID 0000.0001)    Downward shortwave flux starts at               1296000.
(PID.TID 0000.0001)    Downward shortwave flux period is               2592000.
(PID.TID 0000.0001)    Downward shortwave flux repeat-cycle is        31104000.
(PID.TID 0000.0001)    Downward shortwave flux is read from file:
(PID.TID 0000.0001)    >> core_dwnSw_cs32.bin <<
(PID.TID 0000.0001) 
(PID.TID 0000.0001)    Downward longwave flux starts at                1296000.
(PID.TID 0000.0001)    Downward longwave flux period is                2592000.
(PID.TID 0000.0001)    Downward longwave flux repeat-cycle is         31104000.
(PID.TID 0000.0001)    Downward longwave flux is read from file:
(PID.TID 0000.0001)    >> core_dwnLw_cs32.bin <<
(PID.TID 0000.0001) 
(PID.TID 0000.0001) // =======================================================
(PID.TID 0000.0001) // External forcing (EXF) climatology configuration :
(PID.TID 0000.0001) // =======================================================
(PID.TID 0000.0001) 
(PID.TID 0000.0001) // ALLOW_CLIMSST_RELAXATION:           defined
(PID.TID 0000.0001)    Climatological SST starts at                    1296000.
(PID.TID 0000.0001)    Climatological SST period is                    2592000.
(PID.TID 0000.0001)    Climatological SST repeat-cycle is             31104000.
(PID.TID 0000.0001)    Climatological SST is read from file:
(PID.TID 0000.0001)    >> lev_surfT_cs_12m.bin <<
(PID.TID 0000.0001) 
(PID.TID 0000.0001) // ALLOW_CLIMSSS_RELAXATION:           defined
(PID.TID 0000.0001)    Climatological SSS starts at                    1296000.
(PID.TID 0000.0001)    Climatological SSS period is                    2592000.
(PID.TID 0000.0001)    Climatological SSS repeat-cycle is             31104000.
(PID.TID 0000.0001)    Climatological SSS is read from file:
(PID.TID 0000.0001)    >> lev_surfS_cs_12m.bin <<
(PID.TID 0000.0001) 
(PID.TID 0000.0001) // =======================================================
(PID.TID 0000.0001) // External forcing (EXF) configuration  >>> END <<<
(PID.TID 0000.0001) // =======================================================
(PID.TID 0000.0001) 
(PID.TID 0000.0001) // =======================================================
(PID.TID 0000.0001) // Seaice configuration (SEAICE_PARM01) >>> START <<<
(PID.TID 0000.0001) // =======================================================
(PID.TID 0000.0001) 
(PID.TID 0000.0001)    Seaice time stepping configuration   > START <
(PID.TID 0000.0001)    ----------------------------------------------
(PID.TID 0000.0001) SEAICE_deltaTtherm= /* thermodynamic timestep */
(PID.TID 0000.0001)                 8.640000000000000E+04
(PID.TID 0000.0001)     ;
(PID.TID 0000.0001) SEAICE_deltaTdyn  = /* dynamic timestep */
(PID.TID 0000.0001)                 8.640000000000000E+04
(PID.TID 0000.0001)     ;
(PID.TID 0000.0001) SEAICE_deltaTevp  = /* EVP timestep */
(PID.TID 0000.0001)                 1.234567000000000E+05
(PID.TID 0000.0001)     ;
(PID.TID 0000.0001) SEAICEuseBDF2  = /* use backw. differencing for mom. eq. */
(PID.TID 0000.0001)                   F
(PID.TID 0000.0001)     ;
(PID.TID 0000.0001) SEAICEupdateOceanStress= /* update Ocean surf. stress */
(PID.TID 0000.0001)                   T
(PID.TID 0000.0001)     ;
(PID.TID 0000.0001) SEAICErestoreUnderIce  = /* restore T and S under ice */
(PID.TID 0000.0001)                   F
(PID.TID 0000.0001)     ;
(PID.TID 0000.0001) 
(PID.TID 0000.0001)    Seaice dynamics configuration   > START <
(PID.TID 0000.0001)    ------------------------------------------
(PID.TID 0000.0001) SEAICEuseDYNAMICS = /* use dynamics */
(PID.TID 0000.0001)                   T
(PID.TID 0000.0001)     ;
(PID.TID 0000.0001) model grid type   = /* type of sea ice model grid */
(PID.TID 0000.0001)               'C-GRID'
(PID.TID 0000.0001)     ;
(PID.TID 0000.0001) SEAICEuseStrImpCpl = /* use strongly implicit coupling */
(PID.TID 0000.0001)                   F
(PID.TID 0000.0001)     ;
(PID.TID 0000.0001) SEAICEusePicardAsPrecon = /* Picard as preconditioner */
(PID.TID 0000.0001)                   F
(PID.TID 0000.0001)     ;
(PID.TID 0000.0001) SEAICEuseLSR      = /* use default Picard-LSR solver */
(PID.TID 0000.0001)                   T
(PID.TID 0000.0001)     ;
(PID.TID 0000.0001) SEAICEuseKrylov   = /* use Picard-Krylov solver */
(PID.TID 0000.0001)                   F
(PID.TID 0000.0001)     ;
(PID.TID 0000.0001) SEAICEuseEVP      = /* use EVP solver rather than LSR */
(PID.TID 0000.0001)                   F
(PID.TID 0000.0001)     ;
(PID.TID 0000.0001) SEAICEuseJFNK     = /* use JFNK solver */
(PID.TID 0000.0001)                   F
(PID.TID 0000.0001)     ;
(PID.TID 0000.0001) SEAICEuseFREEDRIFT = /* use free drift solution */
(PID.TID 0000.0001)                   F
(PID.TID 0000.0001)     ;
(PID.TID 0000.0001) OCEAN_drag        = /* air-ocean drag coefficient */
(PID.TID 0000.0001)                 1.000000000000000E-03
(PID.TID 0000.0001)     ;
(PID.TID 0000.0001) SEAICE_drag       = /* air-ice drag coefficient */
(PID.TID 0000.0001)                 2.000000000000000E-03
(PID.TID 0000.0001)     ;
(PID.TID 0000.0001) SEAICE_drag_south      = /* Southern Ocean SEAICE_drag */
(PID.TID 0000.0001)                 2.000000000000000E-03
(PID.TID 0000.0001)     ;
(PID.TID 0000.0001) SEAICE_waterDrag  = /* water-ice drag (no units) */
(PID.TID 0000.0001)                 5.314009661835749E-03
(PID.TID 0000.0001)     ;
(PID.TID 0000.0001) SEAICE_waterDrag_south = /* Southern Ocean waterDrag (no units) */
(PID.TID 0000.0001)                 5.314009661835749E-03
(PID.TID 0000.0001)     ;
(PID.TID 0000.0001) SEAICEdWatMin = /* minimum linear water-ice drag (in m/s) */
(PID.TID 0000.0001)                 2.500000000000000E-01
(PID.TID 0000.0001)     ;
(PID.TID 0000.0001) SEAICEbasalDragK2 = /* Basal drag parameter */
(PID.TID 0000.0001)                 0.000000000000000E+00
(PID.TID 0000.0001)     ;
(PID.TID 0000.0001) SEAICEuseTilt     = /* include surface tilt in dyna. */
(PID.TID 0000.0001)                   T
(PID.TID 0000.0001)     ;
(PID.TID 0000.0001) SEAICEuseTEM      = /* use truncated ellipse rheology */
(PID.TID 0000.0001)                   F
(PID.TID 0000.0001)     ;
(PID.TID 0000.0001) SEAICE_strength   = /* sea-ice strength Pstar */
(PID.TID 0000.0001)                 2.750000000000000E+04
(PID.TID 0000.0001)     ;
(PID.TID 0000.0001) SEAICE_cStar      = /* sea-ice strength parameter cStar */
(PID.TID 0000.0001)                 2.000000000000000E+01
(PID.TID 0000.0001)     ;
(PID.TID 0000.0001) SEAICEpressReplFac= /* press. replacement method factor */
(PID.TID 0000.0001)                 1.000000000000000E+00
(PID.TID 0000.0001)     ;
(PID.TID 0000.0001) SEAICE_tensilFac  = /* sea-ice tensile strength factor */
(PID.TID 0000.0001)                 0.000000000000000E+00
(PID.TID 0000.0001)     ;
(PID.TID 0000.0001) SEAICE_tensilDepth= /* crit. depth for tensile strength */
(PID.TID 0000.0001)                 0.000000000000000E+00
(PID.TID 0000.0001)     ;
(PID.TID 0000.0001) SEAICEpresH0   = /* sea-ice strength Heff threshold */
(PID.TID 0000.0001)                 1.000000000000000E+00
(PID.TID 0000.0001)     ;
(PID.TID 0000.0001) SEAICEpresPow0 = /* exponent for Heff<SEAICEpresH0 */
(PID.TID 0000.0001)                       1
(PID.TID 0000.0001)     ;
(PID.TID 0000.0001) SEAICEpresPow1 = /* exponent for Heff>SEAICEpresH0 */
(PID.TID 0000.0001)                       1
(PID.TID 0000.0001)     ;
(PID.TID 0000.0001) SEAICEetaZmethod = /* method computing eta at Z-point */
(PID.TID 0000.0001)                       0
(PID.TID 0000.0001)     ;
(PID.TID 0000.0001) SEAICE_zetaMaxFac = /* factor for upper viscosity bound */
(PID.TID 0000.0001)                 2.500000000000000E+08
(PID.TID 0000.0001)     ;
(PID.TID 0000.0001) SEAICE_zetaMin    = /* lower bound for viscosity */
(PID.TID 0000.0001)                 0.000000000000000E+00
(PID.TID 0000.0001)     ;
(PID.TID 0000.0001) SEAICE_eccen    = /* elliptical yield curve eccent */
(PID.TID 0000.0001)                 2.000000000000000E+00
(PID.TID 0000.0001)     ;
(PID.TID 0000.0001) SEAICEstressFactor    = /* wind stress scaling factor */
(PID.TID 0000.0001)                 1.000000000000000E+00
(PID.TID 0000.0001)     ;
(PID.TID 0000.0001) SEAICE_airTurnAngle    = /* air-ice turning angle */
(PID.TID 0000.0001)                 0.000000000000000E+00
(PID.TID 0000.0001)     ;
(PID.TID 0000.0001) SEAICE_waterTurnAngle  = /* ice-water turning angle */
(PID.TID 0000.0001)                 0.000000000000000E+00
(PID.TID 0000.0001)     ;
(PID.TID 0000.0001) SEAICEuseMetricTerms = /* use metric terms */
(PID.TID 0000.0001)                   T
(PID.TID 0000.0001)     ;
(PID.TID 0000.0001) SEAICE_no_slip    = /* no slip boundary conditions */
(PID.TID 0000.0001)                   F
(PID.TID 0000.0001)     ;
(PID.TID 0000.0001) SEAICE_2ndOrderBC = /* 2nd order no slip boundary conditions */
(PID.TID 0000.0001)                   F
(PID.TID 0000.0001)     ;
(PID.TID 0000.0001) SEAICE_clipVeloctities = /* impose max. vels. */
(PID.TID 0000.0001)                   T
(PID.TID 0000.0001)     ;
(PID.TID 0000.0001) useHB87stressCoupling  = /* altern. ice-ocean stress */
(PID.TID 0000.0001)                   F
(PID.TID 0000.0001)     ;
(PID.TID 0000.0001) SEAICEscaleSurfStress  = /* scale atm. and ocean-surface stress with AREA */
(PID.TID 0000.0001)                   F
(PID.TID 0000.0001)     ;
(PID.TID 0000.0001) SEAICE_maskRHS    = /* mask RHS of solver */
(PID.TID 0000.0001)                   F
(PID.TID 0000.0001)     ;
(PID.TID 0000.0001) SEAICEaddSnowMass = /* add snow mass to seaiceMassC/U/V */
(PID.TID 0000.0001)                   F
(PID.TID 0000.0001)     ;
(PID.TID 0000.0001) LSR_mixIniGuess = /* mix free-drift sol. into LSR initial Guess */
(PID.TID 0000.0001)                       0
(PID.TID 0000.0001)     ;
(PID.TID 0000.0001) SEAICE_LSRrelaxU  = /* LSR solver: relaxation parameter */
(PID.TID 0000.0001)                 9.500000000000000E-01
(PID.TID 0000.0001)     ;
(PID.TID 0000.0001) SEAICE_LSRrelaxV  = /* LSR solver: relaxation parameter */
(PID.TID 0000.0001)                 9.500000000000000E-01
(PID.TID 0000.0001)     ;
(PID.TID 0000.0001) LSR_ERROR         = /* sets accuracy of LSR solver */
(PID.TID 0000.0001)                 1.000000000000000E-12
(PID.TID 0000.0001)     ;
(PID.TID 0000.0001) SOLV_NCHECK       = /* test interval for LSR solver */
(PID.TID 0000.0001)                       2
(PID.TID 0000.0001)     ;
(PID.TID 0000.0001) SEAICEuseMultiTileSolver = /* use full domain tri-diag solver */
(PID.TID 0000.0001)                   F
(PID.TID 0000.0001)     ;
(PID.TID 0000.0001) SEAICE_OLx = /* overlap for LSR/preconditioner */
(PID.TID 0000.0001)                       0
(PID.TID 0000.0001)     ;
(PID.TID 0000.0001) SEAICE_OLy = /* overlap for LSR/preconditioner */
(PID.TID 0000.0001)                       0
(PID.TID 0000.0001)     ;
(PID.TID 0000.0001) SEAICEnonLinIterMax = /* max. number of nonlinear solver steps */
(PID.TID 0000.0001)                       2
(PID.TID 0000.0001)     ;
(PID.TID 0000.0001) SEAICElinearIterMax = /* max. number of linear solver steps */
(PID.TID 0000.0001)                     500
(PID.TID 0000.0001)     ;
(PID.TID 0000.0001) SEAICEnonLinTol     = /* non-linear solver tolerance */
(PID.TID 0000.0001)                 0.000000000000000E+00
(PID.TID 0000.0001)     ;
(PID.TID 0000.0001) 
(PID.TID 0000.0001)    Seaice advection diffusion config,   > START <
(PID.TID 0000.0001)    -----------------------------------------------
(PID.TID 0000.0001) SEAICEmomAdvection = /* advect sea ice momentum */
(PID.TID 0000.0001)                   F
(PID.TID 0000.0001)     ;
(PID.TID 0000.0001) SEAICEadvHeff = /* advect effective ice thickness */
(PID.TID 0000.0001)                   T
(PID.TID 0000.0001)     ;
(PID.TID 0000.0001) SEAICEadvArea = /* advect fractional ice area */
(PID.TID 0000.0001)                   T
(PID.TID 0000.0001)     ;
(PID.TID 0000.0001) SEAICEadvSnow = /* advect snow layer together with ice */
(PID.TID 0000.0001)                   T
(PID.TID 0000.0001)     ;
(PID.TID 0000.0001) SEAICEadvScheme   = /* advection scheme for ice */
(PID.TID 0000.0001)                      30
(PID.TID 0000.0001)     ;
(PID.TID 0000.0001) SEAICEadvSchArea   = /* advection scheme for area */
(PID.TID 0000.0001)                      30
(PID.TID 0000.0001)     ;
(PID.TID 0000.0001) SEAICEadvSchHeff   = /* advection scheme for thickness */
(PID.TID 0000.0001)                      30
(PID.TID 0000.0001)     ;
(PID.TID 0000.0001) SEAICEadvSchSnow   = /* advection scheme for snow */
(PID.TID 0000.0001)                      30
(PID.TID 0000.0001)     ;
(PID.TID 0000.0001) SEAICEdiffKhArea   = /* diffusivity (m^2/s) for area */
(PID.TID 0000.0001)                 0.000000000000000E+00
(PID.TID 0000.0001)     ;
(PID.TID 0000.0001) SEAICEdiffKhHeff   = /* diffusivity (m^2/s) for heff */
(PID.TID 0000.0001)                 0.000000000000000E+00
(PID.TID 0000.0001)     ;
(PID.TID 0000.0001) SEAICEdiffKhSnow   = /* diffusivity (m^2/s) for snow */
(PID.TID 0000.0001)                 0.000000000000000E+00
(PID.TID 0000.0001)     ;
(PID.TID 0000.0001) DIFF1             = /* parameter used in advect.F [m/s] */
(PID.TID 0000.0001)                 0.000000000000000E+00
(PID.TID 0000.0001)     ;
(PID.TID 0000.0001) 
(PID.TID 0000.0001)    Seaice thermodynamics configuration   > START <
(PID.TID 0000.0001)    -----------------------------------------------
(PID.TID 0000.0001) SEAICE_rhoIce     = /* density of sea ice (kg/m3) */
(PID.TID 0000.0001)                 9.100000000000000E+02
(PID.TID 0000.0001)     ;
(PID.TID 0000.0001) SEAICE_rhoSnow    = /* density of snow (kg/m3) */
(PID.TID 0000.0001)                 3.300000000000000E+02
(PID.TID 0000.0001)     ;
(PID.TID 0000.0001) SEAICE_rhoAir     = /* density of air (kg/m3) */
(PID.TID 0000.0001)                 1.220000000000000E+00
(PID.TID 0000.0001)     ;
(PID.TID 0000.0001) usePW79thermodynamics  = /* default 0-layer TD */
(PID.TID 0000.0001)                   T
(PID.TID 0000.0001)     ;
(PID.TID 0000.0001) SEAICE_lhEvap     = /* latent heat of evaporation */
(PID.TID 0000.0001)                 2.500000000000000E+06
(PID.TID 0000.0001)     ;
(PID.TID 0000.0001) SEAICE_lhFusion   = /* latent heat of fusion */
(PID.TID 0000.0001)                 3.340000000000000E+05
(PID.TID 0000.0001)     ;
(PID.TID 0000.0001) SEAICE_mcPheePiston = /* turbulent flux "piston velocity" a la McPhee (m/s) */
(PID.TID 0000.0001)                 5.787037037037037E-04
(PID.TID 0000.0001)     ;
(PID.TID 0000.0001) SEAICE_mcPheeTaper = /* tapering of turbulent flux (0.< <1.) for AREA=1. */
(PID.TID 0000.0001)                 0.000000000000000E+00
(PID.TID 0000.0001)     ;
(PID.TID 0000.0001) SEAICE_mcPheeStepFunc = /* replace linear tapering with step funct. */
(PID.TID 0000.0001)                   F
(PID.TID 0000.0001)     ;
(PID.TID 0000.0001) SEAICE_frazilFrac = /* frazil (T<tempFrz) to seaice conversion rate (0.< <1.) */
(PID.TID 0000.0001)                 1.000000000000000E+00
(PID.TID 0000.0001)     ;
(PID.TID 0000.0001) SEAICE_tempFrz0   = /* freezing temp. of sea water (intercept) */
(PID.TID 0000.0001)                 9.010000000000000E-02
(PID.TID 0000.0001)     ;
(PID.TID 0000.0001) SEAICE_dTempFrz_dS= /* freezing temp. of sea water (slope) */
(PID.TID 0000.0001)                -5.750000000000000E-02
(PID.TID 0000.0001)     ;
(PID.TID 0000.0001) SEAICE_growMeltByConv  = /* grow,melt by vert. conv. */
(PID.TID 0000.0001)                   F
(PID.TID 0000.0001)     ;
(PID.TID 0000.0001) SEAICE_doOpenWaterGrowth = /* grow by open water */
(PID.TID 0000.0001)                   T
(PID.TID 0000.0001)     ;
(PID.TID 0000.0001) SEAICE_doOpenWaterMelt = /* melt by open water */
(PID.TID 0000.0001)                   F
(PID.TID 0000.0001)     ;
(PID.TID 0000.0001) SEAICE_areaGainFormula = /* ice cover gain formula (1,2)*/
(PID.TID 0000.0001)                       1
(PID.TID 0000.0001)     1=from growth by ATM
(PID.TID 0000.0001)     2=from predicted growth by ATM
(PID.TID 0000.0001)     ;
(PID.TID 0000.0001) SEAICE_areaLossFormula = /* ice cover loss formula (1,2)*/
(PID.TID 0000.0001)                       2
(PID.TID 0000.0001)     1=from all but only melt conributions by ATM and OCN
(PID.TID 0000.0001)     2=from net melt-grow>0 by ATM and OCN
(PID.TID 0000.0001)     3=from predicted melt by ATM
(PID.TID 0000.0001)     ;
(PID.TID 0000.0001) HO                = /* nominal thickness of new ice */
(PID.TID 0000.0001)                 5.000000000000000E-01
(PID.TID 0000.0001)     ;
(PID.TID 0000.0001) HO_south               = /* Southern Ocean HO */
(PID.TID 0000.0001)                 5.000000000000000E-01
(PID.TID 0000.0001)     ;
(PID.TID 0000.0001) SEAICE_area_max        = /* set to les than 1. to mimic open leads */
(PID.TID 0000.0001)                 1.000000000000000E+00
(PID.TID 0000.0001)     ;
(PID.TID 0000.0001) SEAICE_salt0   = /* constant sea ice salinity */
(PID.TID 0000.0001)                 4.000000000000000E+00
(PID.TID 0000.0001)     ;
(PID.TID 0000.0001) SEAICE_salinityTracer = /* test SITR varia. salinity */
(PID.TID 0000.0001)                   F
(PID.TID 0000.0001)     ;
(PID.TID 0000.0001) SEAICEuseFlooding = /* turn submerged snow into ice */
(PID.TID 0000.0001)                   T
(PID.TID 0000.0001)     ;
(PID.TID 0000.0001) 
(PID.TID 0000.0001)    Seaice air-sea fluxes configuration,   > START <
(PID.TID 0000.0001)    -----------------------------------------------
(PID.TID 0000.0001) SEAICEheatConsFix  = /* accound for ocn<->seaice advect. heat flux */
(PID.TID 0000.0001)                   F
(PID.TID 0000.0001)     ;
(PID.TID 0000.0001) SEAICE_multDim    = /* number of ice categories (1 or 7) */
(PID.TID 0000.0001)                       1
(PID.TID 0000.0001)     ;
(PID.TID 0000.0001) SEAICE_PDF        = /* sea-ice distribution (-) */
(PID.TID 0000.0001)                 1.000000000000000E+00,      /* K =  1 */
(PID.TID 0000.0001)     6 @  0.000000000000000E+00              /* K =  2:  7 */
(PID.TID 0000.0001)     ;
(PID.TID 0000.0001) IMAX_TICE         = /* iterations for ice surface temp */
(PID.TID 0000.0001)                      10
(PID.TID 0000.0001)     ;
(PID.TID 0000.0001) postSolvTempIter= /* flux calculation after surf. temp iter */
(PID.TID 0000.0001)                       2
(PID.TID 0000.0001)     ;
(PID.TID 0000.0001) SEAICE_dryIceAlb  = /* winter albedo */
(PID.TID 0000.0001)                 7.500000000000000E-01
(PID.TID 0000.0001)     ;
(PID.TID 0000.0001) SEAICE_wetIceAlb  = /* summer albedo */
(PID.TID 0000.0001)                 6.600000000000000E-01
(PID.TID 0000.0001)     ;
(PID.TID 0000.0001) SEAICE_drySnowAlb = /* dry snow albedo */
(PID.TID 0000.0001)                 8.400000000000000E-01
(PID.TID 0000.0001)     ;
(PID.TID 0000.0001) SEAICE_wetSnowAlb = /* wet snow albedo */
(PID.TID 0000.0001)                 7.000000000000000E-01
(PID.TID 0000.0001)     ;
(PID.TID 0000.0001) SEAICE_dryIceAlb_south = /* Southern Ocean dryIceAlb */
(PID.TID 0000.0001)                 7.500000000000000E-01
(PID.TID 0000.0001)     ;
(PID.TID 0000.0001) SEAICE_wetIceAlb_south = /* Southern Ocean wetIceAlb */
(PID.TID 0000.0001)                 6.600000000000000E-01
(PID.TID 0000.0001)     ;
(PID.TID 0000.0001) SEAICE_drySnowAlb_south= /* Southern Ocean drySnowAlb */
(PID.TID 0000.0001)                 8.400000000000000E-01
(PID.TID 0000.0001)     ;
(PID.TID 0000.0001) SEAICE_wetSnowAlb_south= /* Southern Ocean wetSnowAlb */
(PID.TID 0000.0001)                 7.000000000000000E-01
(PID.TID 0000.0001)     ;
(PID.TID 0000.0001) SEAICE_wetAlbTemp= /* Temp (o.C) threshold for wet-albedo */
(PID.TID 0000.0001)                 0.000000000000000E+00
(PID.TID 0000.0001)     ;
(PID.TID 0000.0001) SEAICE_snow_emiss = /* snow emissivity */
(PID.TID 0000.0001)                 9.500000000000000E-01
(PID.TID 0000.0001)     ;
(PID.TID 0000.0001) SEAICE_ice_emiss = /* seaice emissivity */
(PID.TID 0000.0001)                 9.500000000000000E-01
(PID.TID 0000.0001)     ;
(PID.TID 0000.0001) SEAICE_cpAir      = /* heat capacity of air */
(PID.TID 0000.0001)                 1.005000000000000E+03
(PID.TID 0000.0001)     ;
(PID.TID 0000.0001) SEAICE_dalton     = /* constant dalton number */
(PID.TID 0000.0001)                 1.750000000000000E-03
(PID.TID 0000.0001)     ;
(PID.TID 0000.0001) SEAICE_iceConduct = /* sea-ice conductivity */
(PID.TID 0000.0001)                 2.165600000000000E+00
(PID.TID 0000.0001)     ;
(PID.TID 0000.0001) SEAICE_snowConduct= /* snow conductivity */
(PID.TID 0000.0001)                 3.100000000000000E-01
(PID.TID 0000.0001)     ;
(PID.TID 0000.0001) SEAICE_snowThick  = /* cutoff snow thickness (for albedo) */
(PID.TID 0000.0001)                 0.000000000000000E+00
(PID.TID 0000.0001)     ;
(PID.TID 0000.0001) SEAICE_shortwave  = /* penetration shortwave radiation */
(PID.TID 0000.0001)                 3.000000000000000E-01
(PID.TID 0000.0001)     ;
(PID.TID 0000.0001) useMaykutSatVapPoly = /* use Maykut Polynomial for Sat.Vap.Pr */
(PID.TID 0000.0001)                   F
(PID.TID 0000.0001)     ;
(PID.TID 0000.0001) MIN_ATEMP         = /* minimum air temperature */
(PID.TID 0000.0001)                -5.000000000000000E+01
(PID.TID 0000.0001)     ;
(PID.TID 0000.0001) MIN_LWDOWN        = /* minimum downward longwave */
(PID.TID 0000.0001)                 6.000000000000000E+01
(PID.TID 0000.0001)     ;
(PID.TID 0000.0001) MIN_TICE          = /* minimum ice temperature */
(PID.TID 0000.0001)                -5.000000000000000E+01
(PID.TID 0000.0001)     ;
(PID.TID 0000.0001) 
(PID.TID 0000.0001)    Seaice initialization and IO config.,   > START <
(PID.TID 0000.0001)    -------------------------------------------------
(PID.TID 0000.0001) SEAICE_initialHEFF= /* initial sea-ice thickness */
(PID.TID 0000.0001)                 0.000000000000000E+00
(PID.TID 0000.0001)     ;
(PID.TID 0000.0001) AreaFile = /* Initial ice concentration File */
(PID.TID 0000.0001)               ''
(PID.TID 0000.0001)     ;
(PID.TID 0000.0001) HeffFile = /* Initial effective ice thickness File */
(PID.TID 0000.0001)               ''
(PID.TID 0000.0001)     ;
(PID.TID 0000.0001) HsnowFile = /* Initial snow thickness File */
(PID.TID 0000.0001)               ''
(PID.TID 0000.0001)     ;
(PID.TID 0000.0001) uIceFile = /* Initial U-ice velocity File */
(PID.TID 0000.0001)               ''
(PID.TID 0000.0001)     ;
(PID.TID 0000.0001) vIceFile = /* Initial V-ice velocity File */
(PID.TID 0000.0001)               ''
(PID.TID 0000.0001)     ;
(PID.TID 0000.0001) SEAICEwriteState  = /* write sea ice state to file */
(PID.TID 0000.0001)                   F
(PID.TID 0000.0001)     ;
(PID.TID 0000.0001) SEAICE_monFreq  = /* monitor frequency */
(PID.TID 0000.0001)                 1.000000000000000E+00
(PID.TID 0000.0001)     ;
(PID.TID 0000.0001) SEAICE_dumpFreq   = /* dump frequency */
(PID.TID 0000.0001)                 4.320000000000000E+05
(PID.TID 0000.0001)     ;
(PID.TID 0000.0001) SEAICE_taveFreq   = /* time-averaging frequency */
(PID.TID 0000.0001)                 0.000000000000000E+00
(PID.TID 0000.0001)     ;
(PID.TID 0000.0001) SEAICE_mon_stdio  = /* write monitor to std-outp */
(PID.TID 0000.0001)                   T
(PID.TID 0000.0001)     ;
(PID.TID 0000.0001) SEAICE_dump_mdsio = /* write snap-shot   using MDSIO */
(PID.TID 0000.0001)                   T
(PID.TID 0000.0001)     ;
(PID.TID 0000.0001) SEAICE_tave_mdsio = /* write TimeAverage using MDSIO */
(PID.TID 0000.0001)                   T
(PID.TID 0000.0001)     ;
(PID.TID 0000.0001) 
(PID.TID 0000.0001)    Seaice regularization numbers,   > START <
(PID.TID 0000.0001)    -----------------------------------------------
(PID.TID 0000.0001) SEAICE_deltaMin   = /* reduce singularities in Delta */
(PID.TID 0000.0001)                 1.000000000000000E-10
(PID.TID 0000.0001)     ;
(PID.TID 0000.0001) SEAICE_EPS        = /* small number */
(PID.TID 0000.0001)                 1.000000000000000E-10
(PID.TID 0000.0001)     ;
(PID.TID 0000.0001) SEAICE_EPS_SQ     = /* small number squared */
(PID.TID 0000.0001)                 1.000000000000000E-20
(PID.TID 0000.0001)     ;
(PID.TID 0000.0001) SEAICE_area_reg   = /* reduce derivative singularities */
(PID.TID 0000.0001)                 1.000000000000000E-05
(PID.TID 0000.0001)     ;
(PID.TID 0000.0001) SEAICE_hice_reg   = /* reduce derivative singularities */
(PID.TID 0000.0001)                 5.000000000000000E-02
(PID.TID 0000.0001)     ;
(PID.TID 0000.0001) SEAICE_area_floor = /* reduce derivative singularities */
(PID.TID 0000.0001)                 1.000000000000000E-05
(PID.TID 0000.0001)     ;
(PID.TID 0000.0001) 
(PID.TID 0000.0001) // =======================================================
(PID.TID 0000.0001) // Seaice configuration (SEAICE_PARM01) >>> END <<<
(PID.TID 0000.0001) // =======================================================
(PID.TID 0000.0001) 
(PID.TID 0000.0001) ctrl-wet 1:    nvarlength =       478732
(PID.TID 0000.0001) ctrl-wet 2: surface wet C =          389
(PID.TID 0000.0001) ctrl-wet 3: surface wet W =          367
(PID.TID 0000.0001) ctrl-wet 4: surface wet S =          384
(PID.TID 0000.0001) ctrl-wet 4a:surface wet V =            0
(PID.TID 0000.0001) ctrl-wet 5: 3D wet points =         5204
(PID.TID 0000.0001) ctrl-wet 6: no recs for i =     1           1
(PID.TID 0000.0001) ctrl-wet 6: no recs for i =     2           1
(PID.TID 0000.0001) ctrl-wet 6: no recs for i =     3           1
(PID.TID 0000.0001) ctrl-wet 6: no recs for i =     4           1
(PID.TID 0000.0001) ctrl-wet 6: no recs for i =     5           1
(PID.TID 0000.0001) ctrl-wet 6: no recs for i =     6           1
(PID.TID 0000.0001) ctrl-wet 6: no recs for i =     7           0
(PID.TID 0000.0001) ctrl-wet 6: no recs for i =     8           0
(PID.TID 0000.0001) ctrl-wet 6: no recs for i =     9           0
(PID.TID 0000.0001) ctrl-wet 6: no recs for i =    10           0
(PID.TID 0000.0001) ctrl-wet 6: no recs for i =    11           0
(PID.TID 0000.0001) ctrl-wet 6: no recs for i =    12           0
(PID.TID 0000.0001) ctrl-wet 6: no recs for i =    13           0
(PID.TID 0000.0001) ctrl-wet 6: no recs for i =    14           0
(PID.TID 0000.0001) ctrl-wet 6: no recs for i =    15           1
(PID.TID 0000.0001) ctrl-wet 6: no recs for i =    16           0
(PID.TID 0000.0001) ctrl-wet 6: no recs for i =    17           1
(PID.TID 0000.0001) ctrl-wet 6: no recs for i =    18           0
(PID.TID 0000.0001) ctrl-wet 6: no recs for i =    19           0
(PID.TID 0000.0001) ctrl-wet 6: no recs for i =    20           0
(PID.TID 0000.0001) ctrl-wet 6: no recs for i =    21           0
(PID.TID 0000.0001) ctrl-wet 6: no recs for i =    22           0
(PID.TID 0000.0001) ctrl-wet 6: no recs for i =    23           0
(PID.TID 0000.0001) ctrl-wet 6: no recs for i =    24           0
(PID.TID 0000.0001) ctrl-wet 6: no recs for i =    25           0
(PID.TID 0000.0001) ctrl-wet 6: no recs for i =    26           0
(PID.TID 0000.0001) ctrl-wet 6: no recs for i =    27           0
(PID.TID 0000.0001) ctrl-wet 6: no recs for i =    28           0
(PID.TID 0000.0001) ctrl-wet 6: no recs for i =    29           0
(PID.TID 0000.0001) ctrl-wet 6: no recs for i =    30           0
(PID.TID 0000.0001) ctrl-wet 6: no recs for i =    31           0
(PID.TID 0000.0001) ctrl-wet 6: no recs for i =    32           0
(PID.TID 0000.0001) ctrl-wet 6: no recs for i =    33           0
(PID.TID 0000.0001) ctrl-wet 6: no recs for i =    34           0
(PID.TID 0000.0001) ctrl-wet 6: no recs for i =    35           0
(PID.TID 0000.0001) ctrl-wet 6: no recs for i =    36           0
(PID.TID 0000.0001) ctrl-wet 6: no recs for i =    37           0
(PID.TID 0000.0001) ctrl-wet 6: no recs for i =    38           0
(PID.TID 0000.0001) ctrl-wet 6: no recs for i =    39           0
(PID.TID 0000.0001) ctrl-wet 6: no recs for i =    40           0
(PID.TID 0000.0001) ctrl-wet 6: no recs for i =    41           0
(PID.TID 0000.0001) ctrl-wet 6: no recs for i =    42           0
(PID.TID 0000.0001) ctrl-wet 6: no recs for i =    43           0
(PID.TID 0000.0001) ctrl-wet 6: no recs for i =    44           0
(PID.TID 0000.0001) ctrl-wet 6: no recs for i =    45           0
(PID.TID 0000.0001) ctrl-wet 6: no recs for i =    46           0
(PID.TID 0000.0001) ctrl-wet 6: no recs for i =    47           0
(PID.TID 0000.0001) ctrl-wet 6: no recs for i =    48           0
(PID.TID 0000.0001) ctrl-wet 6: no recs for i =    49           0
(PID.TID 0000.0001) ctrl-wet 6: no recs for i =    50           0
(PID.TID 0000.0001) ctrl-wet 6: no recs for i =    51           0
(PID.TID 0000.0001) ctrl-wet 6: no recs for i =    52           0
(PID.TID 0000.0001) ctrl-wet 6: no recs for i =    53           0
(PID.TID 0000.0001) ctrl-wet 6: no recs for i =    54           0
(PID.TID 0000.0001) ctrl-wet 6: no recs for i =    55           0
(PID.TID 0000.0001) ctrl-wet 6: no recs for i =    56           0
(PID.TID 0000.0001) ctrl-wet 6: no recs for i =    57           0
(PID.TID 0000.0001) ctrl-wet 6: no recs for i =    58           0
(PID.TID 0000.0001) ctrl-wet 6: no recs for i =    59           0
(PID.TID 0000.0001) ctrl-wet 6: no recs for i =    60           0
(PID.TID 0000.0001) ctrl-wet 6: no recs for i =    61           0
(PID.TID 0000.0001) ctrl-wet 6: no recs for i =    62           0
(PID.TID 0000.0001) ctrl-wet 6: no recs for i =    63           0
(PID.TID 0000.0001) ctrl-wet 6: no recs for i =    64           0
(PID.TID 0000.0001) ctrl-wet 6: no recs for i =    65           0
(PID.TID 0000.0001) ctrl-wet 6: no recs for i =    66           0
(PID.TID 0000.0001) ctrl-wet 6: no recs for i =    67           0
(PID.TID 0000.0001) ctrl-wet 6: no recs for i =    68           0
(PID.TID 0000.0001) ctrl-wet 6: no recs for i =    69           0
(PID.TID 0000.0001) ctrl-wet 6: no recs for i =    70           0
(PID.TID 0000.0001) ctrl-wet 6: no recs for i =    71           0
(PID.TID 0000.0001) ctrl-wet 6: no recs for i =    72           0
(PID.TID 0000.0001) ctrl-wet 6: no recs for i =    73           0
(PID.TID 0000.0001) ctrl-wet 6: no recs for i =    74           0
(PID.TID 0000.0001) ctrl-wet 6: no recs for i =    75           0
(PID.TID 0000.0001) ctrl-wet 6: no recs for i =    76           0
(PID.TID 0000.0001) ctrl-wet 6: no recs for i =    77           0
(PID.TID 0000.0001) ctrl-wet 6: no recs for i =    78           0
(PID.TID 0000.0001) ctrl-wet 6: no recs for i =    79           0
(PID.TID 0000.0001) ctrl-wet 6: no recs for i =    80           0
(PID.TID 0000.0001) ctrl-wet 6: no recs for i =    81           0
(PID.TID 0000.0001) ctrl-wet 6: no recs for i =    82           0
(PID.TID 0000.0001) ctrl-wet 6: no recs for i =    83           0
(PID.TID 0000.0001) ctrl-wet 6: no recs for i =    84           0
(PID.TID 0000.0001) ctrl-wet 6: no recs for i =    85           0
(PID.TID 0000.0001) ctrl-wet 6: no recs for i =    86           0
(PID.TID 0000.0001) ctrl-wet 6: no recs for i =    87           0
(PID.TID 0000.0001) ctrl-wet 6: no recs for i =    88           0
(PID.TID 0000.0001) ctrl-wet 6: no recs for i =    89           0
(PID.TID 0000.0001) ctrl-wet 6: no recs for i =    90           0
(PID.TID 0000.0001) ctrl-wet 6: no recs for i =    91           0
(PID.TID 0000.0001) ctrl-wet 6: no recs for i =    92           0
(PID.TID 0000.0001) ctrl-wet 6: no recs for i =    93           0
(PID.TID 0000.0001) ctrl-wet 6: no recs for i =    94           0
(PID.TID 0000.0001) ctrl-wet 6: no recs for i =    95           0
(PID.TID 0000.0001) ctrl-wet 6: no recs for i =    96           0
(PID.TID 0000.0001) ctrl-wet 6: no recs for i =    97           0
(PID.TID 0000.0001) ctrl-wet 6: no recs for i =    98           0
(PID.TID 0000.0001) ctrl-wet 6: no recs for i =    99           0
(PID.TID 0000.0001) ctrl-wet 6: no recs for i =   100           0
(PID.TID 0000.0001) ctrl-wet 6: no recs for i =   101           0
(PID.TID 0000.0001) ctrl-wet 6: no recs for i =   102           0
(PID.TID 0000.0001) ctrl-wet 6: no recs for i =   103           0
(PID.TID 0000.0001) ctrl-wet 6: no recs for i =   104           0
(PID.TID 0000.0001) ctrl-wet 6: no recs for i =   105           0
(PID.TID 0000.0001) ctrl-wet 6: no recs for i =   106           0
(PID.TID 0000.0001) ctrl-wet 6: no recs for i =   107           0
(PID.TID 0000.0001) ctrl-wet 6: no recs for i =   108           0
(PID.TID 0000.0001) ctrl-wet 6: no recs for i =   109           0
(PID.TID 0000.0001) ctrl-wet 6: no recs for i =   110           0
(PID.TID 0000.0001) ctrl-wet 6: no recs for i =   111           0
(PID.TID 0000.0001) ctrl-wet 6: no recs for i =   112           0
(PID.TID 0000.0001) ctrl-wet 6: no recs for i =   113           0
(PID.TID 0000.0001) ctrl-wet 6: no recs for i =   114           0
(PID.TID 0000.0001) ctrl-wet 6: no recs for i =   115           0
(PID.TID 0000.0001) ctrl-wet 6: no recs for i =   116           0
(PID.TID 0000.0001) ctrl-wet 6: no recs for i =   117           0
(PID.TID 0000.0001) ctrl-wet 6: no recs for i =   118           0
(PID.TID 0000.0001) ctrl-wet 6: no recs for i =   119           0
(PID.TID 0000.0001) ctrl-wet 6: no recs for i =   120           0
(PID.TID 0000.0001) ctrl-wet 6: no recs for i =   121           0
(PID.TID 0000.0001) ctrl-wet 6: no recs for i =   122           0
(PID.TID 0000.0001) ctrl-wet 6: no recs for i =   123           0
(PID.TID 0000.0001) ctrl-wet 6: no recs for i =   124           0
(PID.TID 0000.0001) ctrl-wet 6: no recs for i =   125           0
(PID.TID 0000.0001) ctrl-wet 6: no recs for i =   126           0
(PID.TID 0000.0001) ctrl-wet 6: no recs for i =   127           0
(PID.TID 0000.0001) ctrl-wet 6: no recs for i =   128           0
(PID.TID 0000.0001) ctrl-wet 6: no recs for i =   129           0
(PID.TID 0000.0001) ctrl-wet 6: no recs for i =   130           0
(PID.TID 0000.0001) ctrl-wet 6: no recs for i =   131           0
(PID.TID 0000.0001) ctrl-wet 6: no recs for i =   132           0
(PID.TID 0000.0001) ctrl-wet 6: no recs for i =   133           0
(PID.TID 0000.0001) ctrl-wet 6: no recs for i =   134           0
(PID.TID 0000.0001) ctrl-wet 6: no recs for i =   135           0
(PID.TID 0000.0001) ctrl-wet 6: no recs for i =   136           0
(PID.TID 0000.0001) ctrl-wet 6: no recs for i =   137           0
(PID.TID 0000.0001) ctrl-wet 6: no recs for i =   138           0
(PID.TID 0000.0001) ctrl-wet 6: no recs for i =   139           0
(PID.TID 0000.0001) ctrl-wet 6: no recs for i =   140           0
(PID.TID 0000.0001) ctrl-wet 6: no recs for i =   141           0
(PID.TID 0000.0001) ctrl-wet 6: no recs for i =   142           0
(PID.TID 0000.0001) ctrl-wet 6: no recs for i =   143           0
(PID.TID 0000.0001) ctrl-wet 6: no recs for i =   144           0
(PID.TID 0000.0001) ctrl-wet 6: no recs for i =   145           0
(PID.TID 0000.0001) ctrl-wet 6: no recs for i =   146           0
(PID.TID 0000.0001) ctrl-wet 6: no recs for i =   147           0
(PID.TID 0000.0001) ctrl-wet 6: no recs for i =   148           0
(PID.TID 0000.0001) ctrl-wet 6: no recs for i =   149           0
(PID.TID 0000.0001) ctrl-wet 6: no recs for i =   150           0
(PID.TID 0000.0001) ctrl-wet 6: no recs for i =   151           0
(PID.TID 0000.0001) ctrl-wet 6: no recs for i =   152           0
(PID.TID 0000.0001) ctrl-wet 6: no recs for i =   153           0
(PID.TID 0000.0001) ctrl-wet 6: no recs for i =   154           0
(PID.TID 0000.0001) ctrl-wet 6: no recs for i =   155           0
(PID.TID 0000.0001) ctrl-wet 6: no recs for i =   156           0
(PID.TID 0000.0001) ctrl-wet 6: no recs for i =   157           0
(PID.TID 0000.0001) ctrl-wet 6: no recs for i =   158           0
(PID.TID 0000.0001) ctrl-wet 6: no recs for i =   159           0
(PID.TID 0000.0001) ctrl-wet 6: no recs for i =   160           0
(PID.TID 0000.0001) ctrl-wet 6: no recs for i =   161           0
(PID.TID 0000.0001) ctrl-wet 6: no recs for i =   162           0
(PID.TID 0000.0001) ctrl-wet 6: no recs for i =   163           0
(PID.TID 0000.0001) ctrl-wet 6: no recs for i =   164           0
(PID.TID 0000.0001) ctrl-wet 6: no recs for i =   165           0
(PID.TID 0000.0001) ctrl-wet 6: no recs for i =   166           0
(PID.TID 0000.0001) ctrl-wet 6: no recs for i =   167           0
(PID.TID 0000.0001) ctrl-wet 6: no recs for i =   168           0
(PID.TID 0000.0001) ctrl-wet 6: no recs for i =   169           0
(PID.TID 0000.0001) ctrl-wet 6: no recs for i =   170           0
(PID.TID 0000.0001) ctrl-wet 6: no recs for i =   171           0
(PID.TID 0000.0001) ctrl-wet 6: no recs for i =   172           0
(PID.TID 0000.0001) ctrl-wet 6: no recs for i =   173           0
(PID.TID 0000.0001) ctrl-wet 6: no recs for i =   174           0
(PID.TID 0000.0001) ctrl-wet 6: no recs for i =   175           0
(PID.TID 0000.0001) ctrl-wet 6: no recs for i =   176           0
(PID.TID 0000.0001) ctrl-wet 6: no recs for i =   177           0
(PID.TID 0000.0001) ctrl-wet 6: no recs for i =   178           0
(PID.TID 0000.0001) ctrl-wet 6: no recs for i =   179           0
(PID.TID 0000.0001) ctrl-wet 6: no recs for i =   180           0
(PID.TID 0000.0001) ctrl-wet 6: no recs for i =   181           0
(PID.TID 0000.0001) ctrl-wet 6: no recs for i =   182           0
(PID.TID 0000.0001) ctrl-wet 6: no recs for i =   183           0
(PID.TID 0000.0001) ctrl-wet 6: no recs for i =   184           0
(PID.TID 0000.0001) ctrl-wet 6: no recs for i =   185           0
(PID.TID 0000.0001) ctrl-wet 6: no recs for i =   186           0
(PID.TID 0000.0001) ctrl-wet 6: no recs for i =   187           0
(PID.TID 0000.0001) ctrl-wet 6: no recs for i =   188           0
(PID.TID 0000.0001) ctrl-wet 6: no recs for i =   189           0
(PID.TID 0000.0001) ctrl-wet 6: no recs for i =   190           0
(PID.TID 0000.0001) ctrl-wet 6: no recs for i =   191           0
(PID.TID 0000.0001) ctrl-wet 6: no recs for i =   192           0
(PID.TID 0000.0001) ctrl-wet 6: no recs for i =   193           0
(PID.TID 0000.0001) ctrl-wet 6: no recs for i =   194           0
(PID.TID 0000.0001) ctrl-wet 6: no recs for i =   195           0
(PID.TID 0000.0001) ctrl-wet 6: no recs for i =   196           0
(PID.TID 0000.0001) ctrl-wet 6: no recs for i =   197           0
(PID.TID 0000.0001) ctrl-wet 6: no recs for i =   198           0
(PID.TID 0000.0001) ctrl-wet 6: no recs for i =   199           0
(PID.TID 0000.0001) ctrl-wet 6: no recs for i =   200           0
(PID.TID 0000.0001) ctrl-wet 6: no recs for i =   201           1
(PID.TID 0000.0001) ctrl-wet 6: no recs for i =   202           1
(PID.TID 0000.0001) ctrl-wet 6: no recs for i =   203           1
(PID.TID 0000.0001) ctrl-wet 6: no recs for i =   204           1
(PID.TID 0000.0001) ctrl-wet 6: no recs for i =   205           0
(PID.TID 0000.0001) ctrl-wet 6: no recs for i =   206           0
(PID.TID 0000.0001) ctrl-wet 6: no recs for i =   207           0
(PID.TID 0000.0001) ctrl-wet 6: no recs for i =   208           0
(PID.TID 0000.0001) ctrl-wet 6: no recs for i =   209           0
(PID.TID 0000.0001) ctrl-wet 6: no recs for i =   210           0
(PID.TID 0000.0001) ctrl-wet 6: no recs for i =   211           0
(PID.TID 0000.0001) ctrl-wet 6: no recs for i =   212           0
(PID.TID 0000.0001) ctrl-wet 6: no recs for i =   213           0
(PID.TID 0000.0001) ctrl-wet 6: no recs for i =   214           0
(PID.TID 0000.0001) ctrl-wet 6: no recs for i =   215           0
(PID.TID 0000.0001) ctrl-wet 6: no recs for i =   216           0
(PID.TID 0000.0001) ctrl-wet 6: no recs for i =   217           0
(PID.TID 0000.0001) ctrl-wet 6: no recs for i =   218           0
(PID.TID 0000.0001) ctrl-wet 6: no recs for i =   219           0
(PID.TID 0000.0001) ctrl-wet 6: no recs for i =   220           0
(PID.TID 0000.0001) ctrl-wet 6: no recs for i =   221           0
(PID.TID 0000.0001) ctrl-wet 6: no recs for i =   222           0
(PID.TID 0000.0001) ctrl-wet 6: no recs for i =   223           0
(PID.TID 0000.0001) ctrl-wet 6: no recs for i =   224           0
(PID.TID 0000.0001) ctrl-wet 6: no recs for i =   225           0
(PID.TID 0000.0001) ctrl-wet 6: no recs for i =   226           0
(PID.TID 0000.0001) ctrl-wet 6: no recs for i =   227           0
(PID.TID 0000.0001) ctrl-wet 6: no recs for i =   228           0
(PID.TID 0000.0001) ctrl-wet 6: no recs for i =   229           0
(PID.TID 0000.0001) ctrl-wet 6: no recs for i =   230           0
(PID.TID 0000.0001) ctrl-wet 6: no recs for i =   231           0
(PID.TID 0000.0001) ctrl-wet 6: no recs for i =   232           0
(PID.TID 0000.0001) ctrl-wet 6: no recs for i =   233           0
(PID.TID 0000.0001) ctrl-wet 6: no recs for i =   234           0
(PID.TID 0000.0001) ctrl-wet 6: no recs for i =   235           0
(PID.TID 0000.0001) ctrl-wet 6: no recs for i =   236           0
(PID.TID 0000.0001) ctrl-wet 6: no recs for i =   237           0
(PID.TID 0000.0001) ctrl-wet 6: no recs for i =   238           0
(PID.TID 0000.0001) ctrl-wet 6: no recs for i =   239           0
(PID.TID 0000.0001) ctrl-wet 6: no recs for i =   240           0
(PID.TID 0000.0001) ctrl-wet 6: no recs for i =   241           0
(PID.TID 0000.0001) ctrl-wet 6: no recs for i =   242           0
(PID.TID 0000.0001) ctrl-wet 6: no recs for i =   243           0
(PID.TID 0000.0001) ctrl-wet 6: no recs for i =   244           0
(PID.TID 0000.0001) ctrl-wet 6: no recs for i =   245           0
(PID.TID 0000.0001) ctrl-wet 6: no recs for i =   246           0
(PID.TID 0000.0001) ctrl-wet 6: no recs for i =   247           0
(PID.TID 0000.0001) ctrl-wet 6: no recs for i =   248           0
(PID.TID 0000.0001) ctrl-wet 6: no recs for i =   249           0
(PID.TID 0000.0001) ctrl-wet 6: no recs for i =   250           0
(PID.TID 0000.0001) ctrl-wet 6: no recs for i =   251           0
(PID.TID 0000.0001) ctrl-wet 6: no recs for i =   252           0
(PID.TID 0000.0001) ctrl-wet 6: no recs for i =   253           0
(PID.TID 0000.0001) ctrl-wet 6: no recs for i =   254           0
(PID.TID 0000.0001) ctrl-wet 6: no recs for i =   255           0
(PID.TID 0000.0001) ctrl-wet 6: no recs for i =   256           0
(PID.TID 0000.0001) ctrl-wet 6: no recs for i =   257           0
(PID.TID 0000.0001) ctrl-wet 6: no recs for i =   258           0
(PID.TID 0000.0001) ctrl-wet 6: no recs for i =   259           0
(PID.TID 0000.0001) ctrl-wet 6: no recs for i =   260           0
(PID.TID 0000.0001) ctrl-wet 6: no recs for i =   261           0
(PID.TID 0000.0001) ctrl-wet 6: no recs for i =   262           0
(PID.TID 0000.0001) ctrl-wet 6: no recs for i =   263           0
(PID.TID 0000.0001) ctrl-wet 6: no recs for i =   264           0
(PID.TID 0000.0001) ctrl-wet 6: no recs for i =   265           0
(PID.TID 0000.0001) ctrl-wet 6: no recs for i =   266           0
(PID.TID 0000.0001) ctrl-wet 6: no recs for i =   267           0
(PID.TID 0000.0001) ctrl-wet 6: no recs for i =   268           0
(PID.TID 0000.0001) ctrl-wet 6: no recs for i =   269           0
(PID.TID 0000.0001) ctrl-wet 6: no recs for i =   270           0
(PID.TID 0000.0001) ctrl-wet 6: no recs for i =   271           0
(PID.TID 0000.0001) ctrl-wet 6: no recs for i =   272           0
(PID.TID 0000.0001) ctrl-wet 6: no recs for i =   273           0
(PID.TID 0000.0001) ctrl-wet 6: no recs for i =   274           0
(PID.TID 0000.0001) ctrl-wet 6: no recs for i =   275           0
(PID.TID 0000.0001) ctrl-wet 6: no recs for i =   276           0
(PID.TID 0000.0001) ctrl-wet 6: no recs for i =   277           0
(PID.TID 0000.0001) ctrl-wet 6: no recs for i =   278           0
(PID.TID 0000.0001) ctrl-wet 6: no recs for i =   279           0
(PID.TID 0000.0001) ctrl-wet 6: no recs for i =   280           0
(PID.TID 0000.0001) ctrl-wet 6: no recs for i =   281           0
(PID.TID 0000.0001) ctrl-wet 6: no recs for i =   282           0
(PID.TID 0000.0001) ctrl-wet 6: no recs for i =   283           0
(PID.TID 0000.0001) ctrl-wet 6: no recs for i =   284           0
(PID.TID 0000.0001) ctrl-wet 6: no recs for i =   285           0
(PID.TID 0000.0001) ctrl-wet 6: no recs for i =   286           0
(PID.TID 0000.0001) ctrl-wet 6: no recs for i =   287           0
(PID.TID 0000.0001) ctrl-wet 6: no recs for i =   288           0
(PID.TID 0000.0001) ctrl-wet 6: no recs for i =   289           0
(PID.TID 0000.0001) ctrl-wet 6: no recs for i =   290           0
(PID.TID 0000.0001) ctrl-wet 6: no recs for i =   291           0
(PID.TID 0000.0001) ctrl-wet 6: no recs for i =   292           0
(PID.TID 0000.0001) ctrl-wet 6: no recs for i =   293           0
(PID.TID 0000.0001) ctrl-wet 6: no recs for i =   294           0
(PID.TID 0000.0001) ctrl-wet 6: no recs for i =   295           0
(PID.TID 0000.0001) ctrl-wet 6: no recs for i =   296           0
(PID.TID 0000.0001) ctrl-wet 6: no recs for i =   297           0
(PID.TID 0000.0001) ctrl-wet 6: no recs for i =   298           0
(PID.TID 0000.0001) ctrl-wet 6: no recs for i =   299           0
(PID.TID 0000.0001) ctrl-wet 6: no recs for i =   300           0
(PID.TID 0000.0001) ctrl-wet 6: no recs for i =   301           1
(PID.TID 0000.0001) ctrl-wet 6: no recs for i =   302           1
(PID.TID 0000.0001) ctrl-wet 6: no recs for i =   303           1
(PID.TID 0000.0001) ctrl-wet 6: no recs for i =   304           1
(PID.TID 0000.0001) ctrl-wet 6: no recs for i =   305           0
(PID.TID 0000.0001) ctrl-wet 6: no recs for i =   306           0
(PID.TID 0000.0001) ctrl-wet 6: no recs for i =   307           0
(PID.TID 0000.0001) ctrl-wet 6: no recs for i =   308           0
(PID.TID 0000.0001) ctrl-wet 6: no recs for i =   309           0
(PID.TID 0000.0001) ctrl-wet 6: no recs for i =   310           0
(PID.TID 0000.0001) ctrl-wet 6: no recs for i =   311           0
(PID.TID 0000.0001) ctrl-wet 6: no recs for i =   312           0
(PID.TID 0000.0001) ctrl-wet 6: no recs for i =   313           0
(PID.TID 0000.0001) ctrl-wet 6: no recs for i =   314           0
(PID.TID 0000.0001) ctrl-wet 6: no recs for i =   315           0
(PID.TID 0000.0001) ctrl-wet 6: no recs for i =   316           0
(PID.TID 0000.0001) ctrl-wet 6: no recs for i =   317           0
(PID.TID 0000.0001) ctrl-wet 6: no recs for i =   318           0
(PID.TID 0000.0001) ctrl-wet 6: no recs for i =   319           0
(PID.TID 0000.0001) ctrl-wet 6: no recs for i =   320           0
(PID.TID 0000.0001) ctrl-wet 6: no recs for i =   321           0
(PID.TID 0000.0001) ctrl-wet 6: no recs for i =   322           0
(PID.TID 0000.0001) ctrl-wet 6: no recs for i =   323           0
(PID.TID 0000.0001) ctrl-wet 6: no recs for i =   324           0
(PID.TID 0000.0001) ctrl-wet 6: no recs for i =   325           0
(PID.TID 0000.0001) ctrl-wet 6: no recs for i =   326           0
(PID.TID 0000.0001) ctrl-wet 6: no recs for i =   327           0
(PID.TID 0000.0001) ctrl-wet 6: no recs for i =   328           0
(PID.TID 0000.0001) ctrl-wet 6: no recs for i =   329           0
(PID.TID 0000.0001) ctrl-wet 6: no recs for i =   330           0
(PID.TID 0000.0001) ctrl-wet 6: no recs for i =   331           0
(PID.TID 0000.0001) ctrl-wet 6: no recs for i =   332           0
(PID.TID 0000.0001) ctrl-wet 6: no recs for i =   333           0
(PID.TID 0000.0001) ctrl-wet 6: no recs for i =   334           0
(PID.TID 0000.0001) ctrl-wet 6: no recs for i =   335           0
(PID.TID 0000.0001) ctrl-wet 6: no recs for i =   336           0
(PID.TID 0000.0001) ctrl-wet 6: no recs for i =   337           0
(PID.TID 0000.0001) ctrl-wet 6: no recs for i =   338           0
(PID.TID 0000.0001) ctrl-wet 6: no recs for i =   339           0
(PID.TID 0000.0001) ctrl-wet 6: no recs for i =   340           0
(PID.TID 0000.0001) ctrl-wet 6: no recs for i =   341           0
(PID.TID 0000.0001) ctrl-wet 6: no recs for i =   342           0
(PID.TID 0000.0001) ctrl-wet 6: no recs for i =   343           0
(PID.TID 0000.0001) ctrl-wet 6: no recs for i =   344           0
(PID.TID 0000.0001) ctrl-wet 6: no recs for i =   345           0
(PID.TID 0000.0001) ctrl-wet 6: no recs for i =   346           0
(PID.TID 0000.0001) ctrl-wet 6: no recs for i =   347           0
(PID.TID 0000.0001) ctrl-wet 6: no recs for i =   348           0
(PID.TID 0000.0001) ctrl-wet 6: no recs for i =   349           0
(PID.TID 0000.0001) ctrl-wet 6: no recs for i =   350           0
(PID.TID 0000.0001) ctrl-wet 6: no recs for i =   351           0
(PID.TID 0000.0001) ctrl-wet 6: no recs for i =   352           0
(PID.TID 0000.0001) ctrl-wet 6: no recs for i =   353           0
(PID.TID 0000.0001) ctrl-wet 6: no recs for i =   354           0
(PID.TID 0000.0001) ctrl-wet 6: no recs for i =   355           0
(PID.TID 0000.0001) ctrl-wet 6: no recs for i =   356           0
(PID.TID 0000.0001) ctrl-wet 6: no recs for i =   357           0
(PID.TID 0000.0001) ctrl-wet 6: no recs for i =   358           0
(PID.TID 0000.0001) ctrl-wet 6: no recs for i =   359           0
(PID.TID 0000.0001) ctrl-wet 6: no recs for i =   360           0
(PID.TID 0000.0001) ctrl-wet 6: no recs for i =   361           0
(PID.TID 0000.0001) ctrl-wet 6: no recs for i =   362           0
(PID.TID 0000.0001) ctrl-wet 6: no recs for i =   363           0
(PID.TID 0000.0001) ctrl-wet 6: no recs for i =   364           0
(PID.TID 0000.0001) ctrl-wet 6: no recs for i =   365           0
(PID.TID 0000.0001) ctrl-wet 6: no recs for i =   366           0
(PID.TID 0000.0001) ctrl-wet 6: no recs for i =   367           0
(PID.TID 0000.0001) ctrl-wet 6: no recs for i =   368           0
(PID.TID 0000.0001) ctrl-wet 6: no recs for i =   369           0
(PID.TID 0000.0001) ctrl-wet 6: no recs for i =   370           0
(PID.TID 0000.0001) ctrl-wet 6: no recs for i =   371           0
(PID.TID 0000.0001) ctrl-wet 6: no recs for i =   372           0
(PID.TID 0000.0001) ctrl-wet 6: no recs for i =   373           0
(PID.TID 0000.0001) ctrl-wet 6: no recs for i =   374           0
(PID.TID 0000.0001) ctrl-wet 6: no recs for i =   375           0
(PID.TID 0000.0001) ctrl-wet 6: no recs for i =   376           0
(PID.TID 0000.0001) ctrl-wet 6: no recs for i =   377           0
(PID.TID 0000.0001) ctrl-wet 6: no recs for i =   378           0
(PID.TID 0000.0001) ctrl-wet 6: no recs for i =   379           0
(PID.TID 0000.0001) ctrl-wet 6: no recs for i =   380           0
(PID.TID 0000.0001) ctrl-wet 6: no recs for i =   381           0
(PID.TID 0000.0001) ctrl-wet 6: no recs for i =   382           0
(PID.TID 0000.0001) ctrl-wet 6: no recs for i =   383           0
(PID.TID 0000.0001) ctrl-wet 6: no recs for i =   384           0
(PID.TID 0000.0001) ctrl-wet 6: no recs for i =   385           0
(PID.TID 0000.0001) ctrl-wet 6: no recs for i =   386           0
(PID.TID 0000.0001) ctrl-wet 6: no recs for i =   387           0
(PID.TID 0000.0001) ctrl-wet 6: no recs for i =   388           0
(PID.TID 0000.0001) ctrl-wet 6: no recs for i =   389           0
(PID.TID 0000.0001) ctrl-wet 6: no recs for i =   390           0
(PID.TID 0000.0001) ctrl-wet 6: no recs for i =   391           0
(PID.TID 0000.0001) ctrl-wet 6: no recs for i =   392           0
(PID.TID 0000.0001) ctrl-wet 6: no recs for i =   393           0
(PID.TID 0000.0001) ctrl-wet 6: no recs for i =   394           0
(PID.TID 0000.0001) ctrl-wet 6: no recs for i =   395           0
(PID.TID 0000.0001) ctrl-wet 6: no recs for i =   396           0
(PID.TID 0000.0001) ctrl-wet 6: no recs for i =   397           0
(PID.TID 0000.0001) ctrl-wet 6: no recs for i =   398           0
(PID.TID 0000.0001) ctrl-wet 6: no recs for i =   399           0
(PID.TID 0000.0001) ctrl-wet 6: no recs for i =   400           0
(PID.TID 0000.0001) ctrl-wet 7: flux         11937
(PID.TID 0000.0001) ctrl-wet 8: atmos        10408
(PID.TID 0000.0001) ctrl-wet -------------------------------------------------
(PID.TID 0000.0001) ctrl-wet 13: global nvarlength for Nr =   15      478732
(PID.TID 0000.0001) ctrl-wet -------------------------------------------------
(PID.TID 0000.0001) ctrl-wet 14: global nWet C/S/W/V k=    1        4420        4232        4206           0
(PID.TID 0000.0001) ctrl-wet 14: global nWet C/S/W/V k=    2        4299        4112        4096           0
(PID.TID 0000.0001) ctrl-wet 14: global nWet C/S/W/V k=    3        4222        4038        4023           0
(PID.TID 0000.0001) ctrl-wet 14: global nWet C/S/W/V k=    4        4140        3960        3939           0
(PID.TID 0000.0001) ctrl-wet 14: global nWet C/S/W/V k=    5        4099        3919        3893           0
(PID.TID 0000.0001) ctrl-wet 14: global nWet C/S/W/V k=    6        4038        3856        3839           0
(PID.TID 0000.0001) ctrl-wet 14: global nWet C/S/W/V k=    7        3995        3814        3795           0
(PID.TID 0000.0001) ctrl-wet 14: global nWet C/S/W/V k=    8        3944        3756        3737           0
(PID.TID 0000.0001) ctrl-wet 14: global nWet C/S/W/V k=    9        3887        3699        3673           0
(PID.TID 0000.0001) ctrl-wet 14: global nWet C/S/W/V k=   10        3799        3605        3585           0
(PID.TID 0000.0001) ctrl-wet 14: global nWet C/S/W/V k=   11        3703        3502        3461           0
(PID.TID 0000.0001) ctrl-wet 14: global nWet C/S/W/V k=   12        3554        3338        3303           0
(PID.TID 0000.0001) ctrl-wet 14: global nWet C/S/W/V k=   13        3202        2910        2911           0
(PID.TID 0000.0001) ctrl-wet 14: global nWet C/S/W/V k=   14        2599        2296        2276           0
(PID.TID 0000.0001) ctrl-wet 14: global nWet C/S/W/V k=   15        1621        1368        1334           0
(PID.TID 0000.0001) ctrl-wet -------------------------------------------------
(PID.TID 0000.0001) ctrl-wet -------------------------------------------------
(PID.TID 0000.0001) ctrl-wet -------------------------------------------------
(PID.TID 0000.0001) ctrl_init_wet: no. of control variables:           16
(PID.TID 0000.0001) ctrl_init_wet: control vector length:          478732
(PID.TID 0000.0001) 
(PID.TID 0000.0001) // =======================================================
(PID.TID 0000.0001) // control vector configuration  >>> START <<<
(PID.TID 0000.0001) // =======================================================
(PID.TID 0000.0001) 
(PID.TID 0000.0001)  Total number of ocean points per tile:
(PID.TID 0000.0001)  --------------------------------------
(PID.TID 0000.0001)  snx*sny*nr =     7680
(PID.TID 0000.0001) 
(PID.TID 0000.0001)  Number of ocean points per tile:
(PID.TID 0000.0001)  --------------------------------
(PID.TID 0000.0001)  bi,bj,#(c/s/w): 0001 0001 005204 005084 004791
(PID.TID 0000.0001)  bi,bj,#(c/s/w): 0002 0001 003115 002837 002945
(PID.TID 0000.0001)  bi,bj,#(c/s/w): 0003 0001 005620 005386 005384
(PID.TID 0000.0001)  bi,bj,#(c/s/w): 0004 0001 002470 002283 001983
(PID.TID 0000.0001)  bi,bj,#(c/s/w): 0005 0001 001306 000952 000953
(PID.TID 0000.0001)  bi,bj,#(c/s/w): 0006 0001 003476 003122 003082
(PID.TID 0000.0001)  bi,bj,#(c/s/w): 0007 0001 005619 005222 005403
(PID.TID 0000.0001)  bi,bj,#(c/s/w): 0008 0001 007482 007397 007429
(PID.TID 0000.0001)  bi,bj,#(c/s/w): 0009 0001 005900 005825 005686
(PID.TID 0000.0001)  bi,bj,#(c/s/w): 0010 0001 003678 003307 003317
(PID.TID 0000.0001)  bi,bj,#(c/s/w): 0011 0001 006008 005782 005796
(PID.TID 0000.0001)  bi,bj,#(c/s/w): 0012 0001 005644 005208 005302
(PID.TID 0000.0001) 
(PID.TID 0000.0001)  Initial state temperature contribution:
(PID.TID 0000.0001)  Control variable index:    0101
(PID.TID 0000.0001) 
(PID.TID 0000.0001)  Initial state salinity contribution:
(PID.TID 0000.0001)  Control variable index:    0102
(PID.TID 0000.0001) 
(PID.TID 0000.0001)  Settings of generic controls:
(PID.TID 0000.0001)  -----------------------------
(PID.TID 0000.0001) 
(PID.TID 0000.0001)  ctrlUseGen  =     T /* use generic controls */
(PID.TID 0000.0001)  -> 3d control, genarr3d no.  1 is in use
(PID.TID 0000.0001)       file       = xx_theta
(PID.TID 0000.0001)       weight     = ones.prec64
(PID.TID 0000.0001)       index      =  0201
(PID.TID 0000.0001)       ncvarindex =  0301
(PID.TID 0000.0001)  -> 3d control, genarr3d no.  2 is in use
(PID.TID 0000.0001)       file       = xx_salt
(PID.TID 0000.0001)       weight     = ones.prec64
(PID.TID 0000.0001)       index      =  0202
(PID.TID 0000.0001)       ncvarindex =  0302
(PID.TID 0000.0001)  -> 3d control, genarr3d no.  3 is in use
(PID.TID 0000.0001)       file       = xx_ptr
(PID.TID 0000.0001)       weight     = ones.prec64
(PID.TID 0000.0001)       index      =  0203
(PID.TID 0000.0001)       ncvarindex =  0303
(PID.TID 0000.0001)  -> 3d control, genarr3d no.  4 is in use
(PID.TID 0000.0001)       file       = xx_diffkr
(PID.TID 0000.0001)       weight     = ones.prec64
(PID.TID 0000.0001)       index      =  0204
(PID.TID 0000.0001)       ncvarindex =  0304
(PID.TID 0000.0001)  -> time variable 2D control, gentim2d no.  1 is in use
(PID.TID 0000.0001)       file       = xx_qnet
(PID.TID 0000.0001)       weight     = ones.prec64
(PID.TID 0000.0001)       index      =  0301
(PID.TID 0000.0001)       ncvarindex =  0401
(PID.TID 0000.0001)       period     =  00000000 000000
(PID.TID 0000.0001)  -> time variable 2D control, gentim2d no.  2 is in use
(PID.TID 0000.0001)       file       = xx_empmr
(PID.TID 0000.0001)       weight     = ones.prec64
(PID.TID 0000.0001)       index      =  0302
(PID.TID 0000.0001)       ncvarindex =  0402
(PID.TID 0000.0001)       period     =  00000000 000000
(PID.TID 0000.0001)  -> time variable 2D control, gentim2d no.  3 is in use
(PID.TID 0000.0001)       file       = xx_fu
(PID.TID 0000.0001)       weight     = ones.prec64
(PID.TID 0000.0001)       index      =  0303
(PID.TID 0000.0001)       ncvarindex =  0403
(PID.TID 0000.0001)       period     =  00000000 000000
(PID.TID 0000.0001)  -> time variable 2D control, gentim2d no.  4 is in use
(PID.TID 0000.0001)       file       = xx_fv
(PID.TID 0000.0001)       weight     = ones.prec64
(PID.TID 0000.0001)       index      =  0304
(PID.TID 0000.0001)       ncvarindex =  0404
(PID.TID 0000.0001)       period     =  00000000 000000
(PID.TID 0000.0001) 
(PID.TID 0000.0001) // =======================================================
(PID.TID 0000.0001) // control vector configuration  >>> END <<<
(PID.TID 0000.0001) // =======================================================
(PID.TID 0000.0001) 
(PID.TID 0000.0001) INI_GLOBAL_DOMAIN: Found  19 CS-corner Pts in the domain
(PID.TID 0000.0001) %MON fCori_max                    =   1.4574827780704E-04
(PID.TID 0000.0001) %MON fCori_min                    =  -1.4574827780704E-04
(PID.TID 0000.0001) %MON fCori_mean                   =   3.3881317890172E-21
(PID.TID 0000.0001) %MON fCori_sd                     =   8.4202189509968E-05
(PID.TID 0000.0001) %MON fCoriG_max                   =   1.4584247033981E-04
(PID.TID 0000.0001) %MON fCoriG_min                   =  -1.4584247033981E-04
(PID.TID 0000.0001) %MON fCoriG_mean                  =  -1.6940658945086E-20
(PID.TID 0000.0001) %MON fCoriG_sd                    =   8.4202189509968E-05
(PID.TID 0000.0001) %MON fCoriCos_max                 =   1.4580166994612E-04
(PID.TID 0000.0001) %MON fCoriCos_min                 =   5.2407700865903E-06
(PID.TID 0000.0001) %MON fCoriCos_mean                =   1.1514045869113E-04
(PID.TID 0000.0001) %MON fCoriCos_sd                  =   3.0375849106513E-05
(PID.TID 0000.0001) INI_CG2D: CG2D normalisation factor =  1.9156564154949553E-04
(PID.TID 0000.0001) INI_CG2D: cg2dTolerance = 5.809016360175296E-07 (Area=3.6388673751E+14)
(PID.TID 0000.0001) 
(PID.TID 0000.0001) // =======================================================
(PID.TID 0000.0001) // Model configuration
(PID.TID 0000.0001) // =======================================================
(PID.TID 0000.0001) //
(PID.TID 0000.0001) // "Physical" paramters ( PARM01 in namelist )
(PID.TID 0000.0001) //
(PID.TID 0000.0001) buoyancyRelation = /* Type of relation to get Buoyancy */
(PID.TID 0000.0001)               'OCEANIC'
(PID.TID 0000.0001)     ;
(PID.TID 0000.0001) fluidIsAir   =  /* fluid major constituent is Air */
(PID.TID 0000.0001)                   F
(PID.TID 0000.0001)     ;
(PID.TID 0000.0001) fluidIsWater =  /* fluid major constituent is Water */
(PID.TID 0000.0001)                   T
(PID.TID 0000.0001)     ;
(PID.TID 0000.0001) usingPCoords =  /* use p (or p*) vertical coordinate */
(PID.TID 0000.0001)                   F
(PID.TID 0000.0001)     ;
(PID.TID 0000.0001) usingZCoords =  /* use z (or z*) vertical coordinate */
(PID.TID 0000.0001)                   T
(PID.TID 0000.0001)     ;
(PID.TID 0000.0001) tRef =   /* Reference temperature profile ( oC or K ) */
(PID.TID 0000.0001)    15 @  2.000000000000000E+01              /* K =  1: 15 */
(PID.TID 0000.0001)     ;
(PID.TID 0000.0001) sRef =   /* Reference salinity profile ( psu ) */
(PID.TID 0000.0001)    15 @  3.500000000000000E+01              /* K =  1: 15 */
(PID.TID 0000.0001)     ;
(PID.TID 0000.0001) useStrainTensionVisc= /* Use StrainTension Form of Viscous Operator */
(PID.TID 0000.0001)                   F
(PID.TID 0000.0001)     ;
(PID.TID 0000.0001) useVariableVisc = /* Use variable horizontal viscosity */
(PID.TID 0000.0001)                   F
(PID.TID 0000.0001)     ;
(PID.TID 0000.0001) useHarmonicVisc = /* Use harmonic horizontal viscosity */
(PID.TID 0000.0001)                   T
(PID.TID 0000.0001)     ;
(PID.TID 0000.0001) useBiharmonicVisc= /* Use biharmonic horiz.  viscosity */
(PID.TID 0000.0001)                   F
(PID.TID 0000.0001)     ;
(PID.TID 0000.0001) useSmag3D = /* Use isotropic 3-D Smagorinsky viscosity */
(PID.TID 0000.0001)                   F
(PID.TID 0000.0001)     ;
(PID.TID 0000.0001) viscAh  =   /* Lateral harmonic viscosity ( m^2/s ) */
(PID.TID 0000.0001)                 3.000000000000000E+05
(PID.TID 0000.0001)     ;
(PID.TID 0000.0001) viscA4  =   /* Lateral biharmonic viscosity ( m^4/s ) */
(PID.TID 0000.0001)                 0.000000000000000E+00
(PID.TID 0000.0001)     ;
(PID.TID 0000.0001) no_slip_sides =  /* Viscous BCs: No-slip sides */
(PID.TID 0000.0001)                   T
(PID.TID 0000.0001)     ;
(PID.TID 0000.0001) sideDragFactor = /* side-drag scaling factor (non-dim) */
(PID.TID 0000.0001)                 2.000000000000000E+00
(PID.TID 0000.0001)     ;
(PID.TID 0000.0001) viscArNr = /* vertical profile of vertical viscosity ( m^2/s )*/
(PID.TID 0000.0001)    15 @  1.000000000000000E-03              /* K =  1: 15 */
(PID.TID 0000.0001)     ;
(PID.TID 0000.0001) no_slip_bottom =  /* Viscous BCs: No-slip bottom */
(PID.TID 0000.0001)                   T
(PID.TID 0000.0001)     ;
(PID.TID 0000.0001) bottomVisc_pCell = /* Partial-cell in bottom Visc. BC */
(PID.TID 0000.0001)                   F
(PID.TID 0000.0001)     ;
(PID.TID 0000.0001) bottomDragLinear = /* linear bottom-drag coefficient ( m/s ) */
(PID.TID 0000.0001)                 0.000000000000000E+00
(PID.TID 0000.0001)     ;
(PID.TID 0000.0001) bottomDragQuadratic = /* quadratic bottom-drag coefficient (-) */
(PID.TID 0000.0001)                 0.000000000000000E+00
(PID.TID 0000.0001)     ;
(PID.TID 0000.0001) selectBotDragQuadr = /* select quadratic bottom drag options */
(PID.TID 0000.0001)                      -1
(PID.TID 0000.0001)     ;
(PID.TID 0000.0001) diffKhT =   /* Laplacian diffusion of heat laterally ( m^2/s ) */
(PID.TID 0000.0001)                 0.000000000000000E+00
(PID.TID 0000.0001)     ;
(PID.TID 0000.0001) diffK4T =   /* Biharmonic diffusion of heat laterally ( m^4/s ) */
(PID.TID 0000.0001)                 0.000000000000000E+00
(PID.TID 0000.0001)     ;
(PID.TID 0000.0001) diffKhS =   /* Laplacian diffusion of salt laterally ( m^2/s ) */
(PID.TID 0000.0001)                 0.000000000000000E+00
(PID.TID 0000.0001)     ;
(PID.TID 0000.0001) diffK4S =   /* Biharmonic diffusion of salt laterally ( m^4/s ) */
(PID.TID 0000.0001)                 0.000000000000000E+00
(PID.TID 0000.0001)     ;
(PID.TID 0000.0001) diffKrNrT = /* vertical profile of vertical diffusion of Temp ( m^2/s )*/
(PID.TID 0000.0001)    15 @  0.000000000000000E+00              /* K =  1: 15 */
(PID.TID 0000.0001)     ;
(PID.TID 0000.0001) diffKrNrS = /* vertical profile of vertical diffusion of Salt ( m^2/s )*/
(PID.TID 0000.0001)    15 @  3.000000000000000E-05              /* K =  1: 15 */
(PID.TID 0000.0001)     ;
(PID.TID 0000.0001) diffKrBL79surf = /* Surface diffusion for Bryan and Lewis 79 ( m^2/s ) */
(PID.TID 0000.0001)                 0.000000000000000E+00
(PID.TID 0000.0001)     ;
(PID.TID 0000.0001) diffKrBL79deep = /* Deep diffusion for Bryan and Lewis 1979 ( m^2/s ) */
(PID.TID 0000.0001)                 0.000000000000000E+00
(PID.TID 0000.0001)     ;
(PID.TID 0000.0001) diffKrBL79scl = /* Depth scale for Bryan and Lewis 1979 ( m ) */
(PID.TID 0000.0001)                 2.000000000000000E+02
(PID.TID 0000.0001)     ;
(PID.TID 0000.0001) diffKrBL79Ho = /* Turning depth for Bryan and Lewis 1979 ( m ) */
(PID.TID 0000.0001)                -2.000000000000000E+03
(PID.TID 0000.0001)     ;
(PID.TID 0000.0001) ivdc_kappa = /* Implicit Vertical Diffusivity for Convection ( m^2/s) */
(PID.TID 0000.0001)                 1.000000000000000E+01
(PID.TID 0000.0001)     ;
(PID.TID 0000.0001) hMixCriteria=  /* Criteria for mixed-layer diagnostic */
(PID.TID 0000.0001)                -8.000000000000000E-01
(PID.TID 0000.0001)     ;
(PID.TID 0000.0001) dRhoSmall =  /* Parameter for mixed-layer diagnostic */
(PID.TID 0000.0001)                 1.000000000000000E-06
(PID.TID 0000.0001)     ;
(PID.TID 0000.0001) hMixSmooth=  /* Smoothing parameter for mixed-layer diagnostic */
(PID.TID 0000.0001)                 0.000000000000000E+00
(PID.TID 0000.0001)     ;
(PID.TID 0000.0001) eosType =  /* Type of Equation of State */
(PID.TID 0000.0001)               'JMD95Z'
(PID.TID 0000.0001)     ;
(PID.TID 0000.0001) eosRefP0 = /* Reference atmospheric pressure for EOS ( Pa ) */
(PID.TID 0000.0001)                 1.013250000000000E+05
(PID.TID 0000.0001)     ;
(PID.TID 0000.0001) selectP_inEOS_Zc = /* select pressure to use in EOS (0,1,2,3) */
(PID.TID 0000.0001)                       0
(PID.TID 0000.0001)     0= -g*rhoConst*z ; 1= pRef (from tRef,sRef); 2= Hyd P ; 3= Hyd+NH P
(PID.TID 0000.0001)     ;
(PID.TID 0000.0001) surf_pRef = /* Surface reference pressure ( Pa ) */
(PID.TID 0000.0001)                 1.013250000000000E+05
(PID.TID 0000.0001)     ;
(PID.TID 0000.0001) HeatCapacity_Cp =  /* Specific heat capacity ( J/kg/K ) */
(PID.TID 0000.0001)                 3.994000000000000E+03
(PID.TID 0000.0001)     ;
(PID.TID 0000.0001) celsius2K = /* 0 degree Celsius converted to Kelvin ( K ) */
(PID.TID 0000.0001)                 2.731500000000000E+02
(PID.TID 0000.0001)     ;
(PID.TID 0000.0001) rhoConst  = /* Reference density (Boussinesq)  ( kg/m^3 ) */
(PID.TID 0000.0001)                 1.035000000000000E+03
(PID.TID 0000.0001)     ;
(PID.TID 0000.0001) rhoFacC = /* normalized Reference density @ cell-Center (-) */
(PID.TID 0000.0001)    15 @  1.000000000000000E+00              /* K =  1: 15 */
(PID.TID 0000.0001)     ;
(PID.TID 0000.0001) rhoFacF = /* normalized Reference density @ W-Interface (-) */
(PID.TID 0000.0001)    16 @  1.000000000000000E+00              /* K =  1: 16 */
(PID.TID 0000.0001)     ;
(PID.TID 0000.0001) rhoConstFresh = /* Fresh-water reference density ( kg/m^3 ) */
(PID.TID 0000.0001)                 1.000000000000000E+03
(PID.TID 0000.0001)     ;
(PID.TID 0000.0001) gravity =   /* Gravitational acceleration ( m/s^2 ) */
(PID.TID 0000.0001)                 9.810000000000000E+00
(PID.TID 0000.0001)     ;
(PID.TID 0000.0001) gBaro =   /* Barotropic gravity ( m/s^2 ) */
(PID.TID 0000.0001)                 9.810000000000000E+00
(PID.TID 0000.0001)     ;
(PID.TID 0000.0001) gravFacC = /* gravity factor (vs surf.) @ cell-Center (-) */
(PID.TID 0000.0001)    15 @  1.000000000000000E+00              /* K =  1: 15 */
(PID.TID 0000.0001)     ;
(PID.TID 0000.0001) gravFacF = /* gravity factor (vs surf.) @ W-Interface (-) */
(PID.TID 0000.0001)    16 @  1.000000000000000E+00              /* K =  1: 16 */
(PID.TID 0000.0001)     ;
(PID.TID 0000.0001) rotationPeriod =   /* Rotation Period ( s ) */
(PID.TID 0000.0001)                 8.616400000000000E+04
(PID.TID 0000.0001)     ;
(PID.TID 0000.0001) omega =   /* Angular velocity ( rad/s ) */
(PID.TID 0000.0001)                 7.292123516990375E-05
(PID.TID 0000.0001)     ;
(PID.TID 0000.0001) f0 =   /* Reference coriolis parameter ( 1/s ) */
(PID.TID 0000.0001)                 1.000000000000000E-04
(PID.TID 0000.0001)     ;
(PID.TID 0000.0001) beta =   /* Beta ( 1/(m.s) ) */
(PID.TID 0000.0001)                 9.999999999999999E-12
(PID.TID 0000.0001)     ;
(PID.TID 0000.0001) fPrime =   /* Second coriolis parameter ( 1/s ) */
(PID.TID 0000.0001)                 0.000000000000000E+00
(PID.TID 0000.0001)     ;
(PID.TID 0000.0001) rigidLid =   /* Rigid lid on/off flag */
(PID.TID 0000.0001)                   F
(PID.TID 0000.0001)     ;
(PID.TID 0000.0001) implicitFreeSurface =   /* Implicit free surface on/off flag */
(PID.TID 0000.0001)                   T
(PID.TID 0000.0001)     ;
(PID.TID 0000.0001) freeSurfFac =   /* Implicit free surface factor */
(PID.TID 0000.0001)                 1.000000000000000E+00
(PID.TID 0000.0001)     ;
(PID.TID 0000.0001) implicSurfPress =  /* Surface Pressure implicit factor (0-1)*/
(PID.TID 0000.0001)                 1.000000000000000E+00
(PID.TID 0000.0001)     ;
(PID.TID 0000.0001) implicDiv2DFlow =  /* Barot. Flow Div. implicit factor (0-1)*/
(PID.TID 0000.0001)                 1.000000000000000E+00
(PID.TID 0000.0001)     ;
(PID.TID 0000.0001) uniformLin_PhiSurf = /* use uniform Bo_surf on/off flag*/
(PID.TID 0000.0001)                   T
(PID.TID 0000.0001)     ;
(PID.TID 0000.0001) uniformFreeSurfLev = /* free-surface level-index is uniform */
(PID.TID 0000.0001)                   T
(PID.TID 0000.0001)     ;
(PID.TID 0000.0001) hFacMin =   /* minimum partial cell factor (hFac) */
(PID.TID 0000.0001)                 1.000000000000000E-01
(PID.TID 0000.0001)     ;
(PID.TID 0000.0001) hFacMinDr = /* minimum partial cell thickness ( m) */
(PID.TID 0000.0001)                 2.000000000000000E+01
(PID.TID 0000.0001)     ;
(PID.TID 0000.0001) exactConserv =  /* Exact Volume Conservation on/off flag*/
(PID.TID 0000.0001)                   T
(PID.TID 0000.0001)     ;
(PID.TID 0000.0001) linFSConserveTr = /* Tracer correction for Lin Free Surface on/off flag*/
(PID.TID 0000.0001)                   F
(PID.TID 0000.0001)     ;
(PID.TID 0000.0001) nonlinFreeSurf = /* Non-linear Free Surf. options (-1,0,1,2,3)*/
(PID.TID 0000.0001)                       2
(PID.TID 0000.0001)      -1,0= Off ; 1,2,3= On, 2=+rescale gU,gV, 3=+update cg2d solv.
(PID.TID 0000.0001)     ;
(PID.TID 0000.0001) hFacInf =   /* lower threshold for hFac (nonlinFreeSurf only)*/
(PID.TID 0000.0001)                 2.000000000000000E-01
(PID.TID 0000.0001)     ;
(PID.TID 0000.0001) hFacSup =   /* upper threshold for hFac (nonlinFreeSurf only)*/
(PID.TID 0000.0001)                 2.000000000000000E+00
(PID.TID 0000.0001)     ;
(PID.TID 0000.0001) select_rStar = /* r* Vertical coord. options (=0 r coord.; >0 uses r*)*/
(PID.TID 0000.0001)                       1
(PID.TID 0000.0001)     ;
(PID.TID 0000.0001) useRealFreshWaterFlux = /* Real Fresh Water Flux on/off flag*/
(PID.TID 0000.0001)                   T
(PID.TID 0000.0001)     ;
(PID.TID 0000.0001) temp_EvPrRn = /* Temp. of Evap/Prec/R (UNSET=use local T)(oC)*/
(PID.TID 0000.0001)                 1.234567000000000E+05
(PID.TID 0000.0001)     ;
(PID.TID 0000.0001) salt_EvPrRn = /* Salin. of Evap/Prec/R (UNSET=use local S)(psu)*/
(PID.TID 0000.0001)                 0.000000000000000E+00
(PID.TID 0000.0001)     ;
(PID.TID 0000.0001) selectAddFluid = /* option for mass source/sink of fluid (=0: off) */
(PID.TID 0000.0001)                       0
(PID.TID 0000.0001)     ;
(PID.TID 0000.0001) temp_addMass = /* Temp. of addMass array (UNSET=use local T)(oC)*/
(PID.TID 0000.0001)                 1.234567000000000E+05
(PID.TID 0000.0001)     ;
(PID.TID 0000.0001) salt_addMass = /* Salin. of addMass array (UNSET=use local S)(psu)*/
(PID.TID 0000.0001)                 0.000000000000000E+00
(PID.TID 0000.0001)     ;
(PID.TID 0000.0001) use3Dsolver = /* use 3-D pressure solver on/off flag */
(PID.TID 0000.0001)                   F
(PID.TID 0000.0001)     ;
(PID.TID 0000.0001) nonHydrostatic =  /* Non-Hydrostatic on/off flag */
(PID.TID 0000.0001)                   F
(PID.TID 0000.0001)     ;
(PID.TID 0000.0001) nh_Am2 = /* Non-Hydrostatic terms scaling factor */
(PID.TID 0000.0001)                 1.000000000000000E+00
(PID.TID 0000.0001)     ;
(PID.TID 0000.0001) implicitNHPress = /* Non-Hyd Pressure implicit factor (0-1)*/
(PID.TID 0000.0001)                 1.000000000000000E+00
(PID.TID 0000.0001)     ;
(PID.TID 0000.0001) selectNHfreeSurf = /* Non-Hyd (free-)Surface option */
(PID.TID 0000.0001)                       0
(PID.TID 0000.0001)     ;
(PID.TID 0000.0001) quasiHydrostatic = /* Quasi-Hydrostatic on/off flag */
(PID.TID 0000.0001)                   F
(PID.TID 0000.0001)     ;
(PID.TID 0000.0001) calc_wVelocity = /* vertical velocity calculation on/off flag */
(PID.TID 0000.0001)                   T
(PID.TID 0000.0001)     ;
(PID.TID 0000.0001) momStepping =  /* Momentum equation on/off flag */
(PID.TID 0000.0001)                   T
(PID.TID 0000.0001)     ;
(PID.TID 0000.0001) vectorInvariantMomentum= /* Vector-Invariant Momentum on/off */
(PID.TID 0000.0001)                   T
(PID.TID 0000.0001)     ;
(PID.TID 0000.0001) momAdvection =  /* Momentum advection on/off flag */
(PID.TID 0000.0001)                   T
(PID.TID 0000.0001)     ;
(PID.TID 0000.0001) momViscosity =  /* Momentum viscosity on/off flag */
(PID.TID 0000.0001)                   T
(PID.TID 0000.0001)     ;
(PID.TID 0000.0001) momImplVertAdv= /* Momentum implicit vert. advection on/off*/
(PID.TID 0000.0001)                   F
(PID.TID 0000.0001)     ;
(PID.TID 0000.0001) implicitViscosity = /* Implicit viscosity on/off flag */
(PID.TID 0000.0001)                   F
(PID.TID 0000.0001)     ;
(PID.TID 0000.0001) selectImplicitDrag= /* Implicit bot Drag options (0,1,2)*/
(PID.TID 0000.0001)                       0
(PID.TID 0000.0001)     0= Expl. ; 1= Impl. on provis. Vel ; 2= Fully Impl (with surf.P)
(PID.TID 0000.0001)     ;
(PID.TID 0000.0001) metricTerms =  /* metric-Terms on/off flag */
(PID.TID 0000.0001)                   F
(PID.TID 0000.0001)     ;
(PID.TID 0000.0001) useNHMTerms = /* Non-Hydrostatic Metric-Terms on/off */
(PID.TID 0000.0001)                   F
(PID.TID 0000.0001)     ;
(PID.TID 0000.0001) selectCoriMap = /* Coriolis Map options (0,1,2,3)*/
(PID.TID 0000.0001)                       2
(PID.TID 0000.0001)     0= f-Plane ; 1= Beta-Plane ; 2= Spherical ; 3= read from file
(PID.TID 0000.0001)     ;
(PID.TID 0000.0001) use3dCoriolis = /* 3-D Coriolis on/off flag */
(PID.TID 0000.0001)                   F
(PID.TID 0000.0001)     ;
(PID.TID 0000.0001) useCoriolis =  /* Coriolis on/off flag */
(PID.TID 0000.0001)                   T
(PID.TID 0000.0001)     ;
(PID.TID 0000.0001) useCDscheme =  /* CD scheme on/off flag */
(PID.TID 0000.0001)                   F
(PID.TID 0000.0001)     ;
(PID.TID 0000.0001) selectCoriScheme= /* Scheme selector for Coriolis-Term */
(PID.TID 0000.0001)                       0
(PID.TID 0000.0001)    = 0 : original discretization (simple averaging, no hFac)
(PID.TID 0000.0001)    = 1 : Wet-point averaging (Jamar & Ozer 1986)
(PID.TID 0000.0001)    = 2 : hFac weighted average (Angular Mom. conserving)
(PID.TID 0000.0001)    = 3 : energy conserving scheme using hFac weighted average
(PID.TID 0000.0001)     ;
(PID.TID 0000.0001) useAbsVorticity= /* V.I Works with f+zeta in Coriolis */
(PID.TID 0000.0001)                   F
(PID.TID 0000.0001)     ;
(PID.TID 0000.0001) selectVortScheme= /* V.I Scheme selector for Vorticity-Term */
(PID.TID 0000.0001)                       1
(PID.TID 0000.0001)    = 0 : enstrophy (Shallow-Water Eq.) conserving scheme by Sadourny, JAS 75
(PID.TID 0000.0001)    = 1 : same as 0 with modified hFac
(PID.TID 0000.0001)    = 2 : energy conserving scheme (used by Sadourny in JAS 75 paper)
(PID.TID 0000.0001)    = 3 : energy (general) and enstrophy (2D, nonDiv.) conserving scheme
(PID.TID 0000.0001)          from Sadourny (Burridge & Haseler, ECMWF Rep.4, 1977)
(PID.TID 0000.0001)     ;
(PID.TID 0000.0001) useJamartMomAdv= /* V.I Non-linear terms Jamart flag */
(PID.TID 0000.0001)                   F
(PID.TID 0000.0001)     ;
(PID.TID 0000.0001) upwindVorticity= /* V.I Upwind bias vorticity flag */
(PID.TID 0000.0001)                   F
(PID.TID 0000.0001)     ;
(PID.TID 0000.0001) highOrderVorticity= /* V.I High order vort. advect. flag */
(PID.TID 0000.0001)                   F
(PID.TID 0000.0001)     ;
(PID.TID 0000.0001) upwindShear= /* V.I Upwind vertical Shear advection flag */
(PID.TID 0000.0001)                   F
(PID.TID 0000.0001)     ;
(PID.TID 0000.0001) selectKEscheme= /* V.I Kinetic Energy scheme selector */
(PID.TID 0000.0001)                       0
(PID.TID 0000.0001)     ;
(PID.TID 0000.0001) momForcing =  /* Momentum forcing on/off flag */
(PID.TID 0000.0001)                   T
(PID.TID 0000.0001)     ;
(PID.TID 0000.0001) momTidalForcing = /* Momentum Tidal forcing on/off flag */
(PID.TID 0000.0001)                   T
(PID.TID 0000.0001)     ;
(PID.TID 0000.0001) momPressureForcing =  /* Momentum pressure term on/off flag */
(PID.TID 0000.0001)                   T
(PID.TID 0000.0001)     ;
(PID.TID 0000.0001) implicitIntGravWave= /* Implicit Internal Gravity Wave flag */
(PID.TID 0000.0001)                   F
(PID.TID 0000.0001)     ;
(PID.TID 0000.0001) staggerTimeStep =    /* Stagger time stepping on/off flag */
(PID.TID 0000.0001)                   T
(PID.TID 0000.0001)     ;
(PID.TID 0000.0001) doResetHFactors = /* reset thickness factors @ each time-step */
(PID.TID 0000.0001)                   T
(PID.TID 0000.0001)     ;
(PID.TID 0000.0001) multiDimAdvection =  /* enable/disable Multi-Dim Advection */
(PID.TID 0000.0001)                   T
(PID.TID 0000.0001)     ;
(PID.TID 0000.0001) useMultiDimAdvec =   /* Multi-Dim Advection is/is-not used */
(PID.TID 0000.0001)                   T
(PID.TID 0000.0001)     ;
(PID.TID 0000.0001) implicitDiffusion = /* Implicit Diffusion on/off flag */
(PID.TID 0000.0001)                   T
(PID.TID 0000.0001)     ;
(PID.TID 0000.0001) tempStepping =  /* Temperature equation on/off flag */
(PID.TID 0000.0001)                   T
(PID.TID 0000.0001)     ;
(PID.TID 0000.0001) tempAdvection = /* Temperature advection on/off flag */
(PID.TID 0000.0001)                   T
(PID.TID 0000.0001)     ;
(PID.TID 0000.0001) tempImplVertAdv = /* Temp. implicit vert. advection on/off */
(PID.TID 0000.0001)                   F
(PID.TID 0000.0001)     ;
(PID.TID 0000.0001) tempForcing  =  /* Temperature forcing on/off flag */
(PID.TID 0000.0001)                   T
(PID.TID 0000.0001)     ;
(PID.TID 0000.0001) balanceQnet  =  /* balance net heat-flux on/off flag */
(PID.TID 0000.0001)                   F
(PID.TID 0000.0001)     ;
(PID.TID 0000.0001) doThetaClimRelax = /* apply SST relaxation on/off flag */
(PID.TID 0000.0001)                   F
(PID.TID 0000.0001)     ;
(PID.TID 0000.0001) balanceThetaClimRelax= /* balance SST relaxation on/off flag */
(PID.TID 0000.0001)                   F
(PID.TID 0000.0001)     ;
(PID.TID 0000.0001) tempIsActiveTr = /* Temp. is a dynamically Active Tracer */
(PID.TID 0000.0001)                   T
(PID.TID 0000.0001)     ;
(PID.TID 0000.0001) saltStepping =  /* Salinity equation on/off flag */
(PID.TID 0000.0001)                   T
(PID.TID 0000.0001)     ;
(PID.TID 0000.0001) saltAdvection = /* Salinity advection on/off flag */
(PID.TID 0000.0001)                   T
(PID.TID 0000.0001)     ;
(PID.TID 0000.0001) saltImplVertAdv = /* Sali. implicit vert. advection on/off */
(PID.TID 0000.0001)                   F
(PID.TID 0000.0001)     ;
(PID.TID 0000.0001) saltForcing  =  /* Salinity forcing on/off flag */
(PID.TID 0000.0001)                   T
(PID.TID 0000.0001)     ;
(PID.TID 0000.0001) balanceEmPmR =  /* balance net fresh-water flux on/off flag */
(PID.TID 0000.0001)                   F
(PID.TID 0000.0001)     ;
(PID.TID 0000.0001) doSaltClimRelax = /* apply SSS relaxation on/off flag */
(PID.TID 0000.0001)                   F
(PID.TID 0000.0001)     ;
(PID.TID 0000.0001) balanceSaltClimRelax= /* balance SSS relaxation on/off flag */
(PID.TID 0000.0001)                   F
(PID.TID 0000.0001)     ;
(PID.TID 0000.0001) saltIsActiveTr = /* Salt  is a dynamically Active Tracer */
(PID.TID 0000.0001)                   T
(PID.TID 0000.0001)     ;
(PID.TID 0000.0001)  readBinaryPrec = /* Precision used for reading binary files */
(PID.TID 0000.0001)                      64
(PID.TID 0000.0001)     ;
(PID.TID 0000.0001) writeBinaryPrec = /* Precision used for writing binary files */
(PID.TID 0000.0001)                      32
(PID.TID 0000.0001)     ;
(PID.TID 0000.0001) balancePrintMean  =  /* print means for balancing fluxes */
(PID.TID 0000.0001)                   F
(PID.TID 0000.0001)     ;
(PID.TID 0000.0001)  rwSuffixType =   /* select format of mds file suffix */
(PID.TID 0000.0001)                       0
(PID.TID 0000.0001)    = 0 : myIter (I10.10) ;   = 1 : 100*myTime (100th sec) ;
(PID.TID 0000.0001)    = 2 : myTime (seconds);   = 3 : myTime/360 (10th of hr);
(PID.TID 0000.0001)    = 4 : myTime/3600 (hours)
(PID.TID 0000.0001)     ;
(PID.TID 0000.0001)  globalFiles = /* write "global" (=not per tile) files */
(PID.TID 0000.0001)                   F
(PID.TID 0000.0001)     ;
(PID.TID 0000.0001)  useSingleCpuIO = /* only master MPI process does I/O */
(PID.TID 0000.0001)                   F
(PID.TID 0000.0001)     ;
(PID.TID 0000.0001)  useSingleCpuInput = /* only master process reads input */
(PID.TID 0000.0001)                   F
(PID.TID 0000.0001)     ;
(PID.TID 0000.0001) /* debLev[*]  : level of debug & auxiliary message printing */
(PID.TID 0000.0001) debLevZero =  0 ; /* level of disabled aux. msg printing */
(PID.TID 0000.0001)    debLevA =  1 ; /* level of minimum  aux. msg printing */
(PID.TID 0000.0001)    debLevB =  2 ; /* level of low aux. print (report read-file opening)*/
(PID.TID 0000.0001)    debLevC =  3 ; /* level of moderate debug prt (most pkgs debug msg) */
(PID.TID 0000.0001)    debLevD =  4 ; /* level of enhanced debug prt (add DEBUG_STATS prt) */
(PID.TID 0000.0001)    debLevE =  5 ; /* level of extensive debug printing */
(PID.TID 0000.0001) debugLevel =  /* select debug printing level */
(PID.TID 0000.0001)                       1
(PID.TID 0000.0001)     ;
(PID.TID 0000.0001)  plotLevel =  /* select PLOT_FIELD printing level */
(PID.TID 0000.0001)                       1
(PID.TID 0000.0001)     ;
(PID.TID 0000.0001) //
(PID.TID 0000.0001) // Elliptic solver(s) paramters ( PARM02 in namelist )
(PID.TID 0000.0001) //
(PID.TID 0000.0001) cg2dMaxIters =   /* Upper limit on 2d con. grad iterations  */
(PID.TID 0000.0001)                     200
(PID.TID 0000.0001)     ;
(PID.TID 0000.0001) cg2dChkResFreq =   /* 2d con. grad convergence test frequency */
(PID.TID 0000.0001)                       1
(PID.TID 0000.0001)     ;
(PID.TID 0000.0001) cg2dUseMinResSol= /* use cg2d last-iter(=0) / min-resid.(=1) solution */
(PID.TID 0000.0001)                       0
(PID.TID 0000.0001)     ;
(PID.TID 0000.0001) cg2dTargetResidual =   /* 2d con. grad target residual  */
(PID.TID 0000.0001)                 1.000000000000000E-07
(PID.TID 0000.0001)     ;
(PID.TID 0000.0001) cg2dTargetResWunit =   /* CG2d target residual [W units] */
(PID.TID 0000.0001)                 1.000000000000000E-14
(PID.TID 0000.0001)     ;
(PID.TID 0000.0001) cg2dPreCondFreq =   /* Freq. for updating cg2d preconditioner */
(PID.TID 0000.0001)                       1
(PID.TID 0000.0001)     ;
(PID.TID 0000.0001) useSRCGSolver =  /* use single reduction CG solver(s) */
(PID.TID 0000.0001)                   F
(PID.TID 0000.0001)     ;
(PID.TID 0000.0001) printResidualFreq = /* Freq. for printing CG residual */
(PID.TID 0000.0001)                       0
(PID.TID 0000.0001)     ;
(PID.TID 0000.0001) //
(PID.TID 0000.0001) // Time stepping paramters ( PARM03 in namelist )
(PID.TID 0000.0001) //
(PID.TID 0000.0001) deltaTMom =   /* Momentum equation timestep ( s ) */
(PID.TID 0000.0001)                 1.200000000000000E+03
(PID.TID 0000.0001)     ;
(PID.TID 0000.0001) deltaTFreeSurf = /* FreeSurface equation timestep ( s ) */
(PID.TID 0000.0001)                 8.640000000000000E+04
(PID.TID 0000.0001)     ;
(PID.TID 0000.0001) dTtracerLev =  /* Tracer equation timestep ( s ) */
(PID.TID 0000.0001)    15 @  8.640000000000000E+04              /* K =  1: 15 */
(PID.TID 0000.0001)     ;
(PID.TID 0000.0001) deltaTClock  =   /* Model clock timestep ( s ) */
(PID.TID 0000.0001)                 8.640000000000000E+04
(PID.TID 0000.0001)     ;
(PID.TID 0000.0001) cAdjFreq =   /* Convective adjustment interval ( s ) */
(PID.TID 0000.0001)                 0.000000000000000E+00
(PID.TID 0000.0001)     ;
(PID.TID 0000.0001) momForcingOutAB = /* =1: take Momentum Forcing out of Adams-Bash. stepping */
(PID.TID 0000.0001)                       1
(PID.TID 0000.0001)     ;
(PID.TID 0000.0001) tracForcingOutAB = /* =1: take T,S,pTr Forcing out of Adams-Bash. stepping */
(PID.TID 0000.0001)                       1
(PID.TID 0000.0001)     ;
(PID.TID 0000.0001) momDissip_In_AB = /* put Dissipation Tendency in Adams-Bash. stepping */
(PID.TID 0000.0001)                   T
(PID.TID 0000.0001)     ;
(PID.TID 0000.0001) doAB_onGtGs = /* apply AB on Tendencies (rather than on T,S)*/
(PID.TID 0000.0001)                   T
(PID.TID 0000.0001)     ;
(PID.TID 0000.0001) abEps =   /* Adams-Bashforth-2 stabilizing weight */
(PID.TID 0000.0001)                 1.000000000000000E-01
(PID.TID 0000.0001)     ;
(PID.TID 0000.0001) alph_AB =   /* Adams-Bashforth-3 primary factor */
(PID.TID 0000.0001)                 6.000000000000000E-01
(PID.TID 0000.0001)     ;
(PID.TID 0000.0001) beta_AB =   /* Adams-Bashforth-3 secondary factor */
(PID.TID 0000.0001)                 0.000000000000000E+00
(PID.TID 0000.0001)     ;
(PID.TID 0000.0001) startFromPickupAB2= /* start from AB-2 pickup */
(PID.TID 0000.0001)                   F
(PID.TID 0000.0001)     ;
(PID.TID 0000.0001) applyExchUV_early = /* Apply EXCH to U,V earlier in time-step */
(PID.TID 0000.0001)                   F
(PID.TID 0000.0001)     ;
(PID.TID 0000.0001) pickupStrictlyMatch= /* stop if pickup do not strictly match */
(PID.TID 0000.0001)                   F
(PID.TID 0000.0001)     ;
(PID.TID 0000.0001) nIter0   =   /* Run starting timestep number */
(PID.TID 0000.0001)                   72000
(PID.TID 0000.0001)     ;
(PID.TID 0000.0001) nTimeSteps = /* Number of timesteps */
(PID.TID 0000.0001)                       5
(PID.TID 0000.0001)     ;
(PID.TID 0000.0001) nEndIter =   /* Run ending timestep number */
(PID.TID 0000.0001)                   72005
(PID.TID 0000.0001)     ;
(PID.TID 0000.0001) baseTime =   /* Model base time ( s ) */
(PID.TID 0000.0001)                 0.000000000000000E+00
(PID.TID 0000.0001)     ;
(PID.TID 0000.0001) startTime =  /* Run start time ( s ) */
(PID.TID 0000.0001)                 6.220800000000000E+09
(PID.TID 0000.0001)     ;
(PID.TID 0000.0001) endTime  =   /* Integration ending time ( s ) */
(PID.TID 0000.0001)                 6.221232000000000E+09
(PID.TID 0000.0001)     ;
(PID.TID 0000.0001) pChkPtFreq = /* Permanent restart/pickup file interval ( s ) */
(PID.TID 0000.0001)                 3.110400000000000E+08
(PID.TID 0000.0001)     ;
(PID.TID 0000.0001) chkPtFreq  = /* Rolling restart/pickup file interval ( s ) */
(PID.TID 0000.0001)                 3.110400000000000E+07
(PID.TID 0000.0001)     ;
(PID.TID 0000.0001) pickup_write_mdsio =   /* Model IO flag. */
(PID.TID 0000.0001)                   T
(PID.TID 0000.0001)     ;
(PID.TID 0000.0001) pickup_read_mdsio =   /* Model IO flag. */
(PID.TID 0000.0001)                   T
(PID.TID 0000.0001)     ;
(PID.TID 0000.0001) writePickupAtEnd =   /* Model IO flag. */
(PID.TID 0000.0001)                   T
(PID.TID 0000.0001)     ;
(PID.TID 0000.0001) dumpFreq =   /* Model state write out interval ( s ). */
(PID.TID 0000.0001)                 4.320000000000000E+05
(PID.TID 0000.0001)     ;
(PID.TID 0000.0001) dumpInitAndLast= /* write out Initial & Last iter. model state */
(PID.TID 0000.0001)                   T
(PID.TID 0000.0001)     ;
(PID.TID 0000.0001) snapshot_mdsio =   /* Model IO flag. */
(PID.TID 0000.0001)                   T
(PID.TID 0000.0001)     ;
(PID.TID 0000.0001) monitorFreq =   /* Monitor output interval ( s ). */
(PID.TID 0000.0001)                 1.000000000000000E+00
(PID.TID 0000.0001)     ;
(PID.TID 0000.0001) monitorSelect = /* select group of variables to monitor */
(PID.TID 0000.0001)                       3
(PID.TID 0000.0001)     ;
(PID.TID 0000.0001) monitor_stdio =   /* Model IO flag. */
(PID.TID 0000.0001)                   T
(PID.TID 0000.0001)     ;
(PID.TID 0000.0001) externForcingPeriod =   /* forcing period (s) */
(PID.TID 0000.0001)                 0.000000000000000E+00
(PID.TID 0000.0001)     ;
(PID.TID 0000.0001) externForcingCycle =   /* period of the cyle (s). */
(PID.TID 0000.0001)                 0.000000000000000E+00
(PID.TID 0000.0001)     ;
(PID.TID 0000.0001) tauThetaClimRelax =   /* relaxation time scale (s) */
(PID.TID 0000.0001)                 0.000000000000000E+00
(PID.TID 0000.0001)     ;
(PID.TID 0000.0001) tauSaltClimRelax =   /* relaxation time scale (s) */
(PID.TID 0000.0001)                 0.000000000000000E+00
(PID.TID 0000.0001)     ;
(PID.TID 0000.0001) latBandClimRelax =   /* max. Lat. where relaxation */
(PID.TID 0000.0001)                 1.800000000000000E+02
(PID.TID 0000.0001)     ;
(PID.TID 0000.0001) //
(PID.TID 0000.0001) // Gridding paramters ( PARM04 in namelist )
(PID.TID 0000.0001) //
(PID.TID 0000.0001) usingCartesianGrid = /* Cartesian coordinates flag ( True/False ) */
(PID.TID 0000.0001)                   F
(PID.TID 0000.0001)     ;
(PID.TID 0000.0001) usingCylindricalGrid = /* Cylindrical coordinates flag ( True/False ) */
(PID.TID 0000.0001)                   F
(PID.TID 0000.0001)     ;
(PID.TID 0000.0001) usingSphericalPolarGrid = /* Spherical coordinates flag ( True/False ) */
(PID.TID 0000.0001)                   F
(PID.TID 0000.0001)     ;
(PID.TID 0000.0001) usingCurvilinearGrid = /* Curvilinear coordinates flag ( True/False ) */
(PID.TID 0000.0001)                   T
(PID.TID 0000.0001)     ;
(PID.TID 0000.0001) useMin4hFacEdges = /* set hFacW,S as minimum of adjacent hFacC factor */
(PID.TID 0000.0001)                   F
(PID.TID 0000.0001)     ;
(PID.TID 0000.0001) interViscAr_pCell = /* account for partial-cell in interior vert. viscosity */
(PID.TID 0000.0001)                   F
(PID.TID 0000.0001)     ;
(PID.TID 0000.0001) interDiffKr_pCell = /* account for partial-cell in interior vert. diffusion */
(PID.TID 0000.0001)                   F
(PID.TID 0000.0001)     ;
(PID.TID 0000.0001) pCellMix_select = /* option to enhance mixing near surface & bottom */
(PID.TID 0000.0001)                       0
(PID.TID 0000.0001)     ;
(PID.TID 0000.0001) selectSigmaCoord = /* Hybrid-Sigma Vert. Coordinate option */
(PID.TID 0000.0001)                       0
(PID.TID 0000.0001)     ;
(PID.TID 0000.0001) rSigmaBnd = /* r/sigma transition ( units of r ==  m ) */
(PID.TID 0000.0001)                 1.234567000000000E+05
(PID.TID 0000.0001)     ;
(PID.TID 0000.0001) rkSign =   /* index orientation relative to vertical coordinate */
(PID.TID 0000.0001)                -1.000000000000000E+00
(PID.TID 0000.0001)     ;
(PID.TID 0000.0001) gravitySign = /* gravity orientation relative to vertical coordinate */
(PID.TID 0000.0001)                -1.000000000000000E+00
(PID.TID 0000.0001)     ;
(PID.TID 0000.0001) seaLev_Z =  /* reference height of sea-level [m] */
(PID.TID 0000.0001)                 0.000000000000000E+00
(PID.TID 0000.0001)     ;
(PID.TID 0000.0001) top_Pres =  /* reference pressure at the top [Pa] */
(PID.TID 0000.0001)                 0.000000000000000E+00
(PID.TID 0000.0001)     ;
(PID.TID 0000.0001) mass2rUnit = /* convert mass per unit area [kg/m2] to r-units [m] */
(PID.TID 0000.0001)                 9.661835748792270E-04
(PID.TID 0000.0001)     ;
(PID.TID 0000.0001) rUnit2mass = /* convert r-units [m] to mass per unit area [kg/m2] */
(PID.TID 0000.0001)                 1.035000000000000E+03
(PID.TID 0000.0001)     ;
(PID.TID 0000.0001) drC =   /* C spacing ( units of r ) */
(PID.TID 0000.0001)                 2.500000000000000E+01,      /* K =  1 */
(PID.TID 0000.0001)                 6.000000000000000E+01,      /* K =  2 */
(PID.TID 0000.0001)                 8.500000000000000E+01,      /* K =  3 */
(PID.TID 0000.0001)                 1.200000000000000E+02,      /* K =  4 */
(PID.TID 0000.0001)                 1.650000000000000E+02,      /* K =  5 */
(PID.TID 0000.0001)                 2.150000000000000E+02,      /* K =  6 */
(PID.TID 0000.0001)                 2.650000000000000E+02,      /* K =  7 */
(PID.TID 0000.0001)                 3.150000000000000E+02,      /* K =  8 */
(PID.TID 0000.0001)                 3.650000000000000E+02,      /* K =  9 */
(PID.TID 0000.0001)                 4.150000000000000E+02,      /* K = 10 */
(PID.TID 0000.0001)                 4.650000000000000E+02,      /* K = 11 */
(PID.TID 0000.0001)                 5.150000000000000E+02,      /* K = 12 */
(PID.TID 0000.0001)                 5.650000000000000E+02,      /* K = 13 */
(PID.TID 0000.0001)                 6.150000000000000E+02,      /* K = 14 */
(PID.TID 0000.0001)                 6.650000000000000E+02,      /* K = 15 */
(PID.TID 0000.0001)                 3.450000000000000E+02       /* K = 16 */
(PID.TID 0000.0001)     ;
(PID.TID 0000.0001) drF =   /* W spacing ( units of r ) */
(PID.TID 0000.0001)                 5.000000000000000E+01,      /* K =  1 */
(PID.TID 0000.0001)                 7.000000000000000E+01,      /* K =  2 */
(PID.TID 0000.0001)                 1.000000000000000E+02,      /* K =  3 */
(PID.TID 0000.0001)                 1.400000000000000E+02,      /* K =  4 */
(PID.TID 0000.0001)                 1.900000000000000E+02,      /* K =  5 */
(PID.TID 0000.0001)                 2.400000000000000E+02,      /* K =  6 */
(PID.TID 0000.0001)                 2.900000000000000E+02,      /* K =  7 */
(PID.TID 0000.0001)                 3.400000000000000E+02,      /* K =  8 */
(PID.TID 0000.0001)                 3.900000000000000E+02,      /* K =  9 */
(PID.TID 0000.0001)                 4.400000000000000E+02,      /* K = 10 */
(PID.TID 0000.0001)                 4.900000000000000E+02,      /* K = 11 */
(PID.TID 0000.0001)                 5.400000000000000E+02,      /* K = 12 */
(PID.TID 0000.0001)                 5.900000000000000E+02,      /* K = 13 */
(PID.TID 0000.0001)                 6.400000000000000E+02,      /* K = 14 */
(PID.TID 0000.0001)                 6.900000000000000E+02       /* K = 15 */
(PID.TID 0000.0001)     ;
(PID.TID 0000.0001) radius_fromHorizGrid = /* sphere Radius of input horiz. grid */
(PID.TID 0000.0001)                 6.370000000000000E+06
(PID.TID 0000.0001)     ;
(PID.TID 0000.0001) rSphere =  /* Radius ( ignored - cartesian, m - spherical ) */
(PID.TID 0000.0001)                 6.370000000000000E+06
(PID.TID 0000.0001)     ;
(PID.TID 0000.0001) deepAtmosphere = /* Deep/Shallow Atmosphere flag (True/False) */
(PID.TID 0000.0001)                   F
(PID.TID 0000.0001)     ;
(PID.TID 0000.0001) xC =  /* xC(:,1,:,1) : P-point X coord ( deg. or m if cartesian) */
(PID.TID 0000.0001)                -4.439521994760536E+01,      /* I =  1 */
(PID.TID 0000.0001)                -4.295641272275883E+01,      /* I =  2 */
(PID.TID 0000.0001)                -4.122055553388957E+01,      /* I =  3 */
(PID.TID 0000.0001)      . . .
(PID.TID 0000.0001)                 1.312205555338896E+02,      /* I = 94 */
(PID.TID 0000.0001)                 1.329564127227588E+02,      /* I = 95 */
(PID.TID 0000.0001)                 1.343952199476053E+02,      /* I = 96 */
(PID.TID 0000.0001)                 4.635509675007168E+01,      /* I = 97 */
(PID.TID 0000.0001)                 4.906731228843647E+01,      /* I = 98 */
(PID.TID 0000.0001)                 5.178550688214704E+01,      /* I = 99 */
(PID.TID 0000.0001)      . . .
(PID.TID 0000.0001)                -1.778001716525716E+02,      /* I =190 */
(PID.TID 0000.0001)                -1.779288225675308E+02,      /* I =191 */
(PID.TID 0000.0001)                -1.780367200854751E+02,      /* I =192 */
(PID.TID 0000.0001)                 1.356047800523947E+02,      /* I =193 */
(PID.TID 0000.0001)                 1.358367907661329E+02,      /* I =194 */
(PID.TID 0000.0001)                 1.359720382181193E+02,      /* I =195 */
(PID.TID 0000.0001)      . . .
(PID.TID 0000.0001)                -1.340279617818807E+02,      /* I =286 */
(PID.TID 0000.0001)                -1.341632092338671E+02,      /* I =287 */
(PID.TID 0000.0001)                -1.343952199476053E+02,      /* I =288 */
(PID.TID 0000.0001)                -8.812739148696656E+01,      /* I =289 */
(PID.TID 0000.0001)                -8.820362659721324E+01,      /* I =290 */
(PID.TID 0000.0001)                -8.826768106944316E+01,      /* I =291 */
(PID.TID 0000.0001)      . . .
(PID.TID 0000.0001)                 8.780017165257156E+01,      /* I =382 */
(PID.TID 0000.0001)                 8.792882256753080E+01,      /* I =383 */
(PID.TID 0000.0001)                 8.803672008547504E+01       /* I =384 */
(PID.TID 0000.0001)     ;
(PID.TID 0000.0001) yC =  /* yC(1,:,1,:) : P-point Y coord ( deg. or m if cartesian) */
(PID.TID 0000.0001)                -3.497677942598243E+01,      /* J =  1 */
(PID.TID 0000.0001)                -3.374005967394886E+01,      /* J =  2 */
(PID.TID 0000.0001)                -3.220655175667454E+01,      /* J =  3 */
(PID.TID 0000.0001)                -3.045756348838641E+01,      /* J =  4 */
(PID.TID 0000.0001)                -2.853728129852918E+01,      /* J =  5 */
(PID.TID 0000.0001)                -2.647426640173173E+01,      /* J =  6 */
(PID.TID 0000.0001)                -2.428936657094636E+01,      /* J =  7 */
(PID.TID 0000.0001)                -2.199915808312262E+01,      /* J =  8 */
(PID.TID 0000.0001)                -1.961768597440146E+01,      /* J =  9 */
(PID.TID 0000.0001)                -1.715743888281371E+01,      /* J = 10 */
(PID.TID 0000.0001)                -1.462993396899330E+01,      /* J = 11 */
(PID.TID 0000.0001)                -1.204608340464756E+01,      /* J = 12 */
(PID.TID 0000.0001)                -9.416429130284818E+00,      /* J = 13 */
(PID.TID 0000.0001)                -6.751293662992216E+00,      /* J = 14 */
(PID.TID 0000.0001)                -4.060875511835959E+00,      /* J = 15 */
(PID.TID 0000.0001)                -1.355307764409121E+00       /* J = 16 */
(PID.TID 0000.0001)     ;
(PID.TID 0000.0001) rcoord = /* P-point R coordinate (  units of r ) */
(PID.TID 0000.0001)                -2.500000000000000E+01,      /* K =  1 */
(PID.TID 0000.0001)                -8.500000000000000E+01,      /* K =  2 */
(PID.TID 0000.0001)                -1.700000000000000E+02,      /* K =  3 */
(PID.TID 0000.0001)                -2.900000000000000E+02,      /* K =  4 */
(PID.TID 0000.0001)                -4.550000000000000E+02,      /* K =  5 */
(PID.TID 0000.0001)                -6.700000000000000E+02,      /* K =  6 */
(PID.TID 0000.0001)                -9.350000000000000E+02,      /* K =  7 */
(PID.TID 0000.0001)                -1.250000000000000E+03,      /* K =  8 */
(PID.TID 0000.0001)                -1.615000000000000E+03,      /* K =  9 */
(PID.TID 0000.0001)                -2.030000000000000E+03,      /* K = 10 */
(PID.TID 0000.0001)                -2.495000000000000E+03,      /* K = 11 */
(PID.TID 0000.0001)                -3.010000000000000E+03,      /* K = 12 */
(PID.TID 0000.0001)                -3.575000000000000E+03,      /* K = 13 */
(PID.TID 0000.0001)                -4.190000000000000E+03,      /* K = 14 */
(PID.TID 0000.0001)                -4.855000000000000E+03       /* K = 15 */
(PID.TID 0000.0001)     ;
(PID.TID 0000.0001) rF =   /* W-Interf. R coordinate (  units of r ) */
(PID.TID 0000.0001)                 0.000000000000000E+00,      /* K =  1 */
(PID.TID 0000.0001)                -5.000000000000000E+01,      /* K =  2 */
(PID.TID 0000.0001)                -1.200000000000000E+02,      /* K =  3 */
(PID.TID 0000.0001)                -2.200000000000000E+02,      /* K =  4 */
(PID.TID 0000.0001)                -3.600000000000000E+02,      /* K =  5 */
(PID.TID 0000.0001)                -5.500000000000000E+02,      /* K =  6 */
(PID.TID 0000.0001)                -7.900000000000000E+02,      /* K =  7 */
(PID.TID 0000.0001)                -1.080000000000000E+03,      /* K =  8 */
(PID.TID 0000.0001)                -1.420000000000000E+03,      /* K =  9 */
(PID.TID 0000.0001)                -1.810000000000000E+03,      /* K = 10 */
(PID.TID 0000.0001)                -2.250000000000000E+03,      /* K = 11 */
(PID.TID 0000.0001)                -2.740000000000000E+03,      /* K = 12 */
(PID.TID 0000.0001)                -3.280000000000000E+03,      /* K = 13 */
(PID.TID 0000.0001)                -3.870000000000000E+03,      /* K = 14 */
(PID.TID 0000.0001)                -4.510000000000000E+03,      /* K = 15 */
(PID.TID 0000.0001)                -5.200000000000000E+03       /* K = 16 */
(PID.TID 0000.0001)     ;
(PID.TID 0000.0001) deepFacC = /* deep-model grid factor @ cell-Center (-) */
(PID.TID 0000.0001)    15 @  1.000000000000000E+00              /* K =  1: 15 */
(PID.TID 0000.0001)     ;
(PID.TID 0000.0001) deepFacF = /* deep-model grid factor @ W-Interface (-) */
(PID.TID 0000.0001)    16 @  1.000000000000000E+00              /* K =  1: 16 */
(PID.TID 0000.0001)     ;
(PID.TID 0000.0001) rVel2wUnit = /* convert units: rVel -> wSpeed (=1 if z-coord)*/
(PID.TID 0000.0001)    16 @  1.000000000000000E+00              /* K =  1: 16 */
(PID.TID 0000.0001)     ;
(PID.TID 0000.0001) wUnit2rVel = /* convert units: wSpeed -> rVel (=1 if z-coord)*/
(PID.TID 0000.0001)    16 @  1.000000000000000E+00              /* K =  1: 16 */
(PID.TID 0000.0001)     ;
(PID.TID 0000.0001) dBdrRef = /* Vertical grad. of reference buoyancy [(m/s/r)^2] */
(PID.TID 0000.0001)    15 @  0.000000000000000E+00              /* K =  1: 15 */
(PID.TID 0000.0001)     ;
(PID.TID 0000.0001) rotateGrid = /* use rotated grid ( True/False ) */
(PID.TID 0000.0001)                   F
(PID.TID 0000.0001)     ;
(PID.TID 0000.0001) phiEuler = /* Euler angle, rotation about original z-coordinate [rad] */
(PID.TID 0000.0001)                 0.000000000000000E+00
(PID.TID 0000.0001)     ;
(PID.TID 0000.0001) thetaEuler = /* Euler angle, rotation about new x-coordinate [rad] */
(PID.TID 0000.0001)                 0.000000000000000E+00
(PID.TID 0000.0001)     ;
(PID.TID 0000.0001) psiEuler = /* Euler angle, rotation about new z-coordinate [rad] */
(PID.TID 0000.0001)                 0.000000000000000E+00
(PID.TID 0000.0001)     ;
(PID.TID 0000.0001) dxF =  /* dxF(:,1,:,1) ( units: m ) */
(PID.TID 0000.0001)                 1.202082051331828E+05,      /* I =  1 */
(PID.TID 0000.0001)                 1.563594089971120E+05,      /* I =  2 */
(PID.TID 0000.0001)                 1.835530058121492E+05,      /* I =  3 */
(PID.TID 0000.0001)      . . .
(PID.TID 0000.0001)                 1.835530058121492E+05,      /* I = 94 */
(PID.TID 0000.0001)                 1.563594089971120E+05,      /* I = 95 */
(PID.TID 0000.0001)                 1.202082051331828E+05,      /* I = 96 */
(PID.TID 0000.0001)                 3.012844832048790E+05,      /* I = 97 */
(PID.TID 0000.0001)                 3.017314519159184E+05,      /* I = 98 */
(PID.TID 0000.0001)                 3.026061571839506E+05,      /* I = 99 */
(PID.TID 0000.0001)      . . .
(PID.TID 0000.0001)                 3.026061571839506E+05,      /* I =190 */
(PID.TID 0000.0001)                 3.017314519159184E+05,      /* I =191 */
(PID.TID 0000.0001)                 3.012844832048790E+05,      /* I =192 */
(PID.TID 0000.0001)                 1.202082051331828E+05,      /* I =193 */
(PID.TID 0000.0001)                 1.563594089971120E+05,      /* I =194 */
(PID.TID 0000.0001)                 1.835530058121492E+05,      /* I =195 */
(PID.TID 0000.0001)      . . .
(PID.TID 0000.0001)                 1.835530058121492E+05,      /* I =286 */
(PID.TID 0000.0001)                 1.563594089971120E+05,      /* I =287 */
(PID.TID 0000.0001)                 1.202082051331828E+05,      /* I =288 */
(PID.TID 0000.0001)                 3.012844832048790E+05,      /* I =289 */
(PID.TID 0000.0001)                 3.017314519159184E+05,      /* I =290 */
(PID.TID 0000.0001)                 3.026061571839506E+05,      /* I =291 */
(PID.TID 0000.0001)      . . .
(PID.TID 0000.0001)                 3.026061571839506E+05,      /* I =382 */
(PID.TID 0000.0001)                 3.017314519159184E+05,      /* I =383 */
(PID.TID 0000.0001)                 3.012844832048790E+05       /* I =384 */
(PID.TID 0000.0001)     ;
(PID.TID 0000.0001) dxF =  /* dxF(1,:,1,:) ( units: m ) */
(PID.TID 0000.0001)                 1.202082051331828E+05,      /* J =  1 */
(PID.TID 0000.0001)                 1.572908084538706E+05,      /* J =  2 */
(PID.TID 0000.0001)                 1.840412227747703E+05,      /* J =  3 */
(PID.TID 0000.0001)                 2.048868197919576E+05,      /* J =  4 */
(PID.TID 0000.0001)                 2.220405216043041E+05,      /* J =  5 */
(PID.TID 0000.0001)                 2.365892017348392E+05,      /* J =  6 */
(PID.TID 0000.0001)                 2.491250781852558E+05,      /* J =  7 */
(PID.TID 0000.0001)                 2.599949918261881E+05,      /* J =  8 */
(PID.TID 0000.0001)                 2.694110134598581E+05,      /* J =  9 */
(PID.TID 0000.0001)                 2.775055554645015E+05,      /* J = 10 */
(PID.TID 0000.0001)                 2.843615645344775E+05,      /* J = 11 */
(PID.TID 0000.0001)                 2.900303768613599E+05,      /* J = 12 */
(PID.TID 0000.0001)                 2.945429307892709E+05,      /* J = 13 */
(PID.TID 0000.0001)                 2.979171143158405E+05,      /* J = 14 */
(PID.TID 0000.0001)                 3.001626787528886E+05,      /* J = 15 */
(PID.TID 0000.0001)                 3.012844832048790E+05       /* J = 16 */
(PID.TID 0000.0001)     ;
(PID.TID 0000.0001) dyF =  /* dyF(:,1,:,1) ( units: m ) */
(PID.TID 0000.0001)                 1.202082051331828E+05,      /* I =  1 */
(PID.TID 0000.0001)                 1.572908084538706E+05,      /* I =  2 */
(PID.TID 0000.0001)                 1.840412227747703E+05,      /* I =  3 */
(PID.TID 0000.0001)      . . .
(PID.TID 0000.0001)                 1.840412227747703E+05,      /* I = 94 */
(PID.TID 0000.0001)                 1.572908084538706E+05,      /* I = 95 */
(PID.TID 0000.0001)                 1.202082051331828E+05,      /* I = 96 */
(PID.TID 0000.0001)                 3.012190981969055E+05,      /* I = 97 */
(PID.TID 0000.0001)                 3.016675528553907E+05,      /* I = 98 */
(PID.TID 0000.0001)                 3.025451404065074E+05,      /* I = 99 */
(PID.TID 0000.0001)      . . .
(PID.TID 0000.0001)                 3.025451404065074E+05,      /* I =190 */
(PID.TID 0000.0001)                 3.016675528553907E+05,      /* I =191 */
(PID.TID 0000.0001)                 3.012190981969055E+05,      /* I =192 */
(PID.TID 0000.0001)                 1.202082051331828E+05,      /* I =193 */
(PID.TID 0000.0001)                 1.572908084538706E+05,      /* I =194 */
(PID.TID 0000.0001)                 1.840412227747703E+05,      /* I =195 */
(PID.TID 0000.0001)      . . .
(PID.TID 0000.0001)                 1.840412227747703E+05,      /* I =286 */
(PID.TID 0000.0001)                 1.572908084538706E+05,      /* I =287 */
(PID.TID 0000.0001)                 1.202082051331828E+05,      /* I =288 */
(PID.TID 0000.0001)                 3.012190981969055E+05,      /* I =289 */
(PID.TID 0000.0001)                 3.016675528553907E+05,      /* I =290 */
(PID.TID 0000.0001)                 3.025451404065074E+05,      /* I =291 */
(PID.TID 0000.0001)      . . .
(PID.TID 0000.0001)                 3.025451404065074E+05,      /* I =382 */
(PID.TID 0000.0001)                 3.016675528553907E+05,      /* I =383 */
(PID.TID 0000.0001)                 3.012190981969055E+05       /* I =384 */
(PID.TID 0000.0001)     ;
(PID.TID 0000.0001) dyF =  /* dyF(1,:,1,:) ( units: m ) */
(PID.TID 0000.0001)                 1.202082051331828E+05,      /* J =  1 */
(PID.TID 0000.0001)                 1.563594089971120E+05,      /* J =  2 */
(PID.TID 0000.0001)                 1.835530058121492E+05,      /* J =  3 */
(PID.TID 0000.0001)                 2.045883481718707E+05,      /* J =  4 */
(PID.TID 0000.0001)                 2.218350349844185E+05,      /* J =  5 */
(PID.TID 0000.0001)                 2.364352994647058E+05,      /* J =  6 */
(PID.TID 0000.0001)                 2.490022710862746E+05,      /* J =  7 */
(PID.TID 0000.0001)                 2.598919724358304E+05,      /* J =  8 */
(PID.TID 0000.0001)                 2.693210245495156E+05,      /* J =  9 */
(PID.TID 0000.0001)                 2.774243179696503E+05,      /* J = 10 */
(PID.TID 0000.0001)                 2.842862532064524E+05,      /* J = 11 */
(PID.TID 0000.0001)                 2.899590699694043E+05,      /* J = 12 */
(PID.TID 0000.0001)                 2.944742915095688E+05,      /* J = 13 */
(PID.TID 0000.0001)                 2.978501920522794E+05,      /* J = 14 */
(PID.TID 0000.0001)                 3.000967749619962E+05,      /* J = 15 */
(PID.TID 0000.0001)                 3.012190981969055E+05       /* J = 16 */
(PID.TID 0000.0001)     ;
(PID.TID 0000.0001) dxG =  /* dxG(:,1,:,1) ( units: m ) */
(PID.TID 0000.0001)                 1.009837800879055E+05,      /* I =  1 */
(PID.TID 0000.0001)                 1.534505834330338E+05,      /* I =  2 */
(PID.TID 0000.0001)                 1.823321598773926E+05,      /* I =  3 */
(PID.TID 0000.0001)      . . .
(PID.TID 0000.0001)                 1.823321598773926E+05,      /* I = 94 */
(PID.TID 0000.0001)                 1.534505834330338E+05,      /* I = 95 */
(PID.TID 0000.0001)                 1.009837800879055E+05,      /* I = 96 */
(PID.TID 0000.0001)                 3.014246674484008E+05,      /* I = 97 */
(PID.TID 0000.0001)                 3.018694497480782E+05,      /* I = 98 */
(PID.TID 0000.0001)                 3.027399364062562E+05,      /* I = 99 */
(PID.TID 0000.0001)      . . .
(PID.TID 0000.0001)                 3.027399364062562E+05,      /* I =190 */
(PID.TID 0000.0001)                 3.018694497480782E+05,      /* I =191 */
(PID.TID 0000.0001)                 3.014246674484008E+05,      /* I =192 */
(PID.TID 0000.0001)                 1.009837800879055E+05,      /* I =193 */
(PID.TID 0000.0001)                 1.534505834330338E+05,      /* I =194 */
(PID.TID 0000.0001)                 1.823321598773926E+05,      /* I =195 */
(PID.TID 0000.0001)      . . .
(PID.TID 0000.0001)                 1.823321598773926E+05,      /* I =286 */
(PID.TID 0000.0001)                 1.534505834330338E+05,      /* I =287 */
(PID.TID 0000.0001)                 1.009837800879055E+05,      /* I =288 */
(PID.TID 0000.0001)                 3.014246674484008E+05,      /* I =289 */
(PID.TID 0000.0001)                 3.018694497480782E+05,      /* I =290 */
(PID.TID 0000.0001)                 3.027399364062562E+05,      /* I =291 */
(PID.TID 0000.0001)      . . .
(PID.TID 0000.0001)                 3.027399364062562E+05,      /* I =382 */
(PID.TID 0000.0001)                 3.018694497480782E+05,      /* I =383 */
(PID.TID 0000.0001)                 3.014246674484008E+05       /* I =384 */
(PID.TID 0000.0001)     ;
(PID.TID 0000.0001) dxG =  /* dxG(1,:,1,:) ( units: m ) */
(PID.TID 0000.0001)                 1.009837800879055E+05,      /* J =  1 */
(PID.TID 0000.0001)                 1.403701524205398E+05,      /* J =  2 */
(PID.TID 0000.0001)                 1.716197227386011E+05,      /* J =  3 */
(PID.TID 0000.0001)                 1.950254041626018E+05,      /* J =  4 */
(PID.TID 0000.0001)                 2.138410773065497E+05,      /* J =  5 */
(PID.TID 0000.0001)                 2.295958105911512E+05,      /* J =  6 */
(PID.TID 0000.0001)                 2.430829951739083E+05,      /* J =  7 */
(PID.TID 0000.0001)                 2.547526806712889E+05,      /* J =  8 */
(PID.TID 0000.0001)                 2.648750305193301E+05,      /* J =  9 */
(PID.TID 0000.0001)                 2.736173771018112E+05,      /* J = 10 */
(PID.TID 0000.0001)                 2.810845823202647E+05,      /* J = 11 */
(PID.TID 0000.0001)                 2.873420591008078E+05,      /* J = 12 */
(PID.TID 0000.0001)                 2.924298293668651E+05,      /* J = 13 */
(PID.TID 0000.0001)                 2.963715635865306E+05,      /* J = 14 */
(PID.TID 0000.0001)                 2.991805843171258E+05,      /* J = 15 */
(PID.TID 0000.0001)                 3.008638765647886E+05       /* J = 16 */
(PID.TID 0000.0001)     ;
(PID.TID 0000.0001) dyG =  /* dyG(:,1,:,1) ( units: m ) */
(PID.TID 0000.0001)                 1.009837800879055E+05,      /* I =  1 */
(PID.TID 0000.0001)                 1.403701524205398E+05,      /* I =  2 */
(PID.TID 0000.0001)                 1.716197227386011E+05,      /* I =  3 */
(PID.TID 0000.0001)      . . .
(PID.TID 0000.0001)                 1.950254041626018E+05,      /* I = 94 */
(PID.TID 0000.0001)                 1.716197227386011E+05,      /* I = 95 */
(PID.TID 0000.0001)                 1.403701524205398E+05,      /* I = 96 */
(PID.TID 0000.0001)                 3.011625828699101E+05,      /* I = 97 */
(PID.TID 0000.0001)                 3.013880313304323E+05,      /* I = 98 */
(PID.TID 0000.0001)                 3.020546438966793E+05,      /* I = 99 */
(PID.TID 0000.0001)      . . .
(PID.TID 0000.0001)                 3.031337933484788E+05,      /* I =190 */
(PID.TID 0000.0001)                 3.020546438966793E+05,      /* I =191 */
(PID.TID 0000.0001)                 3.013880313304323E+05,      /* I =192 */
(PID.TID 0000.0001)                 1.009837800879055E+05,      /* I =193 */
(PID.TID 0000.0001)                 1.403701524205398E+05,      /* I =194 */
(PID.TID 0000.0001)                 1.716197227386011E+05,      /* I =195 */
(PID.TID 0000.0001)      . . .
(PID.TID 0000.0001)                 1.950254041626018E+05,      /* I =286 */
(PID.TID 0000.0001)                 1.716197227386011E+05,      /* I =287 */
(PID.TID 0000.0001)                 1.403701524205398E+05,      /* I =288 */
(PID.TID 0000.0001)                 3.011625828699101E+05,      /* I =289 */
(PID.TID 0000.0001)                 3.013880313304323E+05,      /* I =290 */
(PID.TID 0000.0001)                 3.020546438966793E+05,      /* I =291 */
(PID.TID 0000.0001)      . . .
(PID.TID 0000.0001)                 3.031337933484788E+05,      /* I =382 */
(PID.TID 0000.0001)                 3.020546438966793E+05,      /* I =383 */
(PID.TID 0000.0001)                 3.013880313304323E+05       /* I =384 */
(PID.TID 0000.0001)     ;
(PID.TID 0000.0001) dyG =  /* dyG(1,:,1,:) ( units: m ) */
(PID.TID 0000.0001)                 1.009837800879055E+05,      /* J =  1 */
(PID.TID 0000.0001)                 1.534505834330338E+05,      /* J =  2 */
(PID.TID 0000.0001)                 1.823321598773926E+05,      /* J =  3 */
(PID.TID 0000.0001)                 2.038999045536999E+05,      /* J =  4 */
(PID.TID 0000.0001)                 2.213884732245467E+05,      /* J =  5 */
(PID.TID 0000.0001)                 2.361211699596122E+05,      /* J =  6 */
(PID.TID 0000.0001)                 2.487693460283865E+05,      /* J =  7 */
(PID.TID 0000.0001)                 2.597126963772147E+05,      /* J =  8 */
(PID.TID 0000.0001)                 2.691790288994575E+05,      /* J =  9 */
(PID.TID 0000.0001)                 2.773091043277394E+05,      /* J = 10 */
(PID.TID 0000.0001)                 2.841906470085516E+05,      /* J = 11 */
(PID.TID 0000.0001)                 2.898778860929753E+05,      /* J = 12 */
(PID.TID 0000.0001)                 2.944035815526416E+05,      /* J = 13 */
(PID.TID 0000.0001)                 2.977867909042096E+05,      /* J = 14 */
(PID.TID 0000.0001)                 3.000380090330854E+05,      /* J = 15 */
(PID.TID 0000.0001)                 3.011625828699101E+05       /* J = 16 */
(PID.TID 0000.0001)     ;
(PID.TID 0000.0001) dxC =  /* dxC(:,1,:,1) ( units: m ) */
(PID.TID 0000.0001)                 1.114203141013064E+05,      /* I =  1 */
(PID.TID 0000.0001)                 1.391343389937106E+05,      /* I =  2 */
(PID.TID 0000.0001)                 1.709574999026266E+05,      /* I =  3 */
(PID.TID 0000.0001)      . . .
(PID.TID 0000.0001)                 1.946503699269892E+05,      /* I = 94 */
(PID.TID 0000.0001)                 1.709574999026266E+05,      /* I = 95 */
(PID.TID 0000.0001)                 1.391343389937106E+05,      /* I = 96 */
(PID.TID 0000.0001)                 3.012281885409289E+05,      /* I = 97 */
(PID.TID 0000.0001)                 3.014528555318499E+05,      /* I = 98 */
(PID.TID 0000.0001)                 3.021172674809921E+05,      /* I = 99 */
(PID.TID 0000.0001)      . . .
(PID.TID 0000.0001)                 3.031928954490276E+05,      /* I =190 */
(PID.TID 0000.0001)                 3.021172674809921E+05,      /* I =191 */
(PID.TID 0000.0001)                 3.014528555318499E+05,      /* I =192 */
(PID.TID 0000.0001)                 1.114203141013064E+05,      /* I =193 */
(PID.TID 0000.0001)                 1.391343389937106E+05,      /* I =194 */
(PID.TID 0000.0001)                 1.709574999026266E+05,      /* I =195 */
(PID.TID 0000.0001)      . . .
(PID.TID 0000.0001)                 1.946503699269892E+05,      /* I =286 */
(PID.TID 0000.0001)                 1.709574999026266E+05,      /* I =287 */
(PID.TID 0000.0001)                 1.391343389937106E+05,      /* I =288 */
(PID.TID 0000.0001)                 3.012281885409289E+05,      /* I =289 */
(PID.TID 0000.0001)                 3.014528555318499E+05,      /* I =290 */
(PID.TID 0000.0001)                 3.021172674809921E+05,      /* I =291 */
(PID.TID 0000.0001)      . . .
(PID.TID 0000.0001)                 3.031928954490276E+05,      /* I =382 */
(PID.TID 0000.0001)                 3.021172674809921E+05,      /* I =383 */
(PID.TID 0000.0001)                 3.014528555318499E+05       /* I =384 */
(PID.TID 0000.0001)     ;
(PID.TID 0000.0001) dxC =  /* dxC(1,:,1,:) ( units: m ) */
(PID.TID 0000.0001)                 1.114203141013064E+05,      /* J =  1 */
(PID.TID 0000.0001)                 1.549545757850771E+05,      /* J =  2 */
(PID.TID 0000.0001)                 1.829777599966776E+05,      /* J =  3 */
(PID.TID 0000.0001)                 2.042717761866506E+05,      /* J =  4 */
(PID.TID 0000.0001)                 2.216367828252819E+05,      /* J =  5 */
(PID.TID 0000.0001)                 2.363029564123586E+05,      /* J =  6 */
(PID.TID 0000.0001)                 2.489113743322025E+05,      /* J =  7 */
(PID.TID 0000.0001)                 2.598293319150326E+05,      /* J =  8 */
(PID.TID 0000.0001)                 2.692787333338535E+05,      /* J =  9 */
(PID.TID 0000.0001)                 2.773972106720365E+05,      /* J = 10 */
(PID.TID 0000.0001)                 2.842706922224557E+05,      /* J = 11 */
(PID.TID 0000.0001)                 2.899523122489403E+05,      /* J = 12 */
(PID.TID 0000.0001)                 2.944741346384699E+05,      /* J = 13 */
(PID.TID 0000.0001)                 2.978547649292580E+05,      /* J = 14 */
(PID.TID 0000.0001)                 3.001044073506459E+05,      /* J = 15 */
(PID.TID 0000.0001)                 3.012281885409289E+05       /* J = 16 */
(PID.TID 0000.0001)     ;
(PID.TID 0000.0001) dyC =  /* dyC(:,1,:,1) ( units: m ) */
(PID.TID 0000.0001)                 1.114203141013064E+05,      /* I =  1 */
(PID.TID 0000.0001)                 1.549545757850771E+05,      /* I =  2 */
(PID.TID 0000.0001)                 1.829777599966776E+05,      /* I =  3 */
(PID.TID 0000.0001)      . . .
(PID.TID 0000.0001)                 1.829777599966776E+05,      /* I = 94 */
(PID.TID 0000.0001)                 1.549545757850771E+05,      /* I = 95 */
(PID.TID 0000.0001)                 1.114203141013064E+05,      /* I = 96 */
(PID.TID 0000.0001)                 3.013593857228136E+05,      /* I = 97 */
(PID.TID 0000.0001)                 3.018056440786431E+05,      /* I = 98 */
(PID.TID 0000.0001)                 3.026789946729719E+05,      /* I = 99 */
(PID.TID 0000.0001)      . . .
(PID.TID 0000.0001)                 3.026789946729719E+05,      /* I =190 */
(PID.TID 0000.0001)                 3.018056440786431E+05,      /* I =191 */
(PID.TID 0000.0001)                 3.013593857228136E+05,      /* I =192 */
(PID.TID 0000.0001)                 1.114203141013064E+05,      /* I =193 */
(PID.TID 0000.0001)                 1.549545757850771E+05,      /* I =194 */
(PID.TID 0000.0001)                 1.829777599966776E+05,      /* I =195 */
(PID.TID 0000.0001)      . . .
(PID.TID 0000.0001)                 1.829777599966776E+05,      /* I =286 */
(PID.TID 0000.0001)                 1.549545757850771E+05,      /* I =287 */
(PID.TID 0000.0001)                 1.114203141013064E+05,      /* I =288 */
(PID.TID 0000.0001)                 3.013593857228136E+05,      /* I =289 */
(PID.TID 0000.0001)                 3.018056440786431E+05,      /* I =290 */
(PID.TID 0000.0001)                 3.026789946729719E+05,      /* I =291 */
(PID.TID 0000.0001)      . . .
(PID.TID 0000.0001)                 3.026789946729719E+05,      /* I =382 */
(PID.TID 0000.0001)                 3.018056440786431E+05,      /* I =383 */
(PID.TID 0000.0001)                 3.013593857228136E+05       /* I =384 */
(PID.TID 0000.0001)     ;
(PID.TID 0000.0001) dyC =  /* dyC(1,:,1,:) ( units: m ) */
(PID.TID 0000.0001)                 1.114203141013064E+05,      /* J =  1 */
(PID.TID 0000.0001)                 1.391343389937106E+05,      /* J =  2 */
(PID.TID 0000.0001)                 1.709574999026266E+05,      /* J =  3 */
(PID.TID 0000.0001)                 1.946503699269892E+05,      /* J =  4 */
(PID.TID 0000.0001)                 2.135964483342134E+05,      /* J =  5 */
(PID.TID 0000.0001)                 2.294195678257306E+05,      /* J =  6 */
(PID.TID 0000.0001)                 2.429464709770498E+05,      /* J =  7 */
(PID.TID 0000.0001)                 2.546408290696998E+05,      /* J =  8 */
(PID.TID 0000.0001)                 2.647791839299727E+05,      /* J =  9 */
(PID.TID 0000.0001)                 2.735321911346108E+05,      /* J = 10 */
(PID.TID 0000.0001)                 2.810065951609633E+05,      /* J = 11 */
(PID.TID 0000.0001)                 2.872689479506990E+05,      /* J = 12 */
(PID.TID 0000.0001)                 2.923599955312932E+05,      /* J = 13 */
(PID.TID 0000.0001)                 2.963038832565530E+05,      /* J = 14 */
(PID.TID 0000.0001)                 2.991142470004740E+05,      /* J = 15 */
(PID.TID 0000.0001)                 3.007982711627968E+05       /* J = 16 */
(PID.TID 0000.0001)     ;
(PID.TID 0000.0001) dxV =  /* dxV(:,1,:,1) ( units: m ) */
(PID.TID 0000.0001)                 8.015229982413632E+04,      /* I =  1 */
(PID.TID 0000.0001)                 1.333130744933864E+05,      /* I =  2 */
(PID.TID 0000.0001)                 1.691744868129062E+05,      /* I =  3 */
(PID.TID 0000.0001)      . . .
(PID.TID 0000.0001)                 1.937548202849060E+05,      /* I = 94 */
(PID.TID 0000.0001)                 1.691744868129062E+05,      /* I = 95 */
(PID.TID 0000.0001)                 1.333130744933864E+05,      /* I = 96 */
(PID.TID 0000.0001)                 3.013686170436881E+05,      /* I = 97 */
(PID.TID 0000.0001)                 3.015922136961168E+05,      /* I = 98 */
(PID.TID 0000.0001)                 3.022533948177109E+05,      /* I = 99 */
(PID.TID 0000.0001)      . . .
(PID.TID 0000.0001)                 3.033238888442880E+05,      /* I =190 */
(PID.TID 0000.0001)                 3.022533948177109E+05,      /* I =191 */
(PID.TID 0000.0001)                 3.015922136961168E+05,      /* I =192 */
(PID.TID 0000.0001)                 8.015229982413632E+04,      /* I =193 */
(PID.TID 0000.0001)                 1.333130744933864E+05,      /* I =194 */
(PID.TID 0000.0001)                 1.691744868129062E+05,      /* I =195 */
(PID.TID 0000.0001)      . . .
(PID.TID 0000.0001)                 1.937548202849060E+05,      /* I =286 */
(PID.TID 0000.0001)                 1.691744868129062E+05,      /* I =287 */
(PID.TID 0000.0001)                 1.333130744933864E+05,      /* I =288 */
(PID.TID 0000.0001)                 3.013686170436881E+05,      /* I =289 */
(PID.TID 0000.0001)                 3.015922136961168E+05,      /* I =290 */
(PID.TID 0000.0001)                 3.022533948177109E+05,      /* I =291 */
(PID.TID 0000.0001)      . . .
(PID.TID 0000.0001)                 3.033238888442880E+05,      /* I =382 */
(PID.TID 0000.0001)                 3.022533948177109E+05,      /* I =383 */
(PID.TID 0000.0001)                 3.015922136961168E+05       /* I =384 */
(PID.TID 0000.0001)     ;
(PID.TID 0000.0001) dxV =  /* dxV(1,:,1,:) ( units: m ) */
(PID.TID 0000.0001)                 8.015229982413632E+04,      /* J =  1 */
(PID.TID 0000.0001)                 1.362652340208229E+05,      /* J =  2 */
(PID.TID 0000.0001)                 1.701080315742101E+05,      /* J =  3 */
(PID.TID 0000.0001)                 1.942331448101592E+05,      /* J =  4 */
(PID.TID 0000.0001)                 2.133486626971531E+05,      /* J =  5 */
(PID.TID 0000.0001)                 2.292584591272880E+05,      /* J =  6 */
(PID.TID 0000.0001)                 2.428369969078989E+05,      /* J =  7 */
(PID.TID 0000.0001)                 2.545652950875683E+05,      /* J =  8 */
(PID.TID 0000.0001)                 2.647274964828301E+05,      /* J =  9 */
(PID.TID 0000.0001)                 2.734980225206389E+05,      /* J = 10 */
(PID.TID 0000.0001)                 2.809856491525217E+05,      /* J = 11 */
(PID.TID 0000.0001)                 2.872580915202295E+05,      /* J = 12 */
(PID.TID 0000.0001)                 2.923567890694162E+05,      /* J = 13 */
(PID.TID 0000.0001)                 2.963063101754721E+05,      /* J = 14 */
(PID.TID 0000.0001)                 2.991205495886625E+05,      /* J = 15 */
(PID.TID 0000.0001)                 3.008068453676764E+05       /* J = 16 */
(PID.TID 0000.0001)     ;
(PID.TID 0000.0001) dyU =  /* dyU(:,1,:,1) ( units: m ) */
(PID.TID 0000.0001)                 8.015229982413632E+04,      /* I =  1 */
(PID.TID 0000.0001)                 1.362652340208229E+05,      /* I =  2 */
(PID.TID 0000.0001)                 1.701080315742101E+05,      /* I =  3 */
(PID.TID 0000.0001)      . . .
(PID.TID 0000.0001)                 1.942331448101592E+05,      /* I = 94 */
(PID.TID 0000.0001)                 1.701080315742101E+05,      /* I = 95 */
(PID.TID 0000.0001)                 1.362652340208229E+05,      /* I = 96 */
(PID.TID 0000.0001)                 3.013031486919771E+05,      /* I = 97 */
(PID.TID 0000.0001)                 3.015274890091515E+05,      /* I = 98 */
(PID.TID 0000.0001)                 3.021908563699420E+05,      /* I = 99 */
(PID.TID 0000.0001)      . . .
(PID.TID 0000.0001)                 3.032648502024415E+05,      /* I =190 */
(PID.TID 0000.0001)                 3.021908563699420E+05,      /* I =191 */
(PID.TID 0000.0001)                 3.015274890091515E+05,      /* I =192 */
(PID.TID 0000.0001)                 8.015229982413632E+04,      /* I =193 */
(PID.TID 0000.0001)                 1.362652340208229E+05,      /* I =194 */
(PID.TID 0000.0001)                 1.701080315742101E+05,      /* I =195 */
(PID.TID 0000.0001)      . . .
(PID.TID 0000.0001)                 1.942331448101592E+05,      /* I =286 */
(PID.TID 0000.0001)                 1.701080315742101E+05,      /* I =287 */
(PID.TID 0000.0001)                 1.362652340208229E+05,      /* I =288 */
(PID.TID 0000.0001)                 3.013031486919771E+05,      /* I =289 */
(PID.TID 0000.0001)                 3.015274890091515E+05,      /* I =290 */
(PID.TID 0000.0001)                 3.021908563699420E+05,      /* I =291 */
(PID.TID 0000.0001)      . . .
(PID.TID 0000.0001)                 3.032648502024415E+05,      /* I =382 */
(PID.TID 0000.0001)                 3.021908563699420E+05,      /* I =383 */
(PID.TID 0000.0001)                 3.015274890091515E+05       /* I =384 */
(PID.TID 0000.0001)     ;
(PID.TID 0000.0001) dyU =  /* dyU(1,:,1,:) ( units: m ) */
(PID.TID 0000.0001)                 8.015229982413632E+04,      /* J =  1 */
(PID.TID 0000.0001)                 1.333130744933864E+05,      /* J =  2 */
(PID.TID 0000.0001)                 1.691744868129062E+05,      /* J =  3 */
(PID.TID 0000.0001)                 1.937548202849060E+05,      /* J =  4 */
(PID.TID 0000.0001)                 2.130490056267208E+05,      /* J =  5 */
(PID.TID 0000.0001)                 2.290479919481738E+05,      /* J =  6 */
(PID.TID 0000.0001)                 2.426774358027003E+05,      /* J =  7 */
(PID.TID 0000.0001)                 2.544372984215561E+05,      /* J =  8 */
(PID.TID 0000.0001)                 2.646201463834826E+05,      /* J =  9 */
(PID.TID 0000.0001)                 2.734046499619031E+05,      /* J = 10 */
(PID.TID 0000.0001)                 2.809019351693761E+05,      /* J = 11 */
(PID.TID 0000.0001)                 2.871811105274442E+05,      /* J = 12 */
(PID.TID 0000.0001)                 2.922844849381675E+05,      /* J = 13 */
(PID.TID 0000.0001)                 2.962371870847826E+05,      /* J = 14 */
(PID.TID 0000.0001)                 2.990534755671296E+05,      /* J = 15 */
(PID.TID 0000.0001)                 3.007409169495504E+05       /* J = 16 */
(PID.TID 0000.0001)     ;
(PID.TID 0000.0001) rA  =  /* rA (:,1,:,1) ( units: m^2 ) */
(PID.TID 0000.0001)                 1.401900702255611E+10,      /* I =  1 */
(PID.TID 0000.0001)                 2.459906945574446E+10,      /* I =  2 */
(PID.TID 0000.0001)                 3.378518544307869E+10,      /* I =  3 */
(PID.TID 0000.0001)      . . .
(PID.TID 0000.0001)                 3.378518544304265E+10,      /* I = 94 */
(PID.TID 0000.0001)                 2.459906945574446E+10,      /* I = 95 */
(PID.TID 0000.0001)                 1.401900702259215E+10,      /* I = 96 */
(PID.TID 0000.0001)                 9.076111290422060E+10,      /* I = 97 */
(PID.TID 0000.0001)                 9.103111035233499E+10,      /* I = 98 */
(PID.TID 0000.0001)                 9.156064070993231E+10,      /* I = 99 */
(PID.TID 0000.0001)      . . .
(PID.TID 0000.0001)                 9.156064070993231E+10,      /* I =190 */
(PID.TID 0000.0001)                 9.103111035233499E+10,      /* I =191 */
(PID.TID 0000.0001)                 9.076111290418457E+10,      /* I =192 */
(PID.TID 0000.0001)                 1.401900702255611E+10,      /* I =193 */
(PID.TID 0000.0001)                 2.459906945574446E+10,      /* I =194 */
(PID.TID 0000.0001)                 3.378518544307869E+10,      /* I =195 */
(PID.TID 0000.0001)      . . .
(PID.TID 0000.0001)                 3.378518544304265E+10,      /* I =286 */
(PID.TID 0000.0001)                 2.459906945574446E+10,      /* I =287 */
(PID.TID 0000.0001)                 1.401900702259215E+10,      /* I =288 */
(PID.TID 0000.0001)                 9.076111290422060E+10,      /* I =289 */
(PID.TID 0000.0001)                 9.103111035233499E+10,      /* I =290 */
(PID.TID 0000.0001)                 9.156064070993231E+10,      /* I =291 */
(PID.TID 0000.0001)      . . .
(PID.TID 0000.0001)                 9.156064070993231E+10,      /* I =382 */
(PID.TID 0000.0001)                 9.103111035233499E+10,      /* I =383 */
(PID.TID 0000.0001)                 9.076111290418457E+10       /* I =384 */
(PID.TID 0000.0001)     ;
(PID.TID 0000.0001) rA  =  /* rA (1,:,1,:) ( units: m^2 ) */
(PID.TID 0000.0001)                 1.401900702255611E+10,      /* J =  1 */
(PID.TID 0000.0001)                 2.459906945574446E+10,      /* J =  2 */
(PID.TID 0000.0001)                 3.378518544307869E+10,      /* J =  3 */
(PID.TID 0000.0001)                 4.192037169898667E+10,      /* J =  4 */
(PID.TID 0000.0001)                 4.925938996118163E+10,      /* J =  5 */
(PID.TID 0000.0001)                 5.594154126607553E+10,      /* J =  6 */
(PID.TID 0000.0001)                 6.203683527776127E+10,      /* J =  7 */
(PID.TID 0000.0001)                 6.757541173817516E+10,      /* J =  8 */
(PID.TID 0000.0001)                 7.256353271748119E+10,      /* J =  9 */
(PID.TID 0000.0001)                 7.699293007098555E+10,      /* J = 10 */
(PID.TID 0000.0001)                 8.084683449728902E+10,      /* J = 11 */
(PID.TID 0000.0001)                 8.410423102799828E+10,      /* J = 12 */
(PID.TID 0000.0001)                 8.674306976737517E+10,      /* J = 13 */
(PID.TID 0000.0001)                 8.874277443041928E+10,      /* J = 14 */
(PID.TID 0000.0001)                 9.008620045350865E+10,      /* J = 15 */
(PID.TID 0000.0001)                 9.076111290418457E+10       /* J = 16 */
(PID.TID 0000.0001)     ;
(PID.TID 0000.0001) rAw =  /* rAw(:,1,:,1) ( units: m^2 ) */
(PID.TID 0000.0001)                 1.216690346714270E+10,      /* I =  1 */
(PID.TID 0000.0001)                 1.974052138506315E+10,      /* I =  2 */
(PID.TID 0000.0001)                 2.943712825252015E+10,      /* I =  3 */
(PID.TID 0000.0001)      . . .
(PID.TID 0000.0001)                 3.801790263325260E+10,      /* I = 94 */
(PID.TID 0000.0001)                 2.943712825251114E+10,      /* I = 95 */
(PID.TID 0000.0001)                 1.974052138509018E+10,      /* I = 96 */
(PID.TID 0000.0001)                 9.071447638299399E+10,      /* I = 97 */
(PID.TID 0000.0001)                 9.085012105610597E+10,      /* I = 98 */
(PID.TID 0000.0001)                 9.125179254955583E+10,      /* I = 99 */
(PID.TID 0000.0001)      . . .
(PID.TID 0000.0001)                 9.190392048045309E+10,      /* I =190 */
(PID.TID 0000.0001)                 9.125179254954683E+10,      /* I =191 */
(PID.TID 0000.0001)                 9.085012105606993E+10,      /* I =192 */
(PID.TID 0000.0001)                 1.216690346714270E+10,      /* I =193 */
(PID.TID 0000.0001)                 1.974052138506315E+10,      /* I =194 */
(PID.TID 0000.0001)                 2.943712825252015E+10,      /* I =195 */
(PID.TID 0000.0001)      . . .
(PID.TID 0000.0001)                 3.801790263325260E+10,      /* I =286 */
(PID.TID 0000.0001)                 2.943712825251114E+10,      /* I =287 */
(PID.TID 0000.0001)                 1.974052138509018E+10,      /* I =288 */
(PID.TID 0000.0001)                 9.071447638299399E+10,      /* I =289 */
(PID.TID 0000.0001)                 9.085012105610597E+10,      /* I =290 */
(PID.TID 0000.0001)                 9.125179254955583E+10,      /* I =291 */
(PID.TID 0000.0001)      . . .
(PID.TID 0000.0001)                 9.190392048045309E+10,      /* I =382 */
(PID.TID 0000.0001)                 9.125179254954683E+10,      /* I =383 */
(PID.TID 0000.0001)                 9.085012105606993E+10       /* I =384 */
(PID.TID 0000.0001)     ;
(PID.TID 0000.0001) rAw =  /* rAw(1,:,1,:) ( units: m^2 ) */
(PID.TID 0000.0001)                 1.216690346714270E+10,      /* J =  1 */
(PID.TID 0000.0001)                 2.390126200743558E+10,      /* J =  2 */
(PID.TID 0000.0001)                 3.341968103208270E+10,      /* J =  3 */
(PID.TID 0000.0001)                 4.168532893152940E+10,      /* J =  4 */
(PID.TID 0000.0001)                 4.909074590409593E+10,      /* J =  5 */
(PID.TID 0000.0001)                 5.581203765722643E+10,      /* J =  6 */
(PID.TID 0000.0001)                 6.193257577506788E+10,      /* J =  7 */
(PID.TID 0000.0001)                 6.748840226738273E+10,      /* J =  8 */
(PID.TID 0000.0001)                 7.248875782324815E+10,      /* J =  9 */
(PID.TID 0000.0001)                 7.692702995909871E+10,      /* J = 10 */
(PID.TID 0000.0001)                 8.078743937057304E+10,      /* J = 11 */
(PID.TID 0000.0001)                 8.404959656062837E+10,      /* J = 12 */
(PID.TID 0000.0001)                 8.669186205742538E+10,      /* J = 13 */
(PID.TID 0000.0001)                 8.869393350723613E+10,      /* J = 14 */
(PID.TID 0000.0001)                 9.003884657168852E+10,      /* J = 15 */
(PID.TID 0000.0001)                 9.071447638299399E+10       /* J = 16 */
(PID.TID 0000.0001)     ;
(PID.TID 0000.0001) rAs =  /* rAs(:,1,:,1) ( units: m^2 ) */
(PID.TID 0000.0001)                 1.216690346714270E+10,      /* I =  1 */
(PID.TID 0000.0001)                 2.390126200743558E+10,      /* I =  2 */
(PID.TID 0000.0001)                 3.341968103208270E+10,      /* I =  3 */
(PID.TID 0000.0001)      . . .
(PID.TID 0000.0001)                 3.341968103208270E+10,      /* I = 94 */
(PID.TID 0000.0001)                 2.390126200743558E+10,      /* I = 95 */
(PID.TID 0000.0001)                 1.216690346714270E+10,      /* I = 96 */
(PID.TID 0000.0001)                 9.083293515008307E+10,      /* I = 97 */
(PID.TID 0000.0001)                 9.110170898494536E+10,      /* I = 98 */
(PID.TID 0000.0001)                 9.162886297688426E+10,      /* I = 99 */
(PID.TID 0000.0001)      . . .
(PID.TID 0000.0001)                 9.162886297688426E+10,      /* I =190 */
(PID.TID 0000.0001)                 9.110170898494536E+10,      /* I =191 */
(PID.TID 0000.0001)                 9.083293515008307E+10,      /* I =192 */
(PID.TID 0000.0001)                 1.216690346714270E+10,      /* I =193 */
(PID.TID 0000.0001)                 2.390126200743558E+10,      /* I =194 */
(PID.TID 0000.0001)                 3.341968103208270E+10,      /* I =195 */
(PID.TID 0000.0001)      . . .
(PID.TID 0000.0001)                 3.341968103208270E+10,      /* I =286 */
(PID.TID 0000.0001)                 2.390126200743558E+10,      /* I =287 */
(PID.TID 0000.0001)                 1.216690346714270E+10,      /* I =288 */
(PID.TID 0000.0001)                 9.083293515008307E+10,      /* I =289 */
(PID.TID 0000.0001)                 9.110170898494536E+10,      /* I =290 */
(PID.TID 0000.0001)                 9.162886297688426E+10,      /* I =291 */
(PID.TID 0000.0001)      . . .
(PID.TID 0000.0001)                 9.162886297688426E+10,      /* I =382 */
(PID.TID 0000.0001)                 9.110170898494536E+10,      /* I =383 */
(PID.TID 0000.0001)                 9.083293515008307E+10       /* I =384 */
(PID.TID 0000.0001)     ;
(PID.TID 0000.0001) rAs =  /* rAs(1,:,1,:) ( units: m^2 ) */
(PID.TID 0000.0001)                 1.216690346714270E+10,      /* J =  1 */
(PID.TID 0000.0001)                 1.974052138506315E+10,      /* J =  2 */
(PID.TID 0000.0001)                 2.943712825252015E+10,      /* J =  3 */
(PID.TID 0000.0001)                 3.801790263324359E+10,      /* J =  4 */
(PID.TID 0000.0001)                 4.571243814189866E+10,      /* J =  5 */
(PID.TID 0000.0001)                 5.269930713599979E+10,      /* J =  6 */
(PID.TID 0000.0001)                 5.907428494299063E+10,      /* J =  7 */
(PID.TID 0000.0001)                 6.488320895111514E+10,      /* J =  8 */
(PID.TID 0000.0001)                 7.014205907741882E+10,      /* J =  9 */
(PID.TID 0000.0001)                 7.484854821847499E+10,      /* J = 10 */
(PID.TID 0000.0001)                 7.898934631431560E+10,      /* J = 11 */
(PID.TID 0000.0001)                 8.254500894894537E+10,      /* J = 12 */
(PID.TID 0000.0001)                 8.549360686473492E+10,      /* J = 13 */
(PID.TID 0000.0001)                 8.781353403175085E+10,      /* J = 14 */
(PID.TID 0000.0001)                 8.948571540392021E+10,      /* J = 15 */
(PID.TID 0000.0001)                 9.049530583086168E+10       /* J = 16 */
(PID.TID 0000.0001)     ;
(PID.TID 0000.0001) globalArea = /* Integrated horizontal Area (m^2) */
(PID.TID 0000.0001)                 3.638867375081599E+14
(PID.TID 0000.0001)     ;
(PID.TID 0000.0001) hasWetCSCorners = /* Domain contains CS corners (True/False) */
(PID.TID 0000.0001)                   T
(PID.TID 0000.0001)     ;
(PID.TID 0000.0001) // =======================================================
(PID.TID 0000.0001) // End of Model config. summary
(PID.TID 0000.0001) // =======================================================
(PID.TID 0000.0001) 
(PID.TID 0000.0001) == Packages configuration : Check & print summary ==
(PID.TID 0000.0001) 
(PID.TID 0000.0001) GMREDI_CHECK: #define GMREDI
(PID.TID 0000.0001) GM_AdvForm =     /* if FALSE => use SkewFlux Form */
(PID.TID 0000.0001)                   F
(PID.TID 0000.0001)     ;
(PID.TID 0000.0001) GM_InMomAsStress = /* if TRUE => apply as Eddy Stress */
(PID.TID 0000.0001)                   F
(PID.TID 0000.0001)     ;
(PID.TID 0000.0001) GM_AdvSeparate = /* Calc Bolus & Euler Adv. separately */
(PID.TID 0000.0001)                   F
(PID.TID 0000.0001)     ;
(PID.TID 0000.0001) GM_ExtraDiag =   /* Tensor Extra Diag (line 1&2) non 0 */
(PID.TID 0000.0001)                   F
(PID.TID 0000.0001)     ;
(PID.TID 0000.0001) GM_isopycK =    /* Background Isopyc. Diffusivity [m^2/s] */
(PID.TID 0000.0001)                 1.000000000000000E+03
(PID.TID 0000.0001)     ;
(PID.TID 0000.0001) GM_skewflx*K =  /* Background GM_SkewFlx Diffusivity [m^2/s] */
(PID.TID 0000.0001)                 1.000000000000000E+03
(PID.TID 0000.0001)     ;
(PID.TID 0000.0001) GM_advec*K =    /* Backg. GM-Advec(=Bolus) Diffusivity [m^2/s]*/
(PID.TID 0000.0001)                 0.000000000000000E+00
(PID.TID 0000.0001)     ;
(PID.TID 0000.0001) GM_Kmin_horiz = /* Minimum Horizontal Diffusivity [m^2/s] */
(PID.TID 0000.0001)                 5.000000000000000E+01
(PID.TID 0000.0001)     ;
(PID.TID 0000.0001) GM_Visbeck_alpha = /* Visbeck alpha coeff. [-] */
(PID.TID 0000.0001)                 0.000000000000000E+00
(PID.TID 0000.0001)     ;
(PID.TID 0000.0001) GM_Small_Number =  /* epsilon used in slope calc */
(PID.TID 0000.0001)                 9.999999999999999E-21
(PID.TID 0000.0001)     ;
(PID.TID 0000.0001) GM_slopeSqCutoff = /* Slope^2 cut-off value */
(PID.TID 0000.0001)                 1.000000000000000E+08
(PID.TID 0000.0001)     ;
(PID.TID 0000.0001) GM_taper_scheme =  /* Type of Tapering/Clipping scheme */
(PID.TID 0000.0001)               'dm95                                    '
(PID.TID 0000.0001)     ;
(PID.TID 0000.0001) GM_maxSlope =  /* Maximum Slope (Tapering/Clipping) */
(PID.TID 0000.0001)                 1.000000000000000E-02
(PID.TID 0000.0001)     ;
(PID.TID 0000.0001) GM_facTrL2dz = /* Minimum Trans.Layer Thick. (factor of dz) */
(PID.TID 0000.0001)                 1.000000000000000E+00
(PID.TID 0000.0001)     ;
(PID.TID 0000.0001) GM_facTrL2ML = /* Max.Trans.Layer Thick. (factor of MxL Depth)*/
(PID.TID 0000.0001)                 5.000000000000000E+00
(PID.TID 0000.0001)     ;
(PID.TID 0000.0001) GM_maxTransLay = /* Maximum Transition Layer Thickness [m] */
(PID.TID 0000.0001)                 5.000000000000000E+02
(PID.TID 0000.0001)     ;
(PID.TID 0000.0001) GM_UseBVP = /* if TRUE => use bvp a la Ferrari et al. (2010) */
(PID.TID 0000.0001)                   F
(PID.TID 0000.0001)     ;
(PID.TID 0000.0001) GM_BVP_ModeNumber = /* Vertical mode number for BVP wave speed */
(PID.TID 0000.0001)                       1
(PID.TID 0000.0001)     ;
(PID.TID 0000.0001) GM_BVP_cMin = /* Minimum wave speed for BVP [m/s] */
(PID.TID 0000.0001)                 1.000000000000000E-01
(PID.TID 0000.0001)     ;
(PID.TID 0000.0001) GM_useSubMeso = /* if TRUE => use Sub-Meso param. (B.Fox-Kemper) */
(PID.TID 0000.0001)                   F
(PID.TID 0000.0001)     ;
(PID.TID 0000.0001) subMeso_Ceff = /* efficiency coeff. of Mixed-Layer Eddies [-] */
(PID.TID 0000.0001)                 7.000000000000001E-02
(PID.TID 0000.0001)     ;
(PID.TID 0000.0001) subMeso_invTau = /* inverse of Sub-Meso mixing time-scale [/s] */
(PID.TID 0000.0001)                 2.000000000000000E-06
(PID.TID 0000.0001)     ;
(PID.TID 0000.0001) subMeso_LfMin = /* minimum length-scale "Lf" [m] */
(PID.TID 0000.0001)                 1.000000000000000E+03
(PID.TID 0000.0001)     ;
(PID.TID 0000.0001) subMeso_Lmax = /* maximum grid-scale length [m] */
(PID.TID 0000.0001)                 1.100000000000000E+05
(PID.TID 0000.0001)     ;
(PID.TID 0000.0001) GM_useLeithQG = /* if TRUE => add QG Leith viscosity to GMRedi tensor */
(PID.TID 0000.0001)                   F
(PID.TID 0000.0001)     ;
(PID.TID 0000.0001) EXF_CHECK: #define ALLOW_EXF
(PID.TID 0000.0001) SEAICE_CHECK: #define ALLOW_SEAICE
(PID.TID 0000.0001) CTRL_CHECK: #define ALLOW_CTRL
(PID.TID 0000.0001) COST_CHECK: #define ALLOW_COST
(PID.TID 0000.0001) GRDCHK_CHECK: grdchk package
(PID.TID 0000.0001) GAD_CHECK: #define ALLOW_GENERIC_ADVDIFF
(PID.TID 0000.0001) // =======================================================
(PID.TID 0000.0001) // Check Model config. (CONFIG_CHECK):
(PID.TID 0000.0001) // CONFIG_CHECK : Normal End
(PID.TID 0000.0001) // =======================================================
(PID.TID 0000.0001) 
(PID.TID 0000.0001)  nRecords = 123 ; filePrec =  64 ; fileIter =     72000
(PID.TID 0000.0001)     nDims =   2 , dims:
(PID.TID 0000.0001)    1: 192   1 192
(PID.TID 0000.0001)    2:  32   1  32
(PID.TID 0000.0001)     nFlds =  11 , nFl3D =   8 , fields:
(PID.TID 0000.0001)  >Uvel    < >GuNm1   < >Vvel    < >GvNm1   < >Theta   < >GtNm1   < >Salt    < >GsNm1   < >EtaN    < >dEtaHdt < >EtaH    <
(PID.TID 0000.0001) missingVal=  1.00000000000000E+00 ; nTimRec =   0 , timeList:
(PID.TID 0000.0001) READ_MFLDS_3D_RL: read field: "Uvel    ", #   1 in fldList, rec=   1
(PID.TID 0000.0001) READ_MFLDS_3D_RL: read field: "Vvel    ", #   3 in fldList, rec=   3
(PID.TID 0000.0001) READ_MFLDS_3D_RL: read field: "Theta   ", #   5 in fldList, rec=   5
(PID.TID 0000.0001) READ_MFLDS_3D_RL: read field: "Salt    ", #   7 in fldList, rec=   7
(PID.TID 0000.0001) READ_MFLDS_3D_RL: read field: "GuNm1   ", #   2 in fldList, rec=   2
(PID.TID 0000.0001) READ_MFLDS_3D_RL: read field: "GvNm1   ", #   4 in fldList, rec=   4
(PID.TID 0000.0001) READ_MFLDS_3D_RL: read field: "EtaN    ", #   9 in fldList, rec= 121
(PID.TID 0000.0001) READ_MFLDS_3D_RL: read field: "dEtaHdt ", #  10 in fldList, rec= 122
(PID.TID 0000.0001) READ_MFLDS_3D_RL: read field: "EtaH    ", #  11 in fldList, rec= 123
(PID.TID 0000.0001) READ_MFLDS_CHECK: - normal end ; reset MFLDS file-name: pickup.0000072000
(PID.TID 0000.0001)  nRecords =  15 ; filePrec =  64 ; fileIter =     72000
(PID.TID 0000.0001)     nDims =   2 , dims:
(PID.TID 0000.0001)    1: 192   1 192
(PID.TID 0000.0001)    2:  32   1  32
(PID.TID 0000.0001)     nFlds =  15 , nFl3D =   0 , fields:
(PID.TID 0000.0001)  >siTICE  < >siYNEG  < >siHSNOW < >siUICE  < >siUICE_2< >siUICE_3< >siVICE  < >siVICE_2< >siVICE_3< >siHEFF  < >siHEFF_2< >siHEFF_3< >siAREA  < >siAREA_2< >siAREA_3<
(PID.TID 0000.0001) missingVal=  1.00000000000000E+00 ; nTimRec =   0 , timeList:
(PID.TID 0000.0001) READ_MFLDS_LEV_RL: read field: "siTICE  ", #   1 in fldList, rec=   1
(PID.TID 0000.0001) READ_MFLDS_3D_RL: read field: "siAREA  ", #  13 in fldList, rec=  13
(PID.TID 0000.0001) READ_MFLDS_3D_RL: read field: "siHEFF  ", #  10 in fldList, rec=  10
(PID.TID 0000.0001) READ_MFLDS_3D_RL: read field: "siHSNOW ", #   3 in fldList, rec=   3
(PID.TID 0000.0001) READ_MFLDS_3D_RL: read field: "siUICE  ", #   4 in fldList, rec=   4
(PID.TID 0000.0001) READ_MFLDS_3D_RL: read field: "siVICE  ", #   7 in fldList, rec=   7
(PID.TID 0000.0001) READ_MFLDS_CHECK: - normal end ; reset MFLDS file-name: pickup_seaice.0000072000
(PID.TID 0000.0001) // =======================================================
(PID.TID 0000.0001) // Begin MONITOR dynamic field statistics
(PID.TID 0000.0001) // =======================================================
(PID.TID 0000.0001) %MON time_tsnumber                =                 72000
(PID.TID 0000.0001) %MON time_secondsf                =   6.2208000000000E+09
(PID.TID 0000.0001) %MON dynstat_eta_max              =  -2.2041664480788E+00
(PID.TID 0000.0001) %MON dynstat_eta_min              =  -8.3368186317242E+00
(PID.TID 0000.0001) %MON dynstat_eta_mean             =  -3.2999269019401E+00
(PID.TID 0000.0001) %MON dynstat_eta_sd               =   8.8289254437965E-01
(PID.TID 0000.0001) %MON dynstat_eta_del2             =   2.4546251501318E-03
(PID.TID 0000.0001) %MON dynstat_uvel_max             =   2.1289733821794E-01
(PID.TID 0000.0001) %MON dynstat_uvel_min             =  -2.9128750750933E-01
(PID.TID 0000.0001) %MON dynstat_uvel_mean            =  -5.2860218230237E-04
(PID.TID 0000.0001) %MON dynstat_uvel_sd              =   1.4790330813737E-02
(PID.TID 0000.0001) %MON dynstat_uvel_del2            =   6.8248145743958E-05
(PID.TID 0000.0001) %MON dynstat_vvel_max             =   2.2199184704564E-01
(PID.TID 0000.0001) %MON dynstat_vvel_min             =  -2.0062292421344E-01
(PID.TID 0000.0001) %MON dynstat_vvel_mean            =  -4.0113294365963E-04
(PID.TID 0000.0001) %MON dynstat_vvel_sd              =   1.5242443278796E-02
(PID.TID 0000.0001) %MON dynstat_vvel_del2            =   6.3300374611828E-05
(PID.TID 0000.0001) %MON dynstat_wvel_max             =   1.0124735215525E-04
(PID.TID 0000.0001) %MON dynstat_wvel_min             =  -2.1390867107236E-04
(PID.TID 0000.0001) %MON dynstat_wvel_mean            =  -2.2881662065410E-09
(PID.TID 0000.0001) %MON dynstat_wvel_sd              =   5.3718089817332E-06
(PID.TID 0000.0001) %MON dynstat_wvel_del2            =   4.9515844278522E-08
(PID.TID 0000.0001) %MON dynstat_theta_max            =   3.1190145162975E+01
(PID.TID 0000.0001) %MON dynstat_theta_min            =  -2.0000000000000E+00
(PID.TID 0000.0001) %MON dynstat_theta_mean           =   3.0531070632180E+00
(PID.TID 0000.0001) %MON dynstat_theta_sd             =   4.9944713468841E+00
(PID.TID 0000.0001) %MON dynstat_theta_del2           =   2.9528142893868E-03
(PID.TID 0000.0001) %MON dynstat_salt_max             =   5.9479941764493E+01
(PID.TID 0000.0001) %MON dynstat_salt_min             =   1.7775579847672E+01
(PID.TID 0000.0001) %MON dynstat_salt_mean            =   3.4752520111249E+01
(PID.TID 0000.0001) %MON dynstat_salt_sd              =   4.8912632150922E-01
(PID.TID 0000.0001) %MON dynstat_salt_del2            =   1.3623675537366E-03
(PID.TID 0000.0001) %MON forcing_qnet_max             =   0.0000000000000E+00
(PID.TID 0000.0001) %MON forcing_qnet_min             =   0.0000000000000E+00
(PID.TID 0000.0001) %MON forcing_qnet_mean            =   0.0000000000000E+00
(PID.TID 0000.0001) %MON forcing_qnet_sd              =   0.0000000000000E+00
(PID.TID 0000.0001) %MON forcing_qnet_del2            =   0.0000000000000E+00
(PID.TID 0000.0001) %MON forcing_qsw_max              =   0.0000000000000E+00
(PID.TID 0000.0001) %MON forcing_qsw_min              =   0.0000000000000E+00
(PID.TID 0000.0001) %MON forcing_qsw_mean             =   0.0000000000000E+00
(PID.TID 0000.0001) %MON forcing_qsw_sd               =   0.0000000000000E+00
(PID.TID 0000.0001) %MON forcing_qsw_del2             =   0.0000000000000E+00
(PID.TID 0000.0001) %MON forcing_empmr_max            =   0.0000000000000E+00
(PID.TID 0000.0001) %MON forcing_empmr_min            =   0.0000000000000E+00
(PID.TID 0000.0001) %MON forcing_empmr_mean           =   0.0000000000000E+00
(PID.TID 0000.0001) %MON forcing_empmr_sd             =   0.0000000000000E+00
(PID.TID 0000.0001) %MON forcing_empmr_del2           =   0.0000000000000E+00
(PID.TID 0000.0001) %MON forcing_fu_max               =   0.0000000000000E+00
(PID.TID 0000.0001) %MON forcing_fu_min               =   0.0000000000000E+00
(PID.TID 0000.0001) %MON forcing_fu_mean              =   0.0000000000000E+00
(PID.TID 0000.0001) %MON forcing_fu_sd                =   0.0000000000000E+00
(PID.TID 0000.0001) %MON forcing_fu_del2              =   0.0000000000000E+00
(PID.TID 0000.0001) %MON forcing_fv_max               =   0.0000000000000E+00
(PID.TID 0000.0001) %MON forcing_fv_min               =   0.0000000000000E+00
(PID.TID 0000.0001) %MON forcing_fv_mean              =   0.0000000000000E+00
(PID.TID 0000.0001) %MON forcing_fv_sd                =   0.0000000000000E+00
(PID.TID 0000.0001) %MON forcing_fv_del2              =   0.0000000000000E+00
(PID.TID 0000.0001) %MON trAdv_CFL_u_max              =   0.0000000000000E+00
(PID.TID 0000.0001) %MON trAdv_CFL_v_max              =   0.0000000000000E+00
(PID.TID 0000.0001) %MON trAdv_CFL_w_max              =   0.0000000000000E+00
(PID.TID 0000.0001) %MON advcfl_uvel_max              =   8.3923803824552E-02
(PID.TID 0000.0001) %MON advcfl_vvel_max              =   8.3304632405312E-02
(PID.TID 0000.0001) %MON advcfl_wvel_max              =   6.9742298794914E-02
(PID.TID 0000.0001) %MON advcfl_W_hf_max              =   7.7160082019468E-02
(PID.TID 0000.0001) %MON pe_b_mean                    =   1.5559232407148E-02
(PID.TID 0000.0001) %MON ke_max                       =   4.1915507392132E-02
(PID.TID 0000.0001) %MON ke_mean                      =   2.0848176851410E-04
(PID.TID 0000.0001) %MON ke_vol                       =   1.3386015893205E+18
(PID.TID 0000.0001) %MON vort_r_min                   =  -1.2262915518822E-06
(PID.TID 0000.0001) %MON vort_r_max                   =   1.3011966935743E-06
(PID.TID 0000.0001) %MON vort_a_mean                  =  -2.0549865324846E-05
(PID.TID 0000.0001) %MON vort_a_sd                    =   7.5259723723248E-05
(PID.TID 0000.0001) %MON vort_p_mean                  =  -2.4806340990730E-05
(PID.TID 0000.0001) %MON vort_p_sd                    =   1.2827605093522E-04
(PID.TID 0000.0001) %MON surfExpan_theta_mean         =   4.0742649548195E-08
(PID.TID 0000.0001) %MON surfExpan_salt_mean          =   2.1717823146781E-08
(PID.TID 0000.0001) // =======================================================
(PID.TID 0000.0001) // End MONITOR dynamic field statistics
(PID.TID 0000.0001) // =======================================================
(PID.TID 0000.0001) // =======================================================
(PID.TID 0000.0001) // Begin MONITOR SEAICE statistics
(PID.TID 0000.0001) // =======================================================
(PID.TID 0000.0001) %MON seaice_tsnumber              =                 72000
(PID.TID 0000.0001) %MON seaice_time_sec              =   6.2208000000000E+09
(PID.TID 0000.0001) %MON seaice_uice_max              =   4.0000000000000E-01
(PID.TID 0000.0001) %MON seaice_uice_min              =  -4.0000000000000E-01
(PID.TID 0000.0001) %MON seaice_uice_mean             =  -1.4584960473672E-02
(PID.TID 0000.0001) %MON seaice_uice_sd               =   1.4252324186947E-01
(PID.TID 0000.0001) %MON seaice_uice_del2             =   7.2720843677207E-04
(PID.TID 0000.0001) %MON seaice_vice_max              =   3.7441285697502E-01
(PID.TID 0000.0001) %MON seaice_vice_min              =  -4.0000000000000E-01
(PID.TID 0000.0001) %MON seaice_vice_mean             =  -3.7542841261047E-02
(PID.TID 0000.0001) %MON seaice_vice_sd               =   1.5635165386930E-01
(PID.TID 0000.0001) %MON seaice_vice_del2             =   7.0861834440520E-04
(PID.TID 0000.0001) %MON seaice_area_max              =   1.0000000000000E+00
(PID.TID 0000.0001) %MON seaice_area_min              =   0.0000000000000E+00
(PID.TID 0000.0001) %MON seaice_area_mean             =   4.7593115319309E-02
(PID.TID 0000.0001) %MON seaice_area_sd               =   1.9132919249415E-01
(PID.TID 0000.0001) %MON seaice_area_del2             =   1.7116012833979E-03
(PID.TID 0000.0001) %MON seaice_heff_max              =   5.2000132254738E+00
(PID.TID 0000.0001) %MON seaice_heff_min              =   0.0000000000000E+00
(PID.TID 0000.0001) %MON seaice_heff_mean             =   8.4334854083991E-02
(PID.TID 0000.0001) %MON seaice_heff_sd               =   3.9995427486652E-01
(PID.TID 0000.0001) %MON seaice_heff_del2             =   2.4797179641400E-03
(PID.TID 0000.0001) %MON seaice_hsnow_max             =   0.0000000000000E+00
(PID.TID 0000.0001) %MON seaice_hsnow_min             =   0.0000000000000E+00
(PID.TID 0000.0001) %MON seaice_hsnow_mean            =   0.0000000000000E+00
(PID.TID 0000.0001) %MON seaice_hsnow_sd              =   0.0000000000000E+00
(PID.TID 0000.0001) %MON seaice_hsnow_del2            =   0.0000000000000E+00
(PID.TID 0000.0001) // =======================================================
(PID.TID 0000.0001) // End MONITOR SEAICE statistics
(PID.TID 0000.0001) // =======================================================
(PID.TID 0000.0001) whio : write lev 3 rec   1
(PID.TID 0000.0001) SOLVE_FOR_PRESSURE: putPmEinXvector =    F
 cg2d: Sum(rhs),rhsMax =   2.21291478463262E+03  2.01372754051185E+01
(PID.TID 0000.0001)      cg2d_init_res =   4.44567384440276E+01
(PID.TID 0000.0001)      cg2d_iters(min,last) =      -1      85
(PID.TID 0000.0001)      cg2d_last_res =   4.81075528559474E-07
(PID.TID 0000.0001) // =======================================================
(PID.TID 0000.0001) // Begin MONITOR dynamic field statistics
(PID.TID 0000.0001) // =======================================================
(PID.TID 0000.0001) %MON time_tsnumber                =                 72001
(PID.TID 0000.0001) %MON time_secondsf                =   6.2208864000000E+09
(PID.TID 0000.0001) %MON dynstat_eta_max              =  -2.2002367117811E+00
(PID.TID 0000.0001) %MON dynstat_eta_min              =  -8.4708591871509E+00
(PID.TID 0000.0001) %MON dynstat_eta_mean             =  -3.2913633830167E+00
(PID.TID 0000.0001) %MON dynstat_eta_sd               =   8.6181274757886E-01
(PID.TID 0000.0001) %MON dynstat_eta_del2             =   2.6604040956575E-03
(PID.TID 0000.0001) %MON dynstat_uvel_max             =   2.1315870781884E-01
(PID.TID 0000.0001) %MON dynstat_uvel_min             =  -2.9096275112340E-01
(PID.TID 0000.0001) %MON dynstat_uvel_mean            =  -5.2639817951264E-04
(PID.TID 0000.0001) %MON dynstat_uvel_sd              =   1.4787457222806E-02
(PID.TID 0000.0001) %MON dynstat_uvel_del2            =   6.8212938777851E-05
(PID.TID 0000.0001) %MON dynstat_vvel_max             =   2.2158795725866E-01
(PID.TID 0000.0001) %MON dynstat_vvel_min             =  -2.0069036703893E-01
(PID.TID 0000.0001) %MON dynstat_vvel_mean            =  -4.0085700436532E-04
(PID.TID 0000.0001) %MON dynstat_vvel_sd              =   1.5243715704955E-02
(PID.TID 0000.0001) %MON dynstat_vvel_del2            =   6.3225029681893E-05
(PID.TID 0000.0001) %MON dynstat_wvel_max             =   1.0165529037444E-04
(PID.TID 0000.0001) %MON dynstat_wvel_min             =  -2.1363764804590E-04
(PID.TID 0000.0001) %MON dynstat_wvel_mean            =  -4.7500821626560E-08
(PID.TID 0000.0001) %MON dynstat_wvel_sd              =   5.3822551936131E-06
(PID.TID 0000.0001) %MON dynstat_wvel_del2            =   4.9753749247343E-08
(PID.TID 0000.0001) %MON dynstat_theta_max            =   3.1189589760393E+01
(PID.TID 0000.0001) %MON dynstat_theta_min            =  -3.4735689571597E+00
(PID.TID 0000.0001) %MON dynstat_theta_mean           =   3.0530765690041E+00
(PID.TID 0000.0001) %MON dynstat_theta_sd             =   4.9949379215593E+00
(PID.TID 0000.0001) %MON dynstat_theta_del2           =   2.9505178238309E-03
(PID.TID 0000.0001) %MON dynstat_salt_max             =   5.8465879361843E+01
(PID.TID 0000.0001) %MON dynstat_salt_min             =   1.7775797127033E+01
(PID.TID 0000.0001) %MON dynstat_salt_mean            =   3.4752446323497E+01
(PID.TID 0000.0001) %MON dynstat_salt_sd              =   4.8897557311866E-01
(PID.TID 0000.0001) %MON dynstat_salt_del2            =   1.3340933228713E-03
(PID.TID 0000.0001) %MON forcing_qnet_max             =   3.1816705524203E+03
(PID.TID 0000.0001) %MON forcing_qnet_min             =  -2.5031225998834E+02
(PID.TID 0000.0001) %MON forcing_qnet_mean            =   5.3974228578428E+00
(PID.TID 0000.0001) %MON forcing_qnet_sd              =   2.3638893283503E+02
(PID.TID 0000.0001) %MON forcing_qnet_del2            =   5.1969102284547E+00
(PID.TID 0000.0001) %MON forcing_qsw_max              =   0.0000000000000E+00
(PID.TID 0000.0001) %MON forcing_qsw_min              =  -3.0191527312954E+02
(PID.TID 0000.0001) %MON forcing_qsw_mean             =  -1.8243261285050E+02
(PID.TID 0000.0001) %MON forcing_qsw_sd               =   7.9864997331198E+01
(PID.TID 0000.0001) %MON forcing_qsw_del2             =   3.2963236410942E-01
(PID.TID 0000.0001) %MON forcing_empmr_max            =   1.4617630761920E-03
(PID.TID 0000.0001) %MON forcing_empmr_min            =  -9.1579234388485E-03
(PID.TID 0000.0001) %MON forcing_empmr_mean           =  -1.0258382043646E-04
(PID.TID 0000.0001) %MON forcing_empmr_sd             =   6.3954412167461E-04
(PID.TID 0000.0001) %MON forcing_empmr_del2           =   1.5222213493219E-05
(PID.TID 0000.0001) %MON forcing_fu_max               =   2.4760613571392E-01
(PID.TID 0000.0001) %MON forcing_fu_min               =  -2.9720558541057E-01
(PID.TID 0000.0001) %MON forcing_fu_mean              =  -4.8574762239531E-03
(PID.TID 0000.0001) %MON forcing_fu_sd                =   6.5597819869577E-02
(PID.TID 0000.0001) %MON forcing_fu_del2              =   2.5132883213106E-04
(PID.TID 0000.0001) %MON forcing_fv_max               =   2.5281098043587E-01
(PID.TID 0000.0001) %MON forcing_fv_min               =  -3.2691992401999E-01
(PID.TID 0000.0001) %MON forcing_fv_mean              =  -1.3320871311147E-02
(PID.TID 0000.0001) %MON forcing_fv_sd                =   7.6108888525108E-02
(PID.TID 0000.0001) %MON forcing_fv_del2              =   2.5878175496687E-04
(PID.TID 0000.0001) %MON trAdv_CFL_u_max              =   8.2059801251855E-02
(PID.TID 0000.0001) %MON trAdv_CFL_v_max              =   8.8598131864991E-02
(PID.TID 0000.0001) %MON trAdv_CFL_w_max              =   7.7062319419706E-02
(PID.TID 0000.0001) %MON advcfl_uvel_max              =   8.4001327604748E-02
(PID.TID 0000.0001) %MON advcfl_vvel_max              =   8.3382260618412E-02
(PID.TID 0000.0001) %MON advcfl_wvel_max              =   6.9653935061002E-02
(PID.TID 0000.0001) %MON advcfl_W_hf_max              =   7.7062319419706E-02
(PID.TID 0000.0001) %MON pe_b_mean                    =   1.4388713578686E-02
(PID.TID 0000.0001) %MON ke_max                       =   4.1793164343641E-02
(PID.TID 0000.0001) %MON ke_mean                      =   2.0845953667126E-04
(PID.TID 0000.0001) %MON ke_vol                       =   1.3386016457284E+18
(PID.TID 0000.0001) %MON vort_r_min                   =  -1.2311066223703E-06
(PID.TID 0000.0001) %MON vort_r_max                   =   1.2986356401359E-06
(PID.TID 0000.0001) %MON vort_a_mean                  =  -2.0549865324846E-05
(PID.TID 0000.0001) %MON vort_a_sd                    =   7.5259723668428E-05
(PID.TID 0000.0001) %MON vort_p_mean                  =  -2.4806339598239E-05
(PID.TID 0000.0001) %MON vort_p_sd                    =   1.2827603480084E-04
(PID.TID 0000.0001) %MON surfExpan_theta_mean         =   2.5716263645132E-08
(PID.TID 0000.0001) %MON surfExpan_salt_mean          =   1.1006186592483E-07
(PID.TID 0000.0001) // =======================================================
(PID.TID 0000.0001) // End MONITOR dynamic field statistics
(PID.TID 0000.0001) // =======================================================
(PID.TID 0000.0001) // =======================================================
(PID.TID 0000.0001) // Begin MONITOR SEAICE statistics
(PID.TID 0000.0001) // =======================================================
(PID.TID 0000.0001) %MON seaice_tsnumber              =                 72001
(PID.TID 0000.0001) %MON seaice_time_sec              =   6.2208864000000E+09
(PID.TID 0000.0001) %MON seaice_uice_max              =   4.0000000000000E-01
(PID.TID 0000.0001) %MON seaice_uice_min              =  -4.0000000000000E-01
(PID.TID 0000.0001) %MON seaice_uice_mean             =  -1.4634499218377E-02
(PID.TID 0000.0001) %MON seaice_uice_sd               =   1.4253329272489E-01
(PID.TID 0000.0001) %MON seaice_uice_del2             =   7.2742407146839E-04
(PID.TID 0000.0001) %MON seaice_vice_max              =   3.7309509524963E-01
(PID.TID 0000.0001) %MON seaice_vice_min              =  -4.0000000000000E-01
(PID.TID 0000.0001) %MON seaice_vice_mean             =  -3.7477548827354E-02
(PID.TID 0000.0001) %MON seaice_vice_sd               =   1.5648047049028E-01
(PID.TID 0000.0001) %MON seaice_vice_del2             =   7.0866812684509E-04
(PID.TID 0000.0001) %MON seaice_area_max              =   1.0000000000000E+00
(PID.TID 0000.0001) %MON seaice_area_min              =   0.0000000000000E+00
(PID.TID 0000.0001) %MON seaice_area_mean             =   4.0212824908588E-02
(PID.TID 0000.0001) %MON seaice_area_sd               =   1.8443227293750E-01
(PID.TID 0000.0001) %MON seaice_area_del2             =   1.6806090565726E-03
(PID.TID 0000.0001) %MON seaice_heff_max              =   5.1870108242973E+00
(PID.TID 0000.0001) %MON seaice_heff_min              =   0.0000000000000E+00
(PID.TID 0000.0001) %MON seaice_heff_mean             =   7.4976934522161E-02
(PID.TID 0000.0001) %MON seaice_heff_sd               =   3.8997000234202E-01
(PID.TID 0000.0001) %MON seaice_heff_del2             =   2.3122573953966E-03
(PID.TID 0000.0001) %MON seaice_hsnow_max             =   5.0439985670719E-03
(PID.TID 0000.0001) %MON seaice_hsnow_min             =   0.0000000000000E+00
(PID.TID 0000.0001) %MON seaice_hsnow_mean            =   8.4010922745971E-05
(PID.TID 0000.0001) %MON seaice_hsnow_sd              =   4.7234444427737E-04
(PID.TID 0000.0001) %MON seaice_hsnow_del2            =   5.4997593417980E-06
(PID.TID 0000.0001) // =======================================================
(PID.TID 0000.0001) // End MONITOR SEAICE statistics
(PID.TID 0000.0001) // =======================================================
 cg2d: Sum(rhs),rhsMax =   2.21288691540957E+03  2.05338888896341E+01
(PID.TID 0000.0001)      cg2d_init_res =   1.93897142019242E+01
(PID.TID 0000.0001)      cg2d_iters(min,last) =      -1      74
(PID.TID 0000.0001)      cg2d_last_res =   5.02070756420771E-07
(PID.TID 0000.0001) // =======================================================
(PID.TID 0000.0001) // Begin MONITOR dynamic field statistics
(PID.TID 0000.0001) // =======================================================
(PID.TID 0000.0001) %MON time_tsnumber                =                 72002
(PID.TID 0000.0001) %MON time_secondsf                =   6.2209728000000E+09
(PID.TID 0000.0001) %MON dynstat_eta_max              =  -2.2007713705357E+00
(PID.TID 0000.0001) %MON dynstat_eta_min              =  -8.5762334688806E+00
(PID.TID 0000.0001) %MON dynstat_eta_mean             =  -3.2913219319220E+00
(PID.TID 0000.0001) %MON dynstat_eta_sd               =   8.6160027236976E-01
(PID.TID 0000.0001) %MON dynstat_eta_del2             =   2.6964569850315E-03
(PID.TID 0000.0001) %MON dynstat_uvel_max             =   2.1337011060454E-01
(PID.TID 0000.0001) %MON dynstat_uvel_min             =  -2.9060032918163E-01
(PID.TID 0000.0001) %MON dynstat_uvel_mean            =  -5.2437581862848E-04
(PID.TID 0000.0001) %MON dynstat_uvel_sd              =   1.4785518971556E-02
(PID.TID 0000.0001) %MON dynstat_uvel_del2            =   6.8167811182813E-05
(PID.TID 0000.0001) %MON dynstat_vvel_max             =   2.2111447171381E-01
(PID.TID 0000.0001) %MON dynstat_vvel_min             =  -2.0075338726006E-01
(PID.TID 0000.0001) %MON dynstat_vvel_mean            =  -4.0006142796589E-04
(PID.TID 0000.0001) %MON dynstat_vvel_sd              =   1.5245768497137E-02
(PID.TID 0000.0001) %MON dynstat_vvel_del2            =   6.3150258537273E-05
(PID.TID 0000.0001) %MON dynstat_wvel_max             =   1.0217026730868E-04
(PID.TID 0000.0001) %MON dynstat_wvel_min             =  -2.1365825371081E-04
(PID.TID 0000.0001) %MON dynstat_wvel_mean            =  -1.1508482791117E-09
(PID.TID 0000.0001) %MON dynstat_wvel_sd              =   5.3828451663303E-06
(PID.TID 0000.0001) %MON dynstat_wvel_del2            =   4.9680135129119E-08
(PID.TID 0000.0001) %MON dynstat_theta_max            =   3.1188526493258E+01
(PID.TID 0000.0001) %MON dynstat_theta_min            =  -3.2443730960213E+00
(PID.TID 0000.0001) %MON dynstat_theta_mean           =   3.0532411639176E+00
(PID.TID 0000.0001) %MON dynstat_theta_sd             =   4.9952367083837E+00
(PID.TID 0000.0001) %MON dynstat_theta_del2           =   2.9305948499705E-03
(PID.TID 0000.0001) %MON dynstat_salt_max             =   5.8614957874624E+01
(PID.TID 0000.0001) %MON dynstat_salt_min             =   1.7775998853677E+01
(PID.TID 0000.0001) %MON dynstat_salt_mean            =   3.4752447925446E+01
(PID.TID 0000.0001) %MON dynstat_salt_sd              =   4.8899480801177E-01
(PID.TID 0000.0001) %MON dynstat_salt_del2            =   1.3285317300137E-03
(PID.TID 0000.0001) %MON forcing_qnet_max             =   5.9942992434752E+02
(PID.TID 0000.0001) %MON forcing_qnet_min             =  -4.8294755887803E+02
(PID.TID 0000.0001) %MON forcing_qnet_mean            =  -3.0309937854510E+01
(PID.TID 0000.0001) %MON forcing_qnet_sd              =   1.2117848676919E+02
(PID.TID 0000.0001) %MON forcing_qnet_del2            =   8.7426769333633E-01
(PID.TID 0000.0001) %MON forcing_qsw_max              =   0.0000000000000E+00
(PID.TID 0000.0001) %MON forcing_qsw_min              =  -3.0190327619373E+02
(PID.TID 0000.0001) %MON forcing_qsw_mean             =  -1.8424060482366E+02
(PID.TID 0000.0001) %MON forcing_qsw_sd               =   7.9756897958948E+01
(PID.TID 0000.0001) %MON forcing_qsw_del2             =   3.1467844928516E-01
(PID.TID 0000.0001) %MON forcing_empmr_max            =   2.1542705535434E-03
(PID.TID 0000.0001) %MON forcing_empmr_min            =  -7.1936796894967E-04
(PID.TID 0000.0001) %MON forcing_empmr_mean           =  -4.9654957156725E-07
(PID.TID 0000.0001) %MON forcing_empmr_sd             =   7.5696621346875E-05
(PID.TID 0000.0001) %MON forcing_empmr_del2           =   1.6277489003905E-06
(PID.TID 0000.0001) %MON forcing_fu_max               =   2.4755808644372E-01
(PID.TID 0000.0001) %MON forcing_fu_min               =  -2.8135545344750E-01
(PID.TID 0000.0001) %MON forcing_fu_mean              =  -4.7985377966664E-03
(PID.TID 0000.0001) %MON forcing_fu_sd                =   6.5257923062666E-02
(PID.TID 0000.0001) %MON forcing_fu_del2              =   2.4206215678016E-04
(PID.TID 0000.0001) %MON forcing_fv_max               =   2.5549422200851E-01
(PID.TID 0000.0001) %MON forcing_fv_min               =  -3.2770782795392E-01
(PID.TID 0000.0001) %MON forcing_fv_mean              =  -1.3290510700464E-02
(PID.TID 0000.0001) %MON forcing_fv_sd                =   7.6027175510984E-02
(PID.TID 0000.0001) %MON forcing_fv_del2              =   2.5708140564645E-04
(PID.TID 0000.0001) %MON trAdv_CFL_u_max              =   8.1957582413283E-02
(PID.TID 0000.0001) %MON trAdv_CFL_v_max              =   8.8678544068986E-02
(PID.TID 0000.0001) %MON trAdv_CFL_w_max              =   7.7069842909097E-02
(PID.TID 0000.0001) %MON advcfl_uvel_max              =   8.4085499044591E-02
(PID.TID 0000.0001) %MON advcfl_vvel_max              =   8.3457805266419E-02
(PID.TID 0000.0001) %MON advcfl_wvel_max              =   6.9660653285336E-02
(PID.TID 0000.0001) %MON advcfl_W_hf_max              =   7.7069842909097E-02
(PID.TID 0000.0001) %MON pe_b_mean                    =   1.4383159912591E-02
(PID.TID 0000.0001) %MON ke_max                       =   4.1665632243529E-02
(PID.TID 0000.0001) %MON ke_mean                      =   2.0846095575946E-04
(PID.TID 0000.0001) %MON ke_vol                       =   1.3386047618794E+18
(PID.TID 0000.0001) %MON vort_r_min                   =  -1.2362813404453E-06
(PID.TID 0000.0001) %MON vort_r_max                   =   1.2969163987921E-06
(PID.TID 0000.0001) %MON vort_a_mean                  =  -2.0549865324846E-05
(PID.TID 0000.0001) %MON vort_a_sd                    =   7.5259723706714E-05
(PID.TID 0000.0001) %MON vort_p_mean                  =  -2.4806281848365E-05
(PID.TID 0000.0001) %MON vort_p_sd                    =   1.2827526423317E-04
(PID.TID 0000.0001) %MON surfExpan_theta_mean         =  -4.6417561595609E-08
(PID.TID 0000.0001) %MON surfExpan_salt_mean          =   1.2127498122821E-08
(PID.TID 0000.0001) // =======================================================
(PID.TID 0000.0001) // End MONITOR dynamic field statistics
(PID.TID 0000.0001) // =======================================================
(PID.TID 0000.0001) // =======================================================
(PID.TID 0000.0001) // Begin MONITOR SEAICE statistics
(PID.TID 0000.0001) // =======================================================
(PID.TID 0000.0001) %MON seaice_tsnumber              =                 72002
(PID.TID 0000.0001) %MON seaice_time_sec              =   6.2209728000000E+09
(PID.TID 0000.0001) %MON seaice_uice_max              =   4.0000000000000E-01
(PID.TID 0000.0001) %MON seaice_uice_min              =  -4.0000000000000E-01
(PID.TID 0000.0001) %MON seaice_uice_mean             =  -1.4591043360509E-02
(PID.TID 0000.0001) %MON seaice_uice_sd               =   1.4244645961712E-01
(PID.TID 0000.0001) %MON seaice_uice_del2             =   7.2669292722322E-04
(PID.TID 0000.0001) %MON seaice_vice_max              =   3.6864375343040E-01
(PID.TID 0000.0001) %MON seaice_vice_min              =  -4.0000000000000E-01
(PID.TID 0000.0001) %MON seaice_vice_mean             =  -3.7487114487165E-02
(PID.TID 0000.0001) %MON seaice_vice_sd               =   1.5668670191145E-01
(PID.TID 0000.0001) %MON seaice_vice_del2             =   7.0926495887660E-04
(PID.TID 0000.0001) %MON seaice_area_max              =   1.0000000000000E+00
(PID.TID 0000.0001) %MON seaice_area_min              =   0.0000000000000E+00
(PID.TID 0000.0001) %MON seaice_area_mean             =   4.0651684935451E-02
(PID.TID 0000.0001) %MON seaice_area_sd               =   1.8679037212387E-01
(PID.TID 0000.0001) %MON seaice_area_del2             =   1.6806855776404E-03
(PID.TID 0000.0001) %MON seaice_heff_max              =   5.1925956726978E+00
(PID.TID 0000.0001) %MON seaice_heff_min              =   0.0000000000000E+00
(PID.TID 0000.0001) %MON seaice_heff_mean             =   7.5314952338177E-02
(PID.TID 0000.0001) %MON seaice_heff_sd               =   3.9147088799358E-01
(PID.TID 0000.0001) %MON seaice_heff_del2             =   2.3043985923857E-03
(PID.TID 0000.0001) %MON seaice_hsnow_max             =   9.9155277483078E-03
(PID.TID 0000.0001) %MON seaice_hsnow_min             =  -6.6174449004242E-24
(PID.TID 0000.0001) %MON seaice_hsnow_mean            =   1.6737619445100E-04
(PID.TID 0000.0001) %MON seaice_hsnow_sd              =   9.4136126434594E-04
(PID.TID 0000.0001) %MON seaice_hsnow_del2            =   1.1084283965363E-05
(PID.TID 0000.0001) // =======================================================
(PID.TID 0000.0001) // End MONITOR SEAICE statistics
(PID.TID 0000.0001) // =======================================================
 cg2d: Sum(rhs),rhsMax =   2.21267837814144E+03  2.07023143972986E+01
(PID.TID 0000.0001)      cg2d_init_res =   1.99828265653867E+01
(PID.TID 0000.0001)      cg2d_iters(min,last) =      -1      74
(PID.TID 0000.0001)      cg2d_last_res =   5.01434358460781E-07
(PID.TID 0000.0001) // =======================================================
(PID.TID 0000.0001) // Begin MONITOR dynamic field statistics
(PID.TID 0000.0001) // =======================================================
(PID.TID 0000.0001) %MON time_tsnumber                =                 72003
(PID.TID 0000.0001) %MON time_secondsf                =   6.2210592000000E+09
(PID.TID 0000.0001) %MON dynstat_eta_max              =  -2.2021281546774E+00
(PID.TID 0000.0001) %MON dynstat_eta_min              =  -8.6118495526142E+00
(PID.TID 0000.0001) %MON dynstat_eta_mean             =  -3.2910117654696E+00
(PID.TID 0000.0001) %MON dynstat_eta_sd               =   8.6053608353241E-01
(PID.TID 0000.0001) %MON dynstat_eta_del2             =   2.6804936573440E-03
(PID.TID 0000.0001) %MON dynstat_uvel_max             =   2.1354838727622E-01
(PID.TID 0000.0001) %MON dynstat_uvel_min             =  -2.9020998524125E-01
(PID.TID 0000.0001) %MON dynstat_uvel_mean            =  -5.2309606949676E-04
(PID.TID 0000.0001) %MON dynstat_uvel_sd              =   1.4784134640968E-02
(PID.TID 0000.0001) %MON dynstat_uvel_del2            =   6.8122386334455E-05
(PID.TID 0000.0001) %MON dynstat_vvel_max             =   2.2057778493555E-01
(PID.TID 0000.0001) %MON dynstat_vvel_min             =  -2.0081302239650E-01
(PID.TID 0000.0001) %MON dynstat_vvel_mean            =  -3.9846396744820E-04
(PID.TID 0000.0001) %MON dynstat_vvel_sd              =   1.5249022436548E-02
(PID.TID 0000.0001) %MON dynstat_vvel_del2            =   6.3079543999086E-05
(PID.TID 0000.0001) %MON dynstat_wvel_max             =   1.0280222992503E-04
(PID.TID 0000.0001) %MON dynstat_wvel_min             =  -2.1357230590191E-04
(PID.TID 0000.0001) %MON dynstat_wvel_mean            =  -2.3277190327669E-09
(PID.TID 0000.0001) %MON dynstat_wvel_sd              =   5.4078790449217E-06
(PID.TID 0000.0001) %MON dynstat_wvel_del2            =   4.9997927331778E-08
(PID.TID 0000.0001) %MON dynstat_theta_max            =   3.1186977755035E+01
(PID.TID 0000.0001) %MON dynstat_theta_min            =  -3.2805307091628E+00
(PID.TID 0000.0001) %MON dynstat_theta_mean           =   3.0534091861951E+00
(PID.TID 0000.0001) %MON dynstat_theta_sd             =   4.9955441406775E+00
(PID.TID 0000.0001) %MON dynstat_theta_del2           =   2.9171030603342E-03
(PID.TID 0000.0001) %MON dynstat_salt_max             =   5.8576977411150E+01
(PID.TID 0000.0001) %MON dynstat_salt_min             =   1.7776185379146E+01
(PID.TID 0000.0001) %MON dynstat_salt_mean            =   3.4752444577317E+01
(PID.TID 0000.0001) %MON dynstat_salt_sd              =   4.8892553845736E-01
(PID.TID 0000.0001) %MON dynstat_salt_del2            =   1.3201452816734E-03
(PID.TID 0000.0001) %MON forcing_qnet_max             =   6.0105415903448E+02
(PID.TID 0000.0001) %MON forcing_qnet_min             =  -2.6530870107632E+02
(PID.TID 0000.0001) %MON forcing_qnet_mean            =  -2.9318209976638E+01
(PID.TID 0000.0001) %MON forcing_qnet_sd              =   1.2058843174725E+02
(PID.TID 0000.0001) %MON forcing_qnet_del2            =   9.0080995753971E-01
(PID.TID 0000.0001) %MON forcing_qsw_max              =   0.0000000000000E+00
(PID.TID 0000.0001) %MON forcing_qsw_min              =  -3.0189127925792E+02
(PID.TID 0000.0001) %MON forcing_qsw_mean             =  -1.8430404866637E+02
(PID.TID 0000.0001) %MON forcing_qsw_sd               =   7.9672660137169E+01
(PID.TID 0000.0001) %MON forcing_qsw_del2             =   3.0618698863794E-01
(PID.TID 0000.0001) %MON forcing_empmr_max            =   9.2755219627894E-04
(PID.TID 0000.0001) %MON forcing_empmr_min            =  -7.7868537403169E-04
(PID.TID 0000.0001) %MON forcing_empmr_mean           =  -3.7155356283014E-06
(PID.TID 0000.0001) %MON forcing_empmr_sd             =   6.5532235292528E-05
(PID.TID 0000.0001) %MON forcing_empmr_del2           =   1.6109064945672E-06
(PID.TID 0000.0001) %MON forcing_fu_max               =   2.4751003717351E-01
(PID.TID 0000.0001) %MON forcing_fu_min               =  -2.8699037907548E-01
(PID.TID 0000.0001) %MON forcing_fu_mean              =  -4.7313172388351E-03
(PID.TID 0000.0001) %MON forcing_fu_sd                =   6.5314710341987E-02
(PID.TID 0000.0001) %MON forcing_fu_del2              =   2.4510348113656E-04
(PID.TID 0000.0001) %MON forcing_fv_max               =   2.5817746358114E-01
(PID.TID 0000.0001) %MON forcing_fv_min               =  -3.2849573188785E-01
(PID.TID 0000.0001) %MON forcing_fv_mean              =  -1.3332608317654E-02
(PID.TID 0000.0001) %MON forcing_fv_sd                =   7.6027917725429E-02
(PID.TID 0000.0001) %MON forcing_fv_del2              =   2.5642460820690E-04
(PID.TID 0000.0001) %MON trAdv_CFL_u_max              =   8.1847503994131E-02
(PID.TID 0000.0001) %MON trAdv_CFL_v_max              =   8.8755898954585E-02
(PID.TID 0000.0001) %MON trAdv_CFL_w_max              =   7.7038871556198E-02
(PID.TID 0000.0001) %MON advcfl_uvel_max              =   8.4186033952165E-02
(PID.TID 0000.0001) %MON advcfl_vvel_max              =   8.3530633567517E-02
(PID.TID 0000.0001) %MON advcfl_wvel_max              =   6.9632631056320E-02
(PID.TID 0000.0001) %MON advcfl_W_hf_max              =   7.7038871556198E-02
(PID.TID 0000.0001) %MON pe_b_mean                    =   1.4377846985566E-02
(PID.TID 0000.0001) %MON ke_max                       =   4.1535620864912E-02
(PID.TID 0000.0001) %MON ke_mean                      =   2.0848697321620E-04
(PID.TID 0000.0001) %MON ke_vol                       =   1.3386047769629E+18
(PID.TID 0000.0001) %MON vort_r_min                   =  -1.2417645039228E-06
(PID.TID 0000.0001) %MON vort_r_max                   =   1.2952326770936E-06
(PID.TID 0000.0001) %MON vort_a_mean                  =  -2.0549865324846E-05
(PID.TID 0000.0001) %MON vort_a_sd                    =   7.5259723788490E-05
(PID.TID 0000.0001) %MON vort_p_mean                  =  -2.4806281024998E-05
(PID.TID 0000.0001) %MON vort_p_sd                    =   1.2827527461224E-04
(PID.TID 0000.0001) %MON surfExpan_theta_mean         =  -5.4372133044506E-08
(PID.TID 0000.0001) %MON surfExpan_salt_mean          =   1.5357693004430E-08
(PID.TID 0000.0001) // =======================================================
(PID.TID 0000.0001) // End MONITOR dynamic field statistics
(PID.TID 0000.0001) // =======================================================
(PID.TID 0000.0001) // =======================================================
(PID.TID 0000.0001) // Begin MONITOR SEAICE statistics
(PID.TID 0000.0001) // =======================================================
(PID.TID 0000.0001) %MON seaice_tsnumber              =                 72003
(PID.TID 0000.0001) %MON seaice_time_sec              =   6.2210592000000E+09
(PID.TID 0000.0001) %MON seaice_uice_max              =   4.0000000000000E-01
(PID.TID 0000.0001) %MON seaice_uice_min              =  -4.0000000000000E-01
(PID.TID 0000.0001) %MON seaice_uice_mean             =  -1.4513727973525E-02
(PID.TID 0000.0001) %MON seaice_uice_sd               =   1.4236740417023E-01
(PID.TID 0000.0001) %MON seaice_uice_del2             =   7.2715950152416E-04
(PID.TID 0000.0001) %MON seaice_vice_max              =   3.6446055580966E-01
(PID.TID 0000.0001) %MON seaice_vice_min              =  -4.0000000000000E-01
(PID.TID 0000.0001) %MON seaice_vice_mean             =  -3.7528844263756E-02
(PID.TID 0000.0001) %MON seaice_vice_sd               =   1.5680190380410E-01
(PID.TID 0000.0001) %MON seaice_vice_del2             =   7.0819049205073E-04
(PID.TID 0000.0001) %MON seaice_area_max              =   1.0000000000000E+00
(PID.TID 0000.0001) %MON seaice_area_min              =   0.0000000000000E+00
(PID.TID 0000.0001) %MON seaice_area_mean             =   4.0738929992032E-02
(PID.TID 0000.0001) %MON seaice_area_sd               =   1.8831143828765E-01
(PID.TID 0000.0001) %MON seaice_area_del2             =   1.6490096014060E-03
(PID.TID 0000.0001) %MON seaice_heff_max              =   5.1961666235275E+00
(PID.TID 0000.0001) %MON seaice_heff_min              =   0.0000000000000E+00
(PID.TID 0000.0001) %MON seaice_heff_mean             =   7.5345021680402E-02
(PID.TID 0000.0001) %MON seaice_heff_sd               =   3.9251732431367E-01
(PID.TID 0000.0001) %MON seaice_heff_del2             =   2.2888274166191E-03
(PID.TID 0000.0001) %MON seaice_hsnow_max             =   1.4851083552022E-02
(PID.TID 0000.0001) %MON seaice_hsnow_min             =  -8.9683101716788E-44
(PID.TID 0000.0001) %MON seaice_hsnow_mean            =   2.5232546759720E-04
(PID.TID 0000.0001) %MON seaice_hsnow_sd              =   1.4192085149605E-03
(PID.TID 0000.0001) %MON seaice_hsnow_del2            =   1.6924883981053E-05
(PID.TID 0000.0001) // =======================================================
(PID.TID 0000.0001) // End MONITOR SEAICE statistics
(PID.TID 0000.0001) // =======================================================
 cg2d: Sum(rhs),rhsMax =   2.21246319802766E+03  2.08570982773502E+01
(PID.TID 0000.0001)      cg2d_init_res =   1.94864579499886E+01
(PID.TID 0000.0001)      cg2d_iters(min,last) =      -1      74
(PID.TID 0000.0001)      cg2d_last_res =   4.45313865435528E-07
(PID.TID 0000.0001) // =======================================================
(PID.TID 0000.0001) // Begin MONITOR dynamic field statistics
(PID.TID 0000.0001) // =======================================================
(PID.TID 0000.0001) %MON time_tsnumber                =                 72004
(PID.TID 0000.0001) %MON time_secondsf                =   6.2211456000000E+09
(PID.TID 0000.0001) %MON dynstat_eta_max              =  -2.2035630825203E+00
(PID.TID 0000.0001) %MON dynstat_eta_min              =  -8.6096621796890E+00
(PID.TID 0000.0001) %MON dynstat_eta_mean             =  -3.2906917188269E+00
(PID.TID 0000.0001) %MON dynstat_eta_sd               =   8.5956781396035E-01
(PID.TID 0000.0001) %MON dynstat_eta_del2             =   2.6727671662474E-03
(PID.TID 0000.0001) %MON dynstat_uvel_max             =   2.1368118556770E-01
(PID.TID 0000.0001) %MON dynstat_uvel_min             =  -2.8979588980746E-01
(PID.TID 0000.0001) %MON dynstat_uvel_mean            =  -5.2231460904757E-04
(PID.TID 0000.0001) %MON dynstat_uvel_sd              =   1.4782945871771E-02
(PID.TID 0000.0001) %MON dynstat_uvel_del2            =   6.8076418088923E-05
(PID.TID 0000.0001) %MON dynstat_vvel_max             =   2.1997174781650E-01
(PID.TID 0000.0001) %MON dynstat_vvel_min             =  -2.0086797177181E-01
(PID.TID 0000.0001) %MON dynstat_vvel_mean            =  -3.9646838335710E-04
(PID.TID 0000.0001) %MON dynstat_vvel_sd              =   1.5252840633510E-02
(PID.TID 0000.0001) %MON dynstat_vvel_del2            =   6.3011346573572E-05
(PID.TID 0000.0001) %MON dynstat_wvel_max             =   1.0354260500798E-04
(PID.TID 0000.0001) %MON dynstat_wvel_min             =  -2.1350628573283E-04
(PID.TID 0000.0001) %MON dynstat_wvel_mean            =  -2.1794450207893E-09
(PID.TID 0000.0001) %MON dynstat_wvel_sd              =   5.4405652797857E-06
(PID.TID 0000.0001) %MON dynstat_wvel_del2            =   5.0377942147856E-08
(PID.TID 0000.0001) %MON dynstat_theta_max            =   3.1184963125360E+01
(PID.TID 0000.0001) %MON dynstat_theta_min            =  -3.2738850716330E+00
(PID.TID 0000.0001) %MON dynstat_theta_mean           =   3.0535766461129E+00
(PID.TID 0000.0001) %MON dynstat_theta_sd             =   4.9958557273016E+00
(PID.TID 0000.0001) %MON dynstat_theta_del2           =   2.9004465764424E-03
(PID.TID 0000.0001) %MON dynstat_salt_max             =   5.8556736097834E+01
(PID.TID 0000.0001) %MON dynstat_salt_min             =   1.7776356929063E+01
(PID.TID 0000.0001) %MON dynstat_salt_mean            =   3.4752441556393E+01
(PID.TID 0000.0001) %MON dynstat_salt_sd              =   4.8887151611941E-01
(PID.TID 0000.0001) %MON dynstat_salt_del2            =   1.3122311688867E-03
(PID.TID 0000.0001) %MON forcing_qnet_max             =   6.0077507849547E+02
(PID.TID 0000.0001) %MON forcing_qnet_min             =  -2.6340471684870E+02
(PID.TID 0000.0001) %MON forcing_qnet_mean            =  -2.9313662893846E+01
(PID.TID 0000.0001) %MON forcing_qnet_sd              =   1.2051253531790E+02
(PID.TID 0000.0001) %MON forcing_qnet_del2            =   8.8920864934478E-01
(PID.TID 0000.0001) %MON forcing_qsw_max              =   0.0000000000000E+00
(PID.TID 0000.0001) %MON forcing_qsw_min              =  -3.0187928232211E+02
(PID.TID 0000.0001) %MON forcing_qsw_mean             =  -1.8440361351805E+02
(PID.TID 0000.0001) %MON forcing_qsw_sd               =   7.9568567081568E+01
(PID.TID 0000.0001) %MON forcing_qsw_del2             =   2.9014511387595E-01
(PID.TID 0000.0001) %MON forcing_empmr_max            =   7.4694753407007E-04
(PID.TID 0000.0001) %MON forcing_empmr_min            =  -8.4190478156601E-04
(PID.TID 0000.0001) %MON forcing_empmr_mean           =  -3.8338920732762E-06
(PID.TID 0000.0001) %MON forcing_empmr_sd             =   6.3014169410104E-05
(PID.TID 0000.0001) %MON forcing_empmr_del2           =   1.5973260613395E-06
(PID.TID 0000.0001) %MON forcing_fu_max               =   2.4746198790331E-01
(PID.TID 0000.0001) %MON forcing_fu_min               =  -2.9119010317264E-01
(PID.TID 0000.0001) %MON forcing_fu_mean              =  -4.6851919651268E-03
(PID.TID 0000.0001) %MON forcing_fu_sd                =   6.5355647232265E-02
(PID.TID 0000.0001) %MON forcing_fu_del2              =   2.4820388360000E-04
(PID.TID 0000.0001) %MON forcing_fv_max               =   2.6086070515377E-01
(PID.TID 0000.0001) %MON forcing_fv_min               =  -3.2928363582178E-01
(PID.TID 0000.0001) %MON forcing_fv_mean              =  -1.3351378894957E-02
(PID.TID 0000.0001) %MON forcing_fv_sd                =   7.6058359485198E-02
(PID.TID 0000.0001) %MON forcing_fv_del2              =   2.5605565459878E-04
(PID.TID 0000.0001) %MON trAdv_CFL_u_max              =   8.1730724224889E-02
(PID.TID 0000.0001) %MON trAdv_CFL_v_max              =   8.8825192750035E-02
(PID.TID 0000.0001) %MON trAdv_CFL_w_max              =   7.7015128257787E-02
(PID.TID 0000.0001) %MON advcfl_uvel_max              =   8.4298422931339E-02
(PID.TID 0000.0001) %MON advcfl_vvel_max              =   8.3595893936857E-02
(PID.TID 0000.0001) %MON advcfl_wvel_max              =   6.9611105989874E-02
(PID.TID 0000.0001) %MON advcfl_W_hf_max              =   7.7015128257787E-02
(PID.TID 0000.0001) %MON pe_b_mean                    =   1.4372845993138E-02
(PID.TID 0000.0001) %MON ke_max                       =   4.1404135446307E-02
(PID.TID 0000.0001) %MON ke_mean                      =   2.0852374175285E-04
(PID.TID 0000.0001) %MON ke_vol                       =   1.3386048898283E+18
(PID.TID 0000.0001) %MON vort_r_min                   =  -1.2474735117687E-06
(PID.TID 0000.0001) %MON vort_r_max                   =   1.2934720230615E-06
(PID.TID 0000.0001) %MON vort_a_mean                  =  -2.0549865324846E-05
(PID.TID 0000.0001) %MON vort_a_sd                    =   7.5259723787756E-05
(PID.TID 0000.0001) %MON vort_p_mean                  =  -2.4806278659388E-05
(PID.TID 0000.0001) %MON vort_p_sd                    =   1.2827525505739E-04
(PID.TID 0000.0001) %MON surfExpan_theta_mean         =  -5.6074834509415E-08
(PID.TID 0000.0001) %MON surfExpan_salt_mean          =   1.6712453022649E-08
(PID.TID 0000.0001) // =======================================================
(PID.TID 0000.0001) // End MONITOR dynamic field statistics
(PID.TID 0000.0001) // =======================================================
(PID.TID 0000.0001) // =======================================================
(PID.TID 0000.0001) // Begin MONITOR SEAICE statistics
(PID.TID 0000.0001) // =======================================================
(PID.TID 0000.0001) %MON seaice_tsnumber              =                 72004
(PID.TID 0000.0001) %MON seaice_time_sec              =   6.2211456000000E+09
(PID.TID 0000.0001) %MON seaice_uice_max              =   4.0000000000000E-01
(PID.TID 0000.0001) %MON seaice_uice_min              =  -4.0000000000000E-01
(PID.TID 0000.0001) %MON seaice_uice_mean             =  -1.4453050284137E-02
(PID.TID 0000.0001) %MON seaice_uice_sd               =   1.4227954137062E-01
(PID.TID 0000.0001) %MON seaice_uice_del2             =   7.2792194855891E-04
(PID.TID 0000.0001) %MON seaice_vice_max              =   3.6544363819619E-01
(PID.TID 0000.0001) %MON seaice_vice_min              =  -4.0000000000000E-01
(PID.TID 0000.0001) %MON seaice_vice_mean             =  -3.7550019415774E-02
(PID.TID 0000.0001) %MON seaice_vice_sd               =   1.5695062302725E-01
(PID.TID 0000.0001) %MON seaice_vice_del2             =   7.0805881695594E-04
(PID.TID 0000.0001) %MON seaice_area_max              =   1.0000000000000E+00
(PID.TID 0000.0001) %MON seaice_area_min              =   0.0000000000000E+00
(PID.TID 0000.0001) %MON seaice_area_mean             =   4.0868401378420E-02
(PID.TID 0000.0001) %MON seaice_area_sd               =   1.8950145533950E-01
(PID.TID 0000.0001) %MON seaice_area_del2             =   1.6363951769374E-03
(PID.TID 0000.0001) %MON seaice_heff_max              =   5.1998988829806E+00
(PID.TID 0000.0001) %MON seaice_heff_min              =   0.0000000000000E+00
(PID.TID 0000.0001) %MON seaice_heff_mean             =   7.5361125894763E-02
(PID.TID 0000.0001) %MON seaice_heff_sd               =   3.9347426454993E-01
(PID.TID 0000.0001) %MON seaice_heff_del2             =   2.2821559637983E-03
(PID.TID 0000.0001) %MON seaice_hsnow_max             =   1.9828777848493E-02
(PID.TID 0000.0001) %MON seaice_hsnow_min             =  -2.7105054312138E-20
(PID.TID 0000.0001) %MON seaice_hsnow_mean            =   3.3835753625615E-04
(PID.TID 0000.0001) %MON seaice_hsnow_sd              =   1.9032964040236E-03
(PID.TID 0000.0001) %MON seaice_hsnow_del2            =   2.2907048344911E-05
(PID.TID 0000.0001) // =======================================================
(PID.TID 0000.0001) // End MONITOR SEAICE statistics
(PID.TID 0000.0001) // =======================================================
 cg2d: Sum(rhs),rhsMax =   2.21223974789021E+03  2.09779537582256E+01
(PID.TID 0000.0001)      cg2d_init_res =   1.91537885024187E+01
(PID.TID 0000.0001)      cg2d_iters(min,last) =      -1      73
(PID.TID 0000.0001)      cg2d_last_res =   5.66094875395258E-07
(PID.TID 0000.0001) // =======================================================
(PID.TID 0000.0001) // Begin MONITOR dynamic field statistics
(PID.TID 0000.0001) // =======================================================
(PID.TID 0000.0001) %MON time_tsnumber                =                 72005
(PID.TID 0000.0001) %MON time_secondsf                =   6.2212320000000E+09
(PID.TID 0000.0001) %MON dynstat_eta_max              =  -2.2050739040721E+00
(PID.TID 0000.0001) %MON dynstat_eta_min              =  -8.5940870652990E+00
(PID.TID 0000.0001) %MON dynstat_eta_mean             =  -3.2903593718222E+00
(PID.TID 0000.0001) %MON dynstat_eta_sd               =   8.5870427586907E-01
(PID.TID 0000.0001) %MON dynstat_eta_del2             =   2.6739101241605E-03
(PID.TID 0000.0001) %MON dynstat_uvel_max             =   2.1376202331638E-01
(PID.TID 0000.0001) %MON dynstat_uvel_min             =  -2.8935969145618E-01
(PID.TID 0000.0001) %MON dynstat_uvel_mean            =  -5.2187485811633E-04
(PID.TID 0000.0001) %MON dynstat_uvel_sd              =   1.4782028916558E-02
(PID.TID 0000.0001) %MON dynstat_uvel_del2            =   6.8029697066959E-05
(PID.TID 0000.0001) %MON dynstat_vvel_max             =   2.1930506517567E-01
(PID.TID 0000.0001) %MON dynstat_vvel_min             =  -2.0091761885983E-01
(PID.TID 0000.0001) %MON dynstat_vvel_mean            =  -3.9436947659251E-04
(PID.TID 0000.0001) %MON dynstat_vvel_sd              =   1.5257065474436E-02
(PID.TID 0000.0001) %MON dynstat_vvel_del2            =   6.2945098547466E-05
(PID.TID 0000.0001) %MON dynstat_wvel_max             =   1.0437707799599E-04
(PID.TID 0000.0001) %MON dynstat_wvel_min             =  -2.1351680871782E-04
(PID.TID 0000.0001) %MON dynstat_wvel_mean            =  -2.0092459902897E-09
(PID.TID 0000.0001) %MON dynstat_wvel_sd              =   5.4773191956066E-06
(PID.TID 0000.0001) %MON dynstat_wvel_del2            =   5.0758075325073E-08
(PID.TID 0000.0001) %MON dynstat_theta_max            =   3.1182496156610E+01
(PID.TID 0000.0001) %MON dynstat_theta_min            =  -3.2733232157513E+00
(PID.TID 0000.0001) %MON dynstat_theta_mean           =   3.0537436923181E+00
(PID.TID 0000.0001) %MON dynstat_theta_sd             =   4.9961704577241E+00
(PID.TID 0000.0001) %MON dynstat_theta_del2           =   2.8842954394979E-03
(PID.TID 0000.0001) %MON dynstat_salt_max             =   5.8523488050578E+01
(PID.TID 0000.0001) %MON dynstat_salt_min             =   1.7776513697414E+01
(PID.TID 0000.0001) %MON dynstat_salt_mean            =   3.4752438364487E+01
(PID.TID 0000.0001) %MON dynstat_salt_sd              =   4.8881562975143E-01
(PID.TID 0000.0001) %MON dynstat_salt_del2            =   1.3044944145104E-03
(PID.TID 0000.0001) %MON forcing_qnet_max             =   6.0050530604444E+02
(PID.TID 0000.0001) %MON forcing_qnet_min             =  -2.5948186400494E+02
(PID.TID 0000.0001) %MON forcing_qnet_mean            =  -2.9251972604548E+01
(PID.TID 0000.0001) %MON forcing_qnet_sd              =   1.2035355953912E+02
(PID.TID 0000.0001) %MON forcing_qnet_del2            =   8.7925422904657E-01
(PID.TID 0000.0001) %MON forcing_qsw_max              =   0.0000000000000E+00
(PID.TID 0000.0001) %MON forcing_qsw_min              =  -3.0186728538630E+02
(PID.TID 0000.0001) %MON forcing_qsw_mean             =  -1.8446741754109E+02
(PID.TID 0000.0001) %MON forcing_qsw_sd               =   7.9460942982718E+01
(PID.TID 0000.0001) %MON forcing_qsw_del2             =   2.7825342796715E-01
(PID.TID 0000.0001) %MON forcing_empmr_max            =   6.1064475301203E-04
(PID.TID 0000.0001) %MON forcing_empmr_min            =  -8.9426629718834E-04
(PID.TID 0000.0001) %MON forcing_empmr_mean           =  -3.9812401605119E-06
(PID.TID 0000.0001) %MON forcing_empmr_sd             =   6.0947721942653E-05
(PID.TID 0000.0001) %MON forcing_empmr_del2           =   1.5826925757769E-06
(PID.TID 0000.0001) %MON forcing_fu_max               =   2.4741393863310E-01
(PID.TID 0000.0001) %MON forcing_fu_min               =  -2.9320361134889E-01
(PID.TID 0000.0001) %MON forcing_fu_mean              =  -4.6426920366468E-03
(PID.TID 0000.0001) %MON forcing_fu_sd                =   6.5389625830109E-02
(PID.TID 0000.0001) %MON forcing_fu_del2              =   2.4930836553758E-04
(PID.TID 0000.0001) %MON forcing_fv_max               =   2.6354394672640E-01
(PID.TID 0000.0001) %MON forcing_fv_min               =  -3.3007153975572E-01
(PID.TID 0000.0001) %MON forcing_fv_mean              =  -1.3365882148211E-02
(PID.TID 0000.0001) %MON forcing_fv_sd                =   7.6105970570861E-02
(PID.TID 0000.0001) %MON forcing_fv_del2              =   2.5651998520852E-04
(PID.TID 0000.0001) %MON trAdv_CFL_u_max              =   8.1607709492466E-02
(PID.TID 0000.0001) %MON trAdv_CFL_v_max              =   8.8886226401244E-02
(PID.TID 0000.0001) %MON trAdv_CFL_w_max              =   7.7018973260021E-02
(PID.TID 0000.0001) %MON advcfl_uvel_max              =   8.4419999010585E-02
(PID.TID 0000.0001) %MON advcfl_vvel_max              =   8.3653383690872E-02
(PID.TID 0000.0001) %MON advcfl_wvel_max              =   6.9614536880073E-02
(PID.TID 0000.0001) %MON advcfl_W_hf_max              =   7.7018973260021E-02
(PID.TID 0000.0001) %MON pe_b_mean                    =   1.4368146597574E-02
(PID.TID 0000.0001) %MON ke_max                       =   4.1271414378848E-02
(PID.TID 0000.0001) %MON ke_mean                      =   2.0857010667331E-04
(PID.TID 0000.0001) %MON ke_vol                       =   1.3386050062890E+18
(PID.TID 0000.0001) %MON vort_r_min                   =  -1.2533723123511E-06
(PID.TID 0000.0001) %MON vort_r_max                   =   1.2917618662397E-06
(PID.TID 0000.0001) %MON vort_a_mean                  =  -2.0549865324846E-05
(PID.TID 0000.0001) %MON vort_a_sd                    =   7.5259723671590E-05
(PID.TID 0000.0001) %MON vort_p_mean                  =  -2.4806276228185E-05
(PID.TID 0000.0001) %MON vort_p_sd                    =   1.2827524285124E-04
(PID.TID 0000.0001) %MON surfExpan_theta_mean         =  -5.6066866702226E-08
(PID.TID 0000.0001) %MON surfExpan_salt_mean          =   1.8353230803776E-08
(PID.TID 0000.0001) // =======================================================
(PID.TID 0000.0001) // End MONITOR dynamic field statistics
(PID.TID 0000.0001) // =======================================================
(PID.TID 0000.0001) // =======================================================
(PID.TID 0000.0001) // Begin MONITOR SEAICE statistics
(PID.TID 0000.0001) // =======================================================
(PID.TID 0000.0001) %MON seaice_tsnumber              =                 72005
(PID.TID 0000.0001) %MON seaice_time_sec              =   6.2212320000000E+09
(PID.TID 0000.0001) %MON seaice_uice_max              =   4.0000000000000E-01
(PID.TID 0000.0001) %MON seaice_uice_min              =  -4.0000000000000E-01
(PID.TID 0000.0001) %MON seaice_uice_mean             =  -1.4378949762472E-02
(PID.TID 0000.0001) %MON seaice_uice_sd               =   1.4219181830382E-01
(PID.TID 0000.0001) %MON seaice_uice_del2             =   7.2851179715051E-04
(PID.TID 0000.0001) %MON seaice_vice_max              =   3.6805967261458E-01
(PID.TID 0000.0001) %MON seaice_vice_min              =  -4.0000000000000E-01
(PID.TID 0000.0001) %MON seaice_vice_mean             =  -3.7569687123533E-02
(PID.TID 0000.0001) %MON seaice_vice_sd               =   1.5710653775283E-01
(PID.TID 0000.0001) %MON seaice_vice_del2             =   7.0873741853511E-04
(PID.TID 0000.0001) %MON seaice_area_max              =   1.0000000000000E+00
(PID.TID 0000.0001) %MON seaice_area_min              =   0.0000000000000E+00
(PID.TID 0000.0001) %MON seaice_area_mean             =   4.0876427074389E-02
(PID.TID 0000.0001) %MON seaice_area_sd               =   1.9035164809503E-01
(PID.TID 0000.0001) %MON seaice_area_del2             =   1.6190351803607E-03
(PID.TID 0000.0001) %MON seaice_heff_max              =   5.2035660101313E+00
(PID.TID 0000.0001) %MON seaice_heff_min              =   0.0000000000000E+00
(PID.TID 0000.0001) %MON seaice_heff_mean             =   7.5361528117184E-02
(PID.TID 0000.0001) %MON seaice_heff_sd               =   3.9435493227448E-01
(PID.TID 0000.0001) %MON seaice_heff_del2             =   2.2811283037897E-03
(PID.TID 0000.0001) %MON seaice_hsnow_max             =   2.4817149418707E-02
(PID.TID 0000.0001) %MON seaice_hsnow_min             =   0.0000000000000E+00
(PID.TID 0000.0001) %MON seaice_hsnow_mean            =   4.2241845133147E-04
(PID.TID 0000.0001) %MON seaice_hsnow_sd              =   2.3861621441668E-03
(PID.TID 0000.0001) %MON seaice_hsnow_del2            =   2.7990344482006E-05
(PID.TID 0000.0001) // =======================================================
(PID.TID 0000.0001) // End MONITOR SEAICE statistics
(PID.TID 0000.0001) // =======================================================
(PID.TID 0000.0001) %CHECKPOINT     72005 ckptA
(PID.TID 0000.0001)   early fc =  0.000000000000000D+00
 --> objf_test(bi,bj)   =  0.971419703500250D+04
 --> objf_test(bi,bj)   =  0.743444248309052D+04
 --> objf_test(bi,bj)   =  0.916061123349721D+04
 --> objf_test(bi,bj)   =  0.776111598389077D+04
 --> objf_test(bi,bj)   =  0.645188366964765D+04
 --> objf_test(bi,bj)   =  0.121082946490663D+05
 --> objf_test(bi,bj)   =  0.130205818146114D+05
 --> objf_test(bi,bj)   =  0.134004371116027D+05
 --> objf_test(bi,bj)   =  0.704975745890400D+04
 --> objf_test(bi,bj)   =  0.654290140606179D+04
 --> objf_test(bi,bj)   =  0.974952513498580D+04
 --> objf_test(bi,bj)   =  0.845212298454513D+04
(PID.TID 0000.0001)   local fc =  0.110845870964906D+06
(PID.TID 0000.0001)  global fc =  0.110845870964906D+06
(PID.TID 0000.0001) whio : write lev 2 rec   1
(PID.TID 0000.0001) SOLVE_FOR_PRESSURE: putPmEinXvector =    F
 cg2d: Sum(rhs),rhsMax =   2.21291478463262E+03  2.01372754051185E+01
 cg2d: Sum(rhs),rhsMax =   2.21288691540957E+03  2.05338888896341E+01
(PID.TID 0000.0001) whio : write lev 2 rec   2
 cg2d: Sum(rhs),rhsMax =   2.21267837814144E+03  2.07023143972986E+01
 cg2d: Sum(rhs),rhsMax =   2.21246319802766E+03  2.08570982773502E+01
(PID.TID 0000.0001) whio : write lev 2 rec   3
 cg2d: Sum(rhs),rhsMax =   2.21223974789021E+03  2.09779537582256E+01
(PID.TID 0000.0001) Did not write pickup because writePickupAtEnd = FALSE
 cg2d: Sum(rhs),rhsMax =   2.21223974789021E+03  2.09779537582256E+01
(PID.TID 0000.0001) Did not write pickup because writePickupAtEnd = FALSE
 cg2d: Sum(rhs),rhsMax =   2.21223974789021E+03  2.09779537582256E+01
(PID.TID 0000.0001) Did not write pickup because writePickupAtEnd = FALSE
(PID.TID 0000.0001) // =======================================================
(PID.TID 0000.0001) // Begin AD_MONITOR dynamic field statistics
(PID.TID 0000.0001) // =======================================================
(PID.TID 0000.0001) %MON ad_time_tsnumber             =                 72005
(PID.TID 0000.0001) %MON ad_time_secondsf             =   6.2212320000000E+09
(PID.TID 0000.0001) %MON ad_dynstat_adeta_max         =   0.0000000000000E+00
(PID.TID 0000.0001) %MON ad_dynstat_adeta_min         =   0.0000000000000E+00
(PID.TID 0000.0001) %MON ad_dynstat_adeta_mean        =   0.0000000000000E+00
(PID.TID 0000.0001) %MON ad_dynstat_adeta_sd          =   0.0000000000000E+00
(PID.TID 0000.0001) %MON ad_dynstat_adeta_del2        =   0.0000000000000E+00
(PID.TID 0000.0001) %MON ad_dynstat_aduvel_max        =   0.0000000000000E+00
(PID.TID 0000.0001) %MON ad_dynstat_aduvel_min        =   0.0000000000000E+00
(PID.TID 0000.0001) %MON ad_dynstat_aduvel_mean       =   0.0000000000000E+00
(PID.TID 0000.0001) %MON ad_dynstat_aduvel_sd         =   0.0000000000000E+00
(PID.TID 0000.0001) %MON ad_dynstat_aduvel_del2       =   0.0000000000000E+00
(PID.TID 0000.0001) %MON ad_dynstat_advvel_max        =   0.0000000000000E+00
(PID.TID 0000.0001) %MON ad_dynstat_advvel_min        =   0.0000000000000E+00
(PID.TID 0000.0001) %MON ad_dynstat_advvel_mean       =   0.0000000000000E+00
(PID.TID 0000.0001) %MON ad_dynstat_advvel_sd         =   0.0000000000000E+00
(PID.TID 0000.0001) %MON ad_dynstat_advvel_del2       =   0.0000000000000E+00
(PID.TID 0000.0001) %MON ad_dynstat_adwvel_max        =   0.0000000000000E+00
(PID.TID 0000.0001) %MON ad_dynstat_adwvel_min        =   0.0000000000000E+00
(PID.TID 0000.0001) %MON ad_dynstat_adwvel_mean       =   0.0000000000000E+00
(PID.TID 0000.0001) %MON ad_dynstat_adwvel_sd         =   0.0000000000000E+00
(PID.TID 0000.0001) %MON ad_dynstat_adwvel_del2       =   0.0000000000000E+00
(PID.TID 0000.0001) %MON ad_dynstat_adtheta_max       =   2.3858768415540E+01
(PID.TID 0000.0001) %MON ad_dynstat_adtheta_min       =  -1.8534790050262E+01
(PID.TID 0000.0001) %MON ad_dynstat_adtheta_mean      =  -1.0977915841206E+00
(PID.TID 0000.0001) %MON ad_dynstat_adtheta_sd        =   2.3096152536609E+00
(PID.TID 0000.0001) %MON ad_dynstat_adtheta_del2      =   8.4958920778004E-03
(PID.TID 0000.0001) %MON ad_dynstat_adsalt_max        =   0.0000000000000E+00
(PID.TID 0000.0001) %MON ad_dynstat_adsalt_min        =   0.0000000000000E+00
(PID.TID 0000.0001) %MON ad_dynstat_adsalt_mean       =   0.0000000000000E+00
(PID.TID 0000.0001) %MON ad_dynstat_adsalt_sd         =   0.0000000000000E+00
(PID.TID 0000.0001) %MON ad_dynstat_adsalt_del2       =   0.0000000000000E+00
(PID.TID 0000.0001) %MON ad_forcing_adqnet_max        =   0.0000000000000E+00
(PID.TID 0000.0001) %MON ad_forcing_adqnet_min        =   0.0000000000000E+00
(PID.TID 0000.0001) %MON ad_forcing_adqnet_mean       =   0.0000000000000E+00
(PID.TID 0000.0001) %MON ad_forcing_adqnet_sd         =   0.0000000000000E+00
(PID.TID 0000.0001) %MON ad_forcing_adqnet_del2       =   0.0000000000000E+00
(PID.TID 0000.0001) %MON ad_forcing_adqsw_max         =   0.0000000000000E+00
(PID.TID 0000.0001) %MON ad_forcing_adqsw_min         =   0.0000000000000E+00
(PID.TID 0000.0001) %MON ad_forcing_adqsw_mean        =   0.0000000000000E+00
(PID.TID 0000.0001) %MON ad_forcing_adqsw_sd          =   0.0000000000000E+00
(PID.TID 0000.0001) %MON ad_forcing_adqsw_del2        =   0.0000000000000E+00
(PID.TID 0000.0001) %MON ad_forcing_adempmr_max       =   0.0000000000000E+00
(PID.TID 0000.0001) %MON ad_forcing_adempmr_min       =   0.0000000000000E+00
(PID.TID 0000.0001) %MON ad_forcing_adempmr_mean      =   0.0000000000000E+00
(PID.TID 0000.0001) %MON ad_forcing_adempmr_sd        =   0.0000000000000E+00
(PID.TID 0000.0001) %MON ad_forcing_adempmr_del2      =   0.0000000000000E+00
(PID.TID 0000.0001) %MON ad_forcing_adfu_max          =   0.0000000000000E+00
(PID.TID 0000.0001) %MON ad_forcing_adfu_min          =   0.0000000000000E+00
(PID.TID 0000.0001) %MON ad_forcing_adfu_mean         =   0.0000000000000E+00
(PID.TID 0000.0001) %MON ad_forcing_adfu_sd           =   0.0000000000000E+00
(PID.TID 0000.0001) %MON ad_forcing_adfu_del2         =   0.0000000000000E+00
(PID.TID 0000.0001) %MON ad_forcing_adfv_max          =   0.0000000000000E+00
(PID.TID 0000.0001) %MON ad_forcing_adfv_min          =   0.0000000000000E+00
(PID.TID 0000.0001) %MON ad_forcing_adfv_mean         =   0.0000000000000E+00
(PID.TID 0000.0001) %MON ad_forcing_adfv_sd           =   0.0000000000000E+00
(PID.TID 0000.0001) %MON ad_forcing_adfv_del2         =   0.0000000000000E+00
(PID.TID 0000.0001) // =======================================================
(PID.TID 0000.0001) // End AD_MONITOR dynamic field statistics
(PID.TID 0000.0001) // =======================================================
(PID.TID 0000.0001) // =======================================================
(PID.TID 0000.0001) // Begin AD_MONITOR SEAICE statistics
(PID.TID 0000.0001) // =======================================================
(PID.TID 0000.0001) %MON ad_seaice_tsnumber           =                 72005
(PID.TID 0000.0001) %MON ad_seaice_time_sec           =   6.2212320000000E+09
(PID.TID 0000.0001) %MON ad_seaice_aduice_max         =   0.0000000000000E+00
(PID.TID 0000.0001) %MON ad_seaice_aduice_min         =   0.0000000000000E+00
(PID.TID 0000.0001) %MON ad_seaice_aduice_mean        =   0.0000000000000E+00
(PID.TID 0000.0001) %MON ad_seaice_aduice_sd          =   0.0000000000000E+00
(PID.TID 0000.0001) %MON ad_seaice_aduice_del2        =   0.0000000000000E+00
(PID.TID 0000.0001) %MON ad_seaice_advice_max         =   0.0000000000000E+00
(PID.TID 0000.0001) %MON ad_seaice_advice_min         =   0.0000000000000E+00
(PID.TID 0000.0001) %MON ad_seaice_advice_mean        =   0.0000000000000E+00
(PID.TID 0000.0001) %MON ad_seaice_advice_sd          =   0.0000000000000E+00
(PID.TID 0000.0001) %MON ad_seaice_advice_del2        =   0.0000000000000E+00
(PID.TID 0000.0001) %MON ad_seaice_adarea_max         =   0.0000000000000E+00
(PID.TID 0000.0001) %MON ad_seaice_adarea_min         =   0.0000000000000E+00
(PID.TID 0000.0001) %MON ad_seaice_adarea_mean        =   0.0000000000000E+00
(PID.TID 0000.0001) %MON ad_seaice_adarea_sd          =   0.0000000000000E+00
(PID.TID 0000.0001) %MON ad_seaice_adarea_del2        =   0.0000000000000E+00
(PID.TID 0000.0001) %MON ad_seaice_adheff_max         =   0.0000000000000E+00
(PID.TID 0000.0001) %MON ad_seaice_adheff_min         =   0.0000000000000E+00
(PID.TID 0000.0001) %MON ad_seaice_adheff_mean        =   0.0000000000000E+00
(PID.TID 0000.0001) %MON ad_seaice_adheff_sd          =   0.0000000000000E+00
(PID.TID 0000.0001) %MON ad_seaice_adheff_del2        =   0.0000000000000E+00
(PID.TID 0000.0001) %MON ad_seaice_adhsnow_max        =   0.0000000000000E+00
(PID.TID 0000.0001) %MON ad_seaice_adhsnow_min        =   0.0000000000000E+00
(PID.TID 0000.0001) %MON ad_seaice_adhsnow_mean       =   0.0000000000000E+00
(PID.TID 0000.0001) %MON ad_seaice_adhsnow_sd         =   0.0000000000000E+00
(PID.TID 0000.0001) %MON ad_seaice_adhsnow_del2       =   0.0000000000000E+00
(PID.TID 0000.0001) // =======================================================
(PID.TID 0000.0001) // End AD_MONITOR SEAICE statistics
(PID.TID 0000.0001) // =======================================================
 Calling cg2d from S/R CG2D_SAD
 cg2d: Sum(rhs),rhsMax =   5.42101086242752E-19  1.97379518393402E-04
(PID.TID 0000.0001) // =======================================================
(PID.TID 0000.0001) // Begin AD_MONITOR EXF statistics for iwhen =  3
(PID.TID 0000.0001) // =======================================================
(PID.TID 0000.0001) %MON ad_exf_tsnumber              =                 72004
(PID.TID 0000.0001) %MON ad_exf_time_sec              =   6.2211456000000E+09
(PID.TID 0000.0001) %MON ad_exf_adfu_max              =   6.5807056549049E-01
(PID.TID 0000.0001) %MON ad_exf_adfu_min              =  -7.3696292506815E-01
(PID.TID 0000.0001) %MON ad_exf_adfu_mean             =   3.4628982798953E-03
(PID.TID 0000.0001) %MON ad_exf_adfu_sd               =   6.5592761103546E-02
(PID.TID 0000.0001) %MON ad_exf_adfu_del2             =   2.1286518194009E-03
(PID.TID 0000.0001) %MON ad_exf_adfv_max              =   5.0750471427416E-01
(PID.TID 0000.0001) %MON ad_exf_adfv_min              =  -4.0863431463692E-01
(PID.TID 0000.0001) %MON ad_exf_adfv_mean             =   4.4757543926733E-03
(PID.TID 0000.0001) %MON ad_exf_adfv_sd               =   6.1352753015196E-02
(PID.TID 0000.0001) %MON ad_exf_adfv_del2             =   2.1185987258361E-03
(PID.TID 0000.0001) %MON ad_exf_adqnet_max            =   6.6762195802890E-03
(PID.TID 0000.0001) %MON ad_exf_adqnet_min            =  -6.5823678346550E-03
(PID.TID 0000.0001) %MON ad_exf_adqnet_mean           =  -4.5240724754951E-04
(PID.TID 0000.0001) %MON ad_exf_adqnet_sd             =   1.1429148323795E-03
(PID.TID 0000.0001) %MON ad_exf_adqnet_del2           =   1.8146431416296E-05
(PID.TID 0000.0001) %MON ad_exf_adempmr_max           =   9.8086582621334E+01
(PID.TID 0000.0001) %MON ad_exf_adempmr_min           =  -1.6317733274544E+02
(PID.TID 0000.0001) %MON ad_exf_adempmr_mean          =  -1.0529262979616E+01
(PID.TID 0000.0001) %MON ad_exf_adempmr_sd            =   2.9598684830890E+01
(PID.TID 0000.0001) %MON ad_exf_adempmr_del2          =   4.0321395498142E-01
(PID.TID 0000.0001) // =======================================================
(PID.TID 0000.0001) // End AD_MONITOR EXF statistics for iwhen =  3
(PID.TID 0000.0001) // =======================================================
(PID.TID 0000.0001) // =======================================================
(PID.TID 0000.0001) // Begin AD_MONITOR EXF statistics for iwhen =  1
(PID.TID 0000.0001) // =======================================================
(PID.TID 0000.0001) %MON ad_exf_tsnumber              =                 72004
(PID.TID 0000.0001) %MON ad_exf_time_sec              =   6.2211456000000E+09
(PID.TID 0000.0001) %MON ad_exf_adustress_max         =   1.2586023856182E+00
(PID.TID 0000.0001) %MON ad_exf_adustress_min         =  -4.6477928960644E+00
(PID.TID 0000.0001) %MON ad_exf_adustress_mean        =  -4.5443474133887E-03
(PID.TID 0000.0001) %MON ad_exf_adustress_sd          =   1.7321758805879E-01
(PID.TID 0000.0001) %MON ad_exf_adustress_del2        =   4.6335880640551E-03
(PID.TID 0000.0001) %MON ad_exf_advstress_max         =   6.7206966840388E-01
(PID.TID 0000.0001) %MON ad_exf_advstress_min         =  -2.6225587641156E+00
(PID.TID 0000.0001) %MON ad_exf_advstress_mean        =  -3.3778097019053E-03
(PID.TID 0000.0001) %MON ad_exf_advstress_sd          =   9.7020792007179E-02
(PID.TID 0000.0001) %MON ad_exf_advstress_del2        =   2.8790255518905E-03
(PID.TID 0000.0001) %MON ad_exf_adhflux_max           =   0.0000000000000E+00
(PID.TID 0000.0001) %MON ad_exf_adhflux_min           =   0.0000000000000E+00
(PID.TID 0000.0001) %MON ad_exf_adhflux_mean          =   0.0000000000000E+00
(PID.TID 0000.0001) %MON ad_exf_adhflux_sd            =   0.0000000000000E+00
(PID.TID 0000.0001) %MON ad_exf_adhflux_del2          =   0.0000000000000E+00
(PID.TID 0000.0001) %MON ad_exf_adsflux_max           =   0.0000000000000E+00
(PID.TID 0000.0001) %MON ad_exf_adsflux_min           =   0.0000000000000E+00
(PID.TID 0000.0001) %MON ad_exf_adsflux_mean          =   0.0000000000000E+00
(PID.TID 0000.0001) %MON ad_exf_adsflux_sd            =   0.0000000000000E+00
(PID.TID 0000.0001) %MON ad_exf_adsflux_del2          =   0.0000000000000E+00
(PID.TID 0000.0001) %MON ad_exf_adwspeed_max          =   1.3902382465091E-05
(PID.TID 0000.0001) %MON ad_exf_adwspeed_min          =  -9.8595103806161E-05
(PID.TID 0000.0001) %MON ad_exf_adwspeed_mean         =  -1.0093419421489E-07
(PID.TID 0000.0001) %MON ad_exf_adwspeed_sd           =   2.5301439622592E-06
(PID.TID 0000.0001) %MON ad_exf_adwspeed_del2         =   1.2165469852898E-07
(PID.TID 0000.0001) // =======================================================
(PID.TID 0000.0001) // End AD_MONITOR EXF statistics for iwhen =  1
(PID.TID 0000.0001) // =======================================================
(PID.TID 0000.0001) // =======================================================
(PID.TID 0000.0001) // Begin AD_MONITOR EXF statistics for iwhen =  2
(PID.TID 0000.0001) // =======================================================
(PID.TID 0000.0001) %MON ad_exf_tsnumber              =                 72004
(PID.TID 0000.0001) %MON ad_exf_time_sec              =   6.2211456000000E+09
(PID.TID 0000.0001) %MON ad_exf_adatemp_max           =   1.0256136840379E-01
(PID.TID 0000.0001) %MON ad_exf_adatemp_min           =  -8.8673523402628E-02
(PID.TID 0000.0001) %MON ad_exf_adatemp_mean          =   5.4170079627778E-03
(PID.TID 0000.0001) %MON ad_exf_adatemp_sd            =   1.4250409930665E-02
(PID.TID 0000.0001) %MON ad_exf_adatemp_del2          =   2.5474206991020E-04
(PID.TID 0000.0001) %MON ad_exf_adaqh_max             =   2.3635601298247E+02
(PID.TID 0000.0001) %MON ad_exf_adaqh_min             =  -3.0118949037306E+02
(PID.TID 0000.0001) %MON ad_exf_adaqh_mean            =   1.1814874978502E+01
(PID.TID 0000.0001) %MON ad_exf_adaqh_sd              =   3.5047710589614E+01
(PID.TID 0000.0001) %MON ad_exf_adaqh_del2            =   6.0054550792323E-01
(PID.TID 0000.0001) %MON ad_exf_adlwflux_max          =   0.0000000000000E+00
(PID.TID 0000.0001) %MON ad_exf_adlwflux_min          =   0.0000000000000E+00
(PID.TID 0000.0001) %MON ad_exf_adlwflux_mean         =   0.0000000000000E+00
(PID.TID 0000.0001) %MON ad_exf_adlwflux_sd           =   0.0000000000000E+00
(PID.TID 0000.0001) %MON ad_exf_adlwflux_del2         =   0.0000000000000E+00
(PID.TID 0000.0001) %MON ad_exf_adprecip_max          =   2.4843848086106E+05
(PID.TID 0000.0001) %MON ad_exf_adprecip_min          =  -9.8086582621334E+04
(PID.TID 0000.0001) %MON ad_exf_adprecip_mean         =   1.0608664949397E+04
(PID.TID 0000.0001) %MON ad_exf_adprecip_sd           =   2.9907543481850E+04
(PID.TID 0000.0001) %MON ad_exf_adprecip_del2         =   4.4574080472798E+02
(PID.TID 0000.0001) %MON ad_exf_adswflux_max          =   0.0000000000000E+00
(PID.TID 0000.0001) %MON ad_exf_adswflux_min          =   0.0000000000000E+00
(PID.TID 0000.0001) %MON ad_exf_adswflux_mean         =   0.0000000000000E+00
(PID.TID 0000.0001) %MON ad_exf_adswflux_sd           =   0.0000000000000E+00
(PID.TID 0000.0001) %MON ad_exf_adswflux_del2         =   0.0000000000000E+00
(PID.TID 0000.0001) %MON ad_exf_adswdown_max          =   6.1479315575678E-03
(PID.TID 0000.0001) %MON ad_exf_adswdown_min          =  -6.2355890879899E-03
(PID.TID 0000.0001) %MON ad_exf_adswdown_mean         =   4.5047446552581E-04
(PID.TID 0000.0001) %MON ad_exf_adswdown_sd           =   1.0028852105489E-03
(PID.TID 0000.0001) %MON ad_exf_adswdown_del2         =   1.6466197864463E-05
(PID.TID 0000.0001) %MON ad_exf_adlwdown_max          =   6.5823678346550E-03
(PID.TID 0000.0001) %MON ad_exf_adlwdown_min          =  -6.6762195802890E-03
(PID.TID 0000.0001) %MON ad_exf_adlwdown_mean         =   4.8777676118751E-04
(PID.TID 0000.0001) %MON ad_exf_adlwdown_sd           =   1.1013079423365E-03
(PID.TID 0000.0001) %MON ad_exf_adlwdown_del2         =   1.8069625343045E-05
(PID.TID 0000.0001) %MON ad_exf_adrunoff_max          =   1.6317733274544E+05
(PID.TID 0000.0001) %MON ad_exf_adrunoff_min          =  -9.8086582621334E+04
(PID.TID 0000.0001) %MON ad_exf_adrunoff_mean         =   1.0529262979616E+04
(PID.TID 0000.0001) %MON ad_exf_adrunoff_sd           =   2.9598684830890E+04
(PID.TID 0000.0001) %MON ad_exf_adrunoff_del2         =   4.0321395498142E+02
(PID.TID 0000.0001) // =======================================================
(PID.TID 0000.0001) // End AD_MONITOR EXF statistics for iwhen =  2
(PID.TID 0000.0001) // =======================================================
 cg2d: Sum(rhs),rhsMax =   2.21267837814144E+03  2.07023143972986E+01
 cg2d: Sum(rhs),rhsMax =   2.21246319802766E+03  2.08570982773502E+01
 cg2d: Sum(rhs),rhsMax =   2.21246319802766E+03  2.08570982773502E+01
(PID.TID 0000.0001) // =======================================================
(PID.TID 0000.0001) // Begin AD_MONITOR dynamic field statistics
(PID.TID 0000.0001) // =======================================================
(PID.TID 0000.0001) %MON ad_time_tsnumber             =                 72004
(PID.TID 0000.0001) %MON ad_time_secondsf             =   6.2211456000000E+09
(PID.TID 0000.0001) %MON ad_dynstat_adeta_max         =   4.1247911595908E-02
(PID.TID 0000.0001) %MON ad_dynstat_adeta_min         =  -6.3867016401436E-02
(PID.TID 0000.0001) %MON ad_dynstat_adeta_mean        =  -1.3681173479910E-05
(PID.TID 0000.0001) %MON ad_dynstat_adeta_sd          =   2.2424198508257E-03
(PID.TID 0000.0001) %MON ad_dynstat_adeta_del2        =   9.8444422743095E-05
(PID.TID 0000.0001) %MON ad_dynstat_aduvel_max        =   2.4125137811386E+01
(PID.TID 0000.0001) %MON ad_dynstat_aduvel_min        =  -3.2468958287985E+01
(PID.TID 0000.0001) %MON ad_dynstat_aduvel_mean       =   1.5947867075792E-02
(PID.TID 0000.0001) %MON ad_dynstat_aduvel_sd         =   1.2022168784968E+00
(PID.TID 0000.0001) %MON ad_dynstat_aduvel_del2       =   1.1113614418065E-02
(PID.TID 0000.0001) %MON ad_dynstat_advvel_max        =   2.1644618049833E+01
(PID.TID 0000.0001) %MON ad_dynstat_advvel_min        =  -1.7204820617932E+01
(PID.TID 0000.0001) %MON ad_dynstat_advvel_mean       =  -4.8530161126873E-02
(PID.TID 0000.0001) %MON ad_dynstat_advvel_sd         =   1.1107818152179E+00
(PID.TID 0000.0001) %MON ad_dynstat_advvel_del2       =   9.3337638454584E-03
(PID.TID 0000.0001) %MON ad_dynstat_adwvel_max        =   5.3127164970886E+01
(PID.TID 0000.0001) %MON ad_dynstat_adwvel_min        =  -2.7072027128437E+01
(PID.TID 0000.0001) %MON ad_dynstat_adwvel_mean       =   9.2880039394113E-03
(PID.TID 0000.0001) %MON ad_dynstat_adwvel_sd         =   5.3697425341658E-01
(PID.TID 0000.0001) %MON ad_dynstat_adwvel_del2       =   7.3261352459788E-03
(PID.TID 0000.0001) %MON ad_dynstat_adtheta_max       =   9.3251534146584E+01
(PID.TID 0000.0001) %MON ad_dynstat_adtheta_min       =  -9.7017764687019E+01
(PID.TID 0000.0001) %MON ad_dynstat_adtheta_mean      =  -1.0984111094423E+00
(PID.TID 0000.0001) %MON ad_dynstat_adtheta_sd        =   2.3202572215806E+00
(PID.TID 0000.0001) %MON ad_dynstat_adtheta_del2      =   9.0301327908720E-03
(PID.TID 0000.0001) %MON ad_dynstat_adsalt_max        =   2.2227389166871E+02
(PID.TID 0000.0001) %MON ad_dynstat_adsalt_min        =  -2.1651864050571E+02
(PID.TID 0000.0001) %MON ad_dynstat_adsalt_mean       =  -8.4721114658845E-04
(PID.TID 0000.0001) %MON ad_dynstat_adsalt_sd         =   6.6985038145831E-01
(PID.TID 0000.0001) %MON ad_dynstat_adsalt_del2       =   9.6564906991128E-03
(PID.TID 0000.0001) %MON ad_forcing_adqnet_max        =   0.0000000000000E+00
(PID.TID 0000.0001) %MON ad_forcing_adqnet_min        =   0.0000000000000E+00
(PID.TID 0000.0001) %MON ad_forcing_adqnet_mean       =   0.0000000000000E+00
(PID.TID 0000.0001) %MON ad_forcing_adqnet_sd         =   0.0000000000000E+00
(PID.TID 0000.0001) %MON ad_forcing_adqnet_del2       =   0.0000000000000E+00
(PID.TID 0000.0001) %MON ad_forcing_adqsw_max         =   0.0000000000000E+00
(PID.TID 0000.0001) %MON ad_forcing_adqsw_min         =   0.0000000000000E+00
(PID.TID 0000.0001) %MON ad_forcing_adqsw_mean        =   0.0000000000000E+00
(PID.TID 0000.0001) %MON ad_forcing_adqsw_sd          =   0.0000000000000E+00
(PID.TID 0000.0001) %MON ad_forcing_adqsw_del2        =   0.0000000000000E+00
(PID.TID 0000.0001) %MON ad_forcing_adempmr_max       =   0.0000000000000E+00
(PID.TID 0000.0001) %MON ad_forcing_adempmr_min       =   0.0000000000000E+00
(PID.TID 0000.0001) %MON ad_forcing_adempmr_mean      =   0.0000000000000E+00
(PID.TID 0000.0001) %MON ad_forcing_adempmr_sd        =   0.0000000000000E+00
(PID.TID 0000.0001) %MON ad_forcing_adempmr_del2      =   0.0000000000000E+00
(PID.TID 0000.0001) %MON ad_forcing_adfu_max          =   0.0000000000000E+00
(PID.TID 0000.0001) %MON ad_forcing_adfu_min          =   0.0000000000000E+00
(PID.TID 0000.0001) %MON ad_forcing_adfu_mean         =   0.0000000000000E+00
(PID.TID 0000.0001) %MON ad_forcing_adfu_sd           =   0.0000000000000E+00
(PID.TID 0000.0001) %MON ad_forcing_adfu_del2         =   0.0000000000000E+00
(PID.TID 0000.0001) %MON ad_forcing_adfv_max          =   0.0000000000000E+00
(PID.TID 0000.0001) %MON ad_forcing_adfv_min          =   0.0000000000000E+00
(PID.TID 0000.0001) %MON ad_forcing_adfv_mean         =   0.0000000000000E+00
(PID.TID 0000.0001) %MON ad_forcing_adfv_sd           =   0.0000000000000E+00
(PID.TID 0000.0001) %MON ad_forcing_adfv_del2         =   0.0000000000000E+00
(PID.TID 0000.0001) // =======================================================
(PID.TID 0000.0001) // End AD_MONITOR dynamic field statistics
(PID.TID 0000.0001) // =======================================================
(PID.TID 0000.0001) // =======================================================
(PID.TID 0000.0001) // Begin AD_MONITOR SEAICE statistics
(PID.TID 0000.0001) // =======================================================
(PID.TID 0000.0001) %MON ad_seaice_tsnumber           =                 72004
(PID.TID 0000.0001) %MON ad_seaice_time_sec           =   6.2211456000000E+09
(PID.TID 0000.0001) %MON ad_seaice_aduice_max         =   0.0000000000000E+00
(PID.TID 0000.0001) %MON ad_seaice_aduice_min         =   0.0000000000000E+00
(PID.TID 0000.0001) %MON ad_seaice_aduice_mean        =   0.0000000000000E+00
(PID.TID 0000.0001) %MON ad_seaice_aduice_sd          =   0.0000000000000E+00
(PID.TID 0000.0001) %MON ad_seaice_aduice_del2        =   0.0000000000000E+00
(PID.TID 0000.0001) %MON ad_seaice_advice_max         =   0.0000000000000E+00
(PID.TID 0000.0001) %MON ad_seaice_advice_min         =   0.0000000000000E+00
(PID.TID 0000.0001) %MON ad_seaice_advice_mean        =   0.0000000000000E+00
(PID.TID 0000.0001) %MON ad_seaice_advice_sd          =   0.0000000000000E+00
(PID.TID 0000.0001) %MON ad_seaice_advice_del2        =   0.0000000000000E+00
(PID.TID 0000.0001) %MON ad_seaice_adarea_max         =   8.0146188982125E-01
(PID.TID 0000.0001) %MON ad_seaice_adarea_min         =  -5.3434682902118E-01
(PID.TID 0000.0001) %MON ad_seaice_adarea_mean        =  -5.5082595822760E-04
(PID.TID 0000.0001) %MON ad_seaice_adarea_sd          =   3.1893566370586E-02
(PID.TID 0000.0001) %MON ad_seaice_adarea_del2        =   1.1346206631058E-03
(PID.TID 0000.0001) %MON ad_seaice_adheff_max         =   2.2486262377071E+01
(PID.TID 0000.0001) %MON ad_seaice_adheff_min         =  -2.2983149160041E+01
(PID.TID 0000.0001) %MON ad_seaice_adheff_mean        =  -1.6116113241344E+00
(PID.TID 0000.0001) %MON ad_seaice_adheff_sd          =   3.8238356564327E+00
(PID.TID 0000.0001) %MON ad_seaice_adheff_del2        =   6.0399326143373E-02
(PID.TID 0000.0001) %MON ad_seaice_adhsnow_max        =   8.1543588839927E+00
(PID.TID 0000.0001) %MON ad_seaice_adhsnow_min        =  -8.3345485964984E+00
(PID.TID 0000.0001) %MON ad_seaice_adhsnow_mean       =  -5.8584755619584E-01
(PID.TID 0000.0001) %MON ad_seaice_adhsnow_sd         =   1.3844568585675E+00
(PID.TID 0000.0001) %MON ad_seaice_adhsnow_del2       =   2.1878683370071E-02
(PID.TID 0000.0001) // =======================================================
(PID.TID 0000.0001) // End AD_MONITOR SEAICE statistics
(PID.TID 0000.0001) // =======================================================
 Calling cg2d from S/R CG2D_SAD
 cg2d: Sum(rhs),rhsMax =   0.00000000000000E+00  1.07285449893177E-04
(PID.TID 0000.0001) // =======================================================
(PID.TID 0000.0001) // Begin AD_MONITOR EXF statistics for iwhen =  3
(PID.TID 0000.0001) // =======================================================
(PID.TID 0000.0001) %MON ad_exf_tsnumber              =                 72003
(PID.TID 0000.0001) %MON ad_exf_time_sec              =   6.2210592000000E+09
(PID.TID 0000.0001) %MON ad_exf_adfu_max              =   7.7157113905552E-01
(PID.TID 0000.0001) %MON ad_exf_adfu_min              =  -1.4708931883676E+00
(PID.TID 0000.0001) %MON ad_exf_adfu_mean             =   4.9519720719775E-03
(PID.TID 0000.0001) %MON ad_exf_adfu_sd               =   1.2469475587680E-01
(PID.TID 0000.0001) %MON ad_exf_adfu_del2             =   3.7735284604825E-03
(PID.TID 0000.0001) %MON ad_exf_adfv_max              =   9.8820363144377E-01
(PID.TID 0000.0001) %MON ad_exf_adfv_min              =  -7.6743558772372E-01
(PID.TID 0000.0001) %MON ad_exf_adfv_mean             =   3.7018160895820E-03
(PID.TID 0000.0001) %MON ad_exf_adfv_sd               =   1.0683392900409E-01
(PID.TID 0000.0001) %MON ad_exf_adfv_del2             =   3.3505154432089E-03
(PID.TID 0000.0001) %MON ad_exf_adqnet_max            =   3.5178303607754E-02
(PID.TID 0000.0001) %MON ad_exf_adqnet_min            =  -6.5225718742617E-03
(PID.TID 0000.0001) %MON ad_exf_adqnet_mean           =  -4.7955155191368E-04
(PID.TID 0000.0001) %MON ad_exf_adqnet_sd             =   1.2088057248860E-03
(PID.TID 0000.0001) %MON ad_exf_adqnet_del2           =   1.9000197953859E-05
(PID.TID 0000.0001) %MON ad_exf_adempmr_max           =   1.1701554554947E+04
(PID.TID 0000.0001) %MON ad_exf_adempmr_min           =  -1.7430807490950E+03
(PID.TID 0000.0001) %MON ad_exf_adempmr_mean          =  -8.7325196894727E+00
(PID.TID 0000.0001) %MON ad_exf_adempmr_sd            =   1.9061688692030E+02
(PID.TID 0000.0001) %MON ad_exf_adempmr_del2          =   3.3795949322626E+00
(PID.TID 0000.0001) // =======================================================
(PID.TID 0000.0001) // End AD_MONITOR EXF statistics for iwhen =  3
(PID.TID 0000.0001) // =======================================================
(PID.TID 0000.0001) // =======================================================
(PID.TID 0000.0001) // Begin AD_MONITOR EXF statistics for iwhen =  1
(PID.TID 0000.0001) // =======================================================
(PID.TID 0000.0001) %MON ad_exf_tsnumber              =                 72003
(PID.TID 0000.0001) %MON ad_exf_time_sec              =   6.2210592000000E+09
(PID.TID 0000.0001) %MON ad_exf_adustress_max         =   1.3121864514049E+00
(PID.TID 0000.0001) %MON ad_exf_adustress_min         =  -4.6065942222622E+00
(PID.TID 0000.0001) %MON ad_exf_adustress_mean        =  -2.2976444230119E-03
(PID.TID 0000.0001) %MON ad_exf_adustress_sd          =   2.0595027160578E-01
(PID.TID 0000.0001) %MON ad_exf_adustress_del2        =   5.6060439967759E-03
(PID.TID 0000.0001) %MON ad_exf_advstress_max         =   9.8820363144377E-01
(PID.TID 0000.0001) %MON ad_exf_advstress_min         =  -2.8202283945509E+00
(PID.TID 0000.0001) %MON ad_exf_advstress_mean        =  -4.1636555682546E-03
(PID.TID 0000.0001) %MON ad_exf_advstress_sd          =   1.3697278363491E-01
(PID.TID 0000.0001) %MON ad_exf_advstress_del2        =   3.9410028261895E-03
(PID.TID 0000.0001) %MON ad_exf_adhflux_max           =   0.0000000000000E+00
(PID.TID 0000.0001) %MON ad_exf_adhflux_min           =   0.0000000000000E+00
(PID.TID 0000.0001) %MON ad_exf_adhflux_mean          =   0.0000000000000E+00
(PID.TID 0000.0001) %MON ad_exf_adhflux_sd            =   0.0000000000000E+00
(PID.TID 0000.0001) %MON ad_exf_adhflux_del2          =   0.0000000000000E+00
(PID.TID 0000.0001) %MON ad_exf_adsflux_max           =   0.0000000000000E+00
(PID.TID 0000.0001) %MON ad_exf_adsflux_min           =   0.0000000000000E+00
(PID.TID 0000.0001) %MON ad_exf_adsflux_mean          =   0.0000000000000E+00
(PID.TID 0000.0001) %MON ad_exf_adsflux_sd            =   0.0000000000000E+00
(PID.TID 0000.0001) %MON ad_exf_adsflux_del2          =   0.0000000000000E+00
(PID.TID 0000.0001) %MON ad_exf_adwspeed_max          =   1.9738703963216E-04
(PID.TID 0000.0001) %MON ad_exf_adwspeed_min          =  -3.4922852511342E-04
(PID.TID 0000.0001) %MON ad_exf_adwspeed_mean         =   7.2204127963573E-09
(PID.TID 0000.0001) %MON ad_exf_adwspeed_sd           =   7.5653803101686E-06
(PID.TID 0000.0001) %MON ad_exf_adwspeed_del2         =   1.7423408645608E-07
(PID.TID 0000.0001) // =======================================================
(PID.TID 0000.0001) // End AD_MONITOR EXF statistics for iwhen =  1
(PID.TID 0000.0001) // =======================================================
(PID.TID 0000.0001) // =======================================================
(PID.TID 0000.0001) // Begin AD_MONITOR EXF statistics for iwhen =  2
(PID.TID 0000.0001) // =======================================================
(PID.TID 0000.0001) %MON ad_exf_tsnumber              =                 72003
(PID.TID 0000.0001) %MON ad_exf_time_sec              =   6.2210592000000E+09
(PID.TID 0000.0001) %MON ad_exf_adatemp_max           =   1.0139407931221E-01
(PID.TID 0000.0001) %MON ad_exf_adatemp_min           =  -4.7910456675641E-01
(PID.TID 0000.0001) %MON ad_exf_adatemp_mean          =   5.3141366158364E-03
(PID.TID 0000.0001) %MON ad_exf_adatemp_sd            =   1.5767166248153E-02
(PID.TID 0000.0001) %MON ad_exf_adatemp_del2          =   2.6929988423444E-04
(PID.TID 0000.0001) %MON ad_exf_adaqh_max             =   2.3364059013845E+02
(PID.TID 0000.0001) %MON ad_exf_adaqh_min             =  -9.2386965674788E+02
(PID.TID 0000.0001) %MON ad_exf_adaqh_mean            =   1.1710463063574E+01
(PID.TID 0000.0001) %MON ad_exf_adaqh_sd              =   3.7196382538963E+01
(PID.TID 0000.0001) %MON ad_exf_adaqh_del2            =   6.4744327130193E-01
(PID.TID 0000.0001) %MON ad_exf_adlwflux_max          =   0.0000000000000E+00
(PID.TID 0000.0001) %MON ad_exf_adlwflux_min          =   0.0000000000000E+00
(PID.TID 0000.0001) %MON ad_exf_adlwflux_mean         =   0.0000000000000E+00
(PID.TID 0000.0001) %MON ad_exf_adlwflux_sd           =   0.0000000000000E+00
(PID.TID 0000.0001) %MON ad_exf_adlwflux_del2         =   0.0000000000000E+00
(PID.TID 0000.0001) %MON ad_exf_adprecip_max          =   1.7430807490950E+06
(PID.TID 0000.0001) %MON ad_exf_adprecip_min          =  -1.1701554554947E+07
(PID.TID 0000.0001) %MON ad_exf_adprecip_mean         =   9.0691681515942E+03
(PID.TID 0000.0001) %MON ad_exf_adprecip_sd           =   1.9040014383677E+05
(PID.TID 0000.0001) %MON ad_exf_adprecip_del2         =   3.3786901387321E+03
(PID.TID 0000.0001) %MON ad_exf_adswflux_max          =   0.0000000000000E+00
(PID.TID 0000.0001) %MON ad_exf_adswflux_min          =   0.0000000000000E+00
(PID.TID 0000.0001) %MON ad_exf_adswflux_mean         =   0.0000000000000E+00
(PID.TID 0000.0001) %MON ad_exf_adswflux_sd           =   0.0000000000000E+00
(PID.TID 0000.0001) %MON ad_exf_adswflux_del2         =   0.0000000000000E+00
(PID.TID 0000.0001) %MON ad_exf_adswdown_max          =   6.0920821305604E-03
(PID.TID 0000.0001) %MON ad_exf_adswdown_min          =  -3.1152647256765E-02
(PID.TID 0000.0001) %MON ad_exf_adswdown_mean         =   4.4230303878968E-04
(PID.TID 0000.0001) %MON ad_exf_adswdown_sd           =   1.0946617130014E-03
(PID.TID 0000.0001) %MON ad_exf_adswdown_del2         =   1.7195936335674E-05
(PID.TID 0000.0001) %MON ad_exf_adlwdown_max          =   6.5225718742617E-03
(PID.TID 0000.0001) %MON ad_exf_adlwdown_min          =  -3.5178303607754E-02
(PID.TID 0000.0001) %MON ad_exf_adlwdown_mean         =   4.7855250971376E-04
(PID.TID 0000.0001) %MON ad_exf_adlwdown_sd           =   1.2083696882228E-03
(PID.TID 0000.0001) %MON ad_exf_adlwdown_del2         =   1.8911854689666E-05
(PID.TID 0000.0001) %MON ad_exf_adrunoff_max          =   1.7430807490950E+06
(PID.TID 0000.0001) %MON ad_exf_adrunoff_min          =  -1.1701554554947E+07
(PID.TID 0000.0001) %MON ad_exf_adrunoff_mean         =   8.7325196894727E+03
(PID.TID 0000.0001) %MON ad_exf_adrunoff_sd           =   1.9061688692030E+05
(PID.TID 0000.0001) %MON ad_exf_adrunoff_del2         =   3.3795949322626E+03
(PID.TID 0000.0001) // =======================================================
(PID.TID 0000.0001) // End AD_MONITOR EXF statistics for iwhen =  2
(PID.TID 0000.0001) // =======================================================
 cg2d: Sum(rhs),rhsMax =   2.21267837814144E+03  2.07023143972986E+01
(PID.TID 0000.0001) // =======================================================
(PID.TID 0000.0001) // Begin AD_MONITOR dynamic field statistics
(PID.TID 0000.0001) // =======================================================
(PID.TID 0000.0001) %MON ad_time_tsnumber             =                 72003
(PID.TID 0000.0001) %MON ad_time_secondsf             =   6.2210592000000E+09
(PID.TID 0000.0001) %MON ad_dynstat_adeta_max         =   4.3811681981817E-02
(PID.TID 0000.0001) %MON ad_dynstat_adeta_min         =  -6.0368343647511E-02
(PID.TID 0000.0001) %MON ad_dynstat_adeta_mean        =  -1.2805161014175E-05
(PID.TID 0000.0001) %MON ad_dynstat_adeta_sd          =   2.2063300026295E-03
(PID.TID 0000.0001) %MON ad_dynstat_adeta_del2        =   9.6740974911323E-05
(PID.TID 0000.0001) %MON ad_dynstat_aduvel_max        =   4.7074169619927E+01
(PID.TID 0000.0001) %MON ad_dynstat_aduvel_min        =  -6.4185459333888E+01
(PID.TID 0000.0001) %MON ad_dynstat_aduvel_mean       =   5.6803711935298E-02
(PID.TID 0000.0001) %MON ad_dynstat_aduvel_sd         =   2.3876083487169E+00
(PID.TID 0000.0001) %MON ad_dynstat_aduvel_del2       =   2.1583896410010E-02
(PID.TID 0000.0001) %MON ad_dynstat_advvel_max        =   4.5092821481915E+01
(PID.TID 0000.0001) %MON ad_dynstat_advvel_min        =  -3.1188038925184E+01
(PID.TID 0000.0001) %MON ad_dynstat_advvel_mean       =  -7.2801602746780E-02
(PID.TID 0000.0001) %MON ad_dynstat_advvel_sd         =   2.1909074870526E+00
(PID.TID 0000.0001) %MON ad_dynstat_advvel_del2       =   1.8014507301727E-02
(PID.TID 0000.0001) %MON ad_dynstat_adwvel_max        =   8.5141752444095E+01
(PID.TID 0000.0001) %MON ad_dynstat_adwvel_min        =  -4.4354878324818E+01
(PID.TID 0000.0001) %MON ad_dynstat_adwvel_mean       =   1.5332708316047E-02
(PID.TID 0000.0001) %MON ad_dynstat_adwvel_sd         =   8.5994510310553E-01
(PID.TID 0000.0001) %MON ad_dynstat_adwvel_del2       =   1.1624115034605E-02
(PID.TID 0000.0001) %MON ad_dynstat_adtheta_max       =   4.1678390182476E+01
(PID.TID 0000.0001) %MON ad_dynstat_adtheta_min       =  -3.9846379264226E+01
(PID.TID 0000.0001) %MON ad_dynstat_adtheta_mean      =  -1.0990190603032E+00
(PID.TID 0000.0001) %MON ad_dynstat_adtheta_sd        =   2.3078284948165E+00
(PID.TID 0000.0001) %MON ad_dynstat_adtheta_del2      =   9.5435556262694E-03
(PID.TID 0000.0001) %MON ad_dynstat_adsalt_max        =   9.0893795005043E+01
(PID.TID 0000.0001) %MON ad_dynstat_adsalt_min        =  -9.3962097866745E+01
(PID.TID 0000.0001) %MON ad_dynstat_adsalt_mean       =  -1.6123648077336E-03
(PID.TID 0000.0001) %MON ad_dynstat_adsalt_sd         =   6.1876447020895E-01
(PID.TID 0000.0001) %MON ad_dynstat_adsalt_del2       =   1.6325640154555E-02
(PID.TID 0000.0001) %MON ad_forcing_adqnet_max        =   0.0000000000000E+00
(PID.TID 0000.0001) %MON ad_forcing_adqnet_min        =   0.0000000000000E+00
(PID.TID 0000.0001) %MON ad_forcing_adqnet_mean       =   0.0000000000000E+00
(PID.TID 0000.0001) %MON ad_forcing_adqnet_sd         =   0.0000000000000E+00
(PID.TID 0000.0001) %MON ad_forcing_adqnet_del2       =   0.0000000000000E+00
(PID.TID 0000.0001) %MON ad_forcing_adqsw_max         =   0.0000000000000E+00
(PID.TID 0000.0001) %MON ad_forcing_adqsw_min         =   0.0000000000000E+00
(PID.TID 0000.0001) %MON ad_forcing_adqsw_mean        =   0.0000000000000E+00
(PID.TID 0000.0001) %MON ad_forcing_adqsw_sd          =   0.0000000000000E+00
(PID.TID 0000.0001) %MON ad_forcing_adqsw_del2        =   0.0000000000000E+00
(PID.TID 0000.0001) %MON ad_forcing_adempmr_max       =   0.0000000000000E+00
(PID.TID 0000.0001) %MON ad_forcing_adempmr_min       =   0.0000000000000E+00
(PID.TID 0000.0001) %MON ad_forcing_adempmr_mean      =   0.0000000000000E+00
(PID.TID 0000.0001) %MON ad_forcing_adempmr_sd        =   0.0000000000000E+00
(PID.TID 0000.0001) %MON ad_forcing_adempmr_del2      =   0.0000000000000E+00
(PID.TID 0000.0001) %MON ad_forcing_adfu_max          =   0.0000000000000E+00
(PID.TID 0000.0001) %MON ad_forcing_adfu_min          =   0.0000000000000E+00
(PID.TID 0000.0001) %MON ad_forcing_adfu_mean         =   0.0000000000000E+00
(PID.TID 0000.0001) %MON ad_forcing_adfu_sd           =   0.0000000000000E+00
(PID.TID 0000.0001) %MON ad_forcing_adfu_del2         =   0.0000000000000E+00
(PID.TID 0000.0001) %MON ad_forcing_adfv_max          =   0.0000000000000E+00
(PID.TID 0000.0001) %MON ad_forcing_adfv_min          =   0.0000000000000E+00
(PID.TID 0000.0001) %MON ad_forcing_adfv_mean         =   0.0000000000000E+00
(PID.TID 0000.0001) %MON ad_forcing_adfv_sd           =   0.0000000000000E+00
(PID.TID 0000.0001) %MON ad_forcing_adfv_del2         =   0.0000000000000E+00
(PID.TID 0000.0001) // =======================================================
(PID.TID 0000.0001) // End AD_MONITOR dynamic field statistics
(PID.TID 0000.0001) // =======================================================
(PID.TID 0000.0001) // =======================================================
(PID.TID 0000.0001) // Begin AD_MONITOR SEAICE statistics
(PID.TID 0000.0001) // =======================================================
(PID.TID 0000.0001) %MON ad_seaice_tsnumber           =                 72003
(PID.TID 0000.0001) %MON ad_seaice_time_sec           =   6.2210592000000E+09
(PID.TID 0000.0001) %MON ad_seaice_aduice_max         =   0.0000000000000E+00
(PID.TID 0000.0001) %MON ad_seaice_aduice_min         =   0.0000000000000E+00
(PID.TID 0000.0001) %MON ad_seaice_aduice_mean        =   0.0000000000000E+00
(PID.TID 0000.0001) %MON ad_seaice_aduice_sd          =   0.0000000000000E+00
(PID.TID 0000.0001) %MON ad_seaice_aduice_del2        =   0.0000000000000E+00
(PID.TID 0000.0001) %MON ad_seaice_advice_max         =   0.0000000000000E+00
(PID.TID 0000.0001) %MON ad_seaice_advice_min         =   0.0000000000000E+00
(PID.TID 0000.0001) %MON ad_seaice_advice_mean        =   0.0000000000000E+00
(PID.TID 0000.0001) %MON ad_seaice_advice_sd          =   0.0000000000000E+00
(PID.TID 0000.0001) %MON ad_seaice_advice_del2        =   0.0000000000000E+00
(PID.TID 0000.0001) %MON ad_seaice_adarea_max         =   8.0071427367452E-01
(PID.TID 0000.0001) %MON ad_seaice_adarea_min         =  -5.2134156285729E-01
(PID.TID 0000.0001) %MON ad_seaice_adarea_mean        =  -7.7022090992194E-04
(PID.TID 0000.0001) %MON ad_seaice_adarea_sd          =   3.4135833816722E-02
(PID.TID 0000.0001) %MON ad_seaice_adarea_del2        =   1.1393382304801E-03
(PID.TID 0000.0001) %MON ad_seaice_adheff_max         =   2.2202443777958E+01
(PID.TID 0000.0001) %MON ad_seaice_adheff_min         =  -2.2557444325729E+01
(PID.TID 0000.0001) %MON ad_seaice_adheff_mean        =  -1.5855278349787E+00
(PID.TID 0000.0001) %MON ad_seaice_adheff_sd          =   3.7704496819427E+00
(PID.TID 0000.0001) %MON ad_seaice_adheff_del2        =   5.9312319771862E-02
(PID.TID 0000.0001) %MON ad_seaice_adhsnow_max        =   8.0513175404503E+00
(PID.TID 0000.0001) %MON ad_seaice_adhsnow_min        =  -8.1803244238432E+00
(PID.TID 0000.0001) %MON ad_seaice_adhsnow_mean       =  -5.7666366489648E-01
(PID.TID 0000.0001) %MON ad_seaice_adhsnow_sd         =   1.3643951683958E+00
(PID.TID 0000.0001) %MON ad_seaice_adhsnow_del2       =   2.1626636431325E-02
(PID.TID 0000.0001) // =======================================================
(PID.TID 0000.0001) // End AD_MONITOR SEAICE statistics
(PID.TID 0000.0001) // =======================================================
 Calling cg2d from S/R CG2D_SAD
 cg2d: Sum(rhs),rhsMax =   0.00000000000000E+00  1.08297201425657E-04
(PID.TID 0000.0001) // =======================================================
(PID.TID 0000.0001) // Begin AD_MONITOR EXF statistics for iwhen =  3
(PID.TID 0000.0001) // =======================================================
(PID.TID 0000.0001) %MON ad_exf_tsnumber              =                 72002
(PID.TID 0000.0001) %MON ad_exf_time_sec              =   6.2209728000000E+09
(PID.TID 0000.0001) %MON ad_exf_adfu_max              =   8.8384237107286E-01
(PID.TID 0000.0001) %MON ad_exf_adfu_min              =  -2.1098159861038E+00
(PID.TID 0000.0001) %MON ad_exf_adfu_mean             =   6.2074401894484E-03
(PID.TID 0000.0001) %MON ad_exf_adfu_sd               =   1.8247382611902E-01
(PID.TID 0000.0001) %MON ad_exf_adfu_del2             =   5.3891527811217E-03
(PID.TID 0000.0001) %MON ad_exf_adfv_max              =   1.4317920102051E+00
(PID.TID 0000.0001) %MON ad_exf_adfv_min              =  -1.0851424882566E+00
(PID.TID 0000.0001) %MON ad_exf_adfv_mean             =   2.7799798677224E-03
(PID.TID 0000.0001) %MON ad_exf_adfv_sd               =   1.5446712462043E-01
(PID.TID 0000.0001) %MON ad_exf_adfv_del2             =   4.6759386788329E-03
(PID.TID 0000.0001) %MON ad_exf_adqnet_max            =   1.6047557163807E-02
(PID.TID 0000.0001) %MON ad_exf_adqnet_min            =  -7.3121528732402E-03
(PID.TID 0000.0001) %MON ad_exf_adqnet_mean           =  -4.7838677108294E-04
(PID.TID 0000.0001) %MON ad_exf_adqnet_sd             =   1.1135474819192E-03
(PID.TID 0000.0001) %MON ad_exf_adqnet_del2           =   2.1575000469275E-05
(PID.TID 0000.0001) %MON ad_exf_adempmr_max           =   5.1299388497401E+03
(PID.TID 0000.0001) %MON ad_exf_adempmr_min           =  -2.9426301152056E+03
(PID.TID 0000.0001) %MON ad_exf_adempmr_mean          =  -1.2087543864333E+01
(PID.TID 0000.0001) %MON ad_exf_adempmr_sd            =   1.5123221066558E+02
(PID.TID 0000.0001) %MON ad_exf_adempmr_del2          =   6.2805372249114E+00
(PID.TID 0000.0001) // =======================================================
(PID.TID 0000.0001) // End AD_MONITOR EXF statistics for iwhen =  3
(PID.TID 0000.0001) // =======================================================
(PID.TID 0000.0001) // =======================================================
(PID.TID 0000.0001) // Begin AD_MONITOR EXF statistics for iwhen =  1
(PID.TID 0000.0001) // =======================================================
(PID.TID 0000.0001) %MON ad_exf_tsnumber              =                 72002
(PID.TID 0000.0001) %MON ad_exf_time_sec              =   6.2209728000000E+09
(PID.TID 0000.0001) %MON ad_exf_adustress_max         =   1.3617857440654E+00
(PID.TID 0000.0001) %MON ad_exf_adustress_min         =  -4.5850787811278E+00
(PID.TID 0000.0001) %MON ad_exf_adustress_mean        =  -2.5247254093714E-04
(PID.TID 0000.0001) %MON ad_exf_adustress_sd          =   2.4728568421612E-01
(PID.TID 0000.0001) %MON ad_exf_adustress_del2        =   6.7982132887021E-03
(PID.TID 0000.0001) %MON ad_exf_advstress_max         =   1.4317920102051E+00
(PID.TID 0000.0001) %MON ad_exf_advstress_min         =  -3.0104052357000E+00
(PID.TID 0000.0001) %MON ad_exf_advstress_mean        =  -5.0370380529384E-03
(PID.TID 0000.0001) %MON ad_exf_advstress_sd          =   1.8232096685241E-01
(PID.TID 0000.0001) %MON ad_exf_advstress_del2        =   5.1776463634808E-03
(PID.TID 0000.0001) %MON ad_exf_adhflux_max           =   0.0000000000000E+00
(PID.TID 0000.0001) %MON ad_exf_adhflux_min           =   0.0000000000000E+00
(PID.TID 0000.0001) %MON ad_exf_adhflux_mean          =   0.0000000000000E+00
(PID.TID 0000.0001) %MON ad_exf_adhflux_sd            =   0.0000000000000E+00
(PID.TID 0000.0001) %MON ad_exf_adhflux_del2          =   0.0000000000000E+00
(PID.TID 0000.0001) %MON ad_exf_adsflux_max           =   0.0000000000000E+00
(PID.TID 0000.0001) %MON ad_exf_adsflux_min           =   0.0000000000000E+00
(PID.TID 0000.0001) %MON ad_exf_adsflux_mean          =   0.0000000000000E+00
(PID.TID 0000.0001) %MON ad_exf_adsflux_sd            =   0.0000000000000E+00
(PID.TID 0000.0001) %MON ad_exf_adsflux_del2          =   0.0000000000000E+00
(PID.TID 0000.0001) %MON ad_exf_adwspeed_max          =   7.0824367975708E-05
(PID.TID 0000.0001) %MON ad_exf_adwspeed_min          =  -3.4684881289139E-04
(PID.TID 0000.0001) %MON ad_exf_adwspeed_mean         =  -1.3399755265787E-07
(PID.TID 0000.0001) %MON ad_exf_adwspeed_sd           =   7.1305495366452E-06
(PID.TID 0000.0001) %MON ad_exf_adwspeed_del2         =   2.0454804520803E-07
(PID.TID 0000.0001) // =======================================================
(PID.TID 0000.0001) // End AD_MONITOR EXF statistics for iwhen =  1
(PID.TID 0000.0001) // =======================================================
(PID.TID 0000.0001) // =======================================================
(PID.TID 0000.0001) // Begin AD_MONITOR EXF statistics for iwhen =  2
(PID.TID 0000.0001) // =======================================================
(PID.TID 0000.0001) %MON ad_exf_tsnumber              =                 72002
(PID.TID 0000.0001) %MON ad_exf_time_sec              =   6.2209728000000E+09
(PID.TID 0000.0001) %MON ad_exf_adatemp_max           =   1.0418554624307E-01
(PID.TID 0000.0001) %MON ad_exf_adatemp_min           =  -2.1824016700785E-01
(PID.TID 0000.0001) %MON ad_exf_adatemp_mean          =   5.3748449478401E-03
(PID.TID 0000.0001) %MON ad_exf_adatemp_sd            =   1.4413795496227E-02
(PID.TID 0000.0001) %MON ad_exf_adatemp_del2          =   3.0854332288509E-04
(PID.TID 0000.0001) %MON ad_exf_adaqh_max             =   2.5846841751268E+02
(PID.TID 0000.0001) %MON ad_exf_adaqh_min             =  -4.1961195732214E+02
(PID.TID 0000.0001) %MON ad_exf_adaqh_mean            =   1.1903859963119E+01
(PID.TID 0000.0001) %MON ad_exf_adaqh_sd              =   3.5209621900202E+01
(PID.TID 0000.0001) %MON ad_exf_adaqh_del2            =   7.6655257447215E-01
(PID.TID 0000.0001) %MON ad_exf_adlwflux_max          =   0.0000000000000E+00
(PID.TID 0000.0001) %MON ad_exf_adlwflux_min          =   0.0000000000000E+00
(PID.TID 0000.0001) %MON ad_exf_adlwflux_mean         =   0.0000000000000E+00
(PID.TID 0000.0001) %MON ad_exf_adlwflux_sd           =   0.0000000000000E+00
(PID.TID 0000.0001) %MON ad_exf_adlwflux_del2         =   0.0000000000000E+00
(PID.TID 0000.0001) %MON ad_exf_adprecip_max          =   2.9426301152056E+06
(PID.TID 0000.0001) %MON ad_exf_adprecip_min          =  -5.1299388497401E+06
(PID.TID 0000.0001) %MON ad_exf_adprecip_mean         =   1.2303704723482E+04
(PID.TID 0000.0001) %MON ad_exf_adprecip_sd           =   1.5104272327878E+05
(PID.TID 0000.0001) %MON ad_exf_adprecip_del2         =   6.2805964457916E+03
(PID.TID 0000.0001) %MON ad_exf_adswflux_max          =   0.0000000000000E+00
(PID.TID 0000.0001) %MON ad_exf_adswflux_min          =   0.0000000000000E+00
(PID.TID 0000.0001) %MON ad_exf_adswflux_mean         =   0.0000000000000E+00
(PID.TID 0000.0001) %MON ad_exf_adswflux_sd           =   0.0000000000000E+00
(PID.TID 0000.0001) %MON ad_exf_adswflux_del2         =   0.0000000000000E+00
(PID.TID 0000.0001) %MON ad_exf_adswdown_max          =   6.4824519137331E-03
(PID.TID 0000.0001) %MON ad_exf_adswdown_min          =  -1.4179804721135E-02
(PID.TID 0000.0001) %MON ad_exf_adswdown_mean         =   4.4334163762507E-04
(PID.TID 0000.0001) %MON ad_exf_adswdown_sd           =   1.0102529564832E-03
(PID.TID 0000.0001) %MON ad_exf_adswdown_del2         =   1.9429688579778E-05
(PID.TID 0000.0001) %MON ad_exf_adlwdown_max          =   7.3121528732402E-03
(PID.TID 0000.0001) %MON ad_exf_adlwdown_min          =  -1.6047557163807E-02
(PID.TID 0000.0001) %MON ad_exf_adlwdown_mean         =   4.7989012531886E-04
(PID.TID 0000.0001) %MON ad_exf_adlwdown_sd           =   1.1118047117623E-03
(PID.TID 0000.0001) %MON ad_exf_adlwdown_del2         =   2.1517555421032E-05
(PID.TID 0000.0001) %MON ad_exf_adrunoff_max          =   2.9426301152056E+06
(PID.TID 0000.0001) %MON ad_exf_adrunoff_min          =  -5.1299388497401E+06
(PID.TID 0000.0001) %MON ad_exf_adrunoff_mean         =   1.2087543864333E+04
(PID.TID 0000.0001) %MON ad_exf_adrunoff_sd           =   1.5123221066558E+05
(PID.TID 0000.0001) %MON ad_exf_adrunoff_del2         =   6.2805372249114E+03
(PID.TID 0000.0001) // =======================================================
(PID.TID 0000.0001) // End AD_MONITOR EXF statistics for iwhen =  2
(PID.TID 0000.0001) // =======================================================
(PID.TID 0000.0001) SOLVE_FOR_PRESSURE: putPmEinXvector =    F
 cg2d: Sum(rhs),rhsMax =   2.21291478463262E+03  2.01372754051185E+01
 cg2d: Sum(rhs),rhsMax =   2.21288691540957E+03  2.05338888896341E+01
 cg2d: Sum(rhs),rhsMax =   2.21288691540957E+03  2.05338888896341E+01
(PID.TID 0000.0001) // =======================================================
(PID.TID 0000.0001) // Begin AD_MONITOR dynamic field statistics
(PID.TID 0000.0001) // =======================================================
(PID.TID 0000.0001) %MON ad_time_tsnumber             =                 72002
(PID.TID 0000.0001) %MON ad_time_secondsf             =   6.2209728000000E+09
(PID.TID 0000.0001) %MON ad_dynstat_adeta_max         =   4.4846451040870E-02
(PID.TID 0000.0001) %MON ad_dynstat_adeta_min         =  -5.7148915167273E-02
(PID.TID 0000.0001) %MON ad_dynstat_adeta_mean        =  -1.1685236962541E-05
(PID.TID 0000.0001) %MON ad_dynstat_adeta_sd          =   2.1773307452945E-03
(PID.TID 0000.0001) %MON ad_dynstat_adeta_del2        =   9.5349220505727E-05
(PID.TID 0000.0001) %MON ad_dynstat_aduvel_max        =   6.8720724956101E+01
(PID.TID 0000.0001) %MON ad_dynstat_aduvel_min        =  -8.9236562803405E+01
(PID.TID 0000.0001) %MON ad_dynstat_aduvel_mean       =   1.0560580434502E-01
(PID.TID 0000.0001) %MON ad_dynstat_aduvel_sd         =   3.5272523374746E+00
(PID.TID 0000.0001) %MON ad_dynstat_aduvel_del2       =   3.1417480183456E-02
(PID.TID 0000.0001) %MON ad_dynstat_advvel_max        =   6.4963514410140E+01
(PID.TID 0000.0001) %MON ad_dynstat_advvel_min        =  -4.2995577368284E+01
(PID.TID 0000.0001) %MON ad_dynstat_advvel_mean       =  -5.8052749320241E-02
(PID.TID 0000.0001) %MON ad_dynstat_advvel_sd         =   3.2302911753218E+00
(PID.TID 0000.0001) %MON ad_dynstat_advvel_del2       =   2.6247097124010E-02
(PID.TID 0000.0001) %MON ad_dynstat_adwvel_max        =   1.1612252669323E+02
(PID.TID 0000.0001) %MON ad_dynstat_adwvel_min        =  -6.2601535425716E+01
(PID.TID 0000.0001) %MON ad_dynstat_adwvel_mean       =   2.1240935602041E-02
(PID.TID 0000.0001) %MON ad_dynstat_adwvel_sd         =   1.1770271556966E+00
(PID.TID 0000.0001) %MON ad_dynstat_adwvel_del2       =   1.5825819151430E-02
(PID.TID 0000.0001) %MON ad_dynstat_adtheta_max       =   3.5251989125776E+01
(PID.TID 0000.0001) %MON ad_dynstat_adtheta_min       =  -3.1896020151446E+01
(PID.TID 0000.0001) %MON ad_dynstat_adtheta_mean      =  -1.0993507608668E+00
(PID.TID 0000.0001) %MON ad_dynstat_adtheta_sd        =   2.3052049848589E+00
(PID.TID 0000.0001) %MON ad_dynstat_adtheta_del2      =   9.6842442782822E-03
(PID.TID 0000.0001) %MON ad_dynstat_adsalt_max        =   1.1054839650794E+02
(PID.TID 0000.0001) %MON ad_dynstat_adsalt_min        =  -1.0718132151670E+02
(PID.TID 0000.0001) %MON ad_dynstat_adsalt_mean       =  -2.9889859240490E-03
(PID.TID 0000.0001) %MON ad_dynstat_adsalt_sd         =   8.0762557222929E-01
(PID.TID 0000.0001) %MON ad_dynstat_adsalt_del2       =   1.9992014431886E-02
(PID.TID 0000.0001) %MON ad_forcing_adqnet_max        =   0.0000000000000E+00
(PID.TID 0000.0001) %MON ad_forcing_adqnet_min        =   0.0000000000000E+00
(PID.TID 0000.0001) %MON ad_forcing_adqnet_mean       =   0.0000000000000E+00
(PID.TID 0000.0001) %MON ad_forcing_adqnet_sd         =   0.0000000000000E+00
(PID.TID 0000.0001) %MON ad_forcing_adqnet_del2       =   0.0000000000000E+00
(PID.TID 0000.0001) %MON ad_forcing_adqsw_max         =   0.0000000000000E+00
(PID.TID 0000.0001) %MON ad_forcing_adqsw_min         =   0.0000000000000E+00
(PID.TID 0000.0001) %MON ad_forcing_adqsw_mean        =   0.0000000000000E+00
(PID.TID 0000.0001) %MON ad_forcing_adqsw_sd          =   0.0000000000000E+00
(PID.TID 0000.0001) %MON ad_forcing_adqsw_del2        =   0.0000000000000E+00
(PID.TID 0000.0001) %MON ad_forcing_adempmr_max       =   0.0000000000000E+00
(PID.TID 0000.0001) %MON ad_forcing_adempmr_min       =   0.0000000000000E+00
(PID.TID 0000.0001) %MON ad_forcing_adempmr_mean      =   0.0000000000000E+00
(PID.TID 0000.0001) %MON ad_forcing_adempmr_sd        =   0.0000000000000E+00
(PID.TID 0000.0001) %MON ad_forcing_adempmr_del2      =   0.0000000000000E+00
(PID.TID 0000.0001) %MON ad_forcing_adfu_max          =   0.0000000000000E+00
(PID.TID 0000.0001) %MON ad_forcing_adfu_min          =   0.0000000000000E+00
(PID.TID 0000.0001) %MON ad_forcing_adfu_mean         =   0.0000000000000E+00
(PID.TID 0000.0001) %MON ad_forcing_adfu_sd           =   0.0000000000000E+00
(PID.TID 0000.0001) %MON ad_forcing_adfu_del2         =   0.0000000000000E+00
(PID.TID 0000.0001) %MON ad_forcing_adfv_max          =   0.0000000000000E+00
(PID.TID 0000.0001) %MON ad_forcing_adfv_min          =   0.0000000000000E+00
(PID.TID 0000.0001) %MON ad_forcing_adfv_mean         =   0.0000000000000E+00
(PID.TID 0000.0001) %MON ad_forcing_adfv_sd           =   0.0000000000000E+00
(PID.TID 0000.0001) %MON ad_forcing_adfv_del2         =   0.0000000000000E+00
(PID.TID 0000.0001) // =======================================================
(PID.TID 0000.0001) // End AD_MONITOR dynamic field statistics
(PID.TID 0000.0001) // =======================================================
(PID.TID 0000.0001) // =======================================================
(PID.TID 0000.0001) // Begin AD_MONITOR SEAICE statistics
(PID.TID 0000.0001) // =======================================================
(PID.TID 0000.0001) %MON ad_seaice_tsnumber           =                 72002
(PID.TID 0000.0001) %MON ad_seaice_time_sec           =   6.2209728000000E+09
(PID.TID 0000.0001) %MON ad_seaice_aduice_max         =   0.0000000000000E+00
(PID.TID 0000.0001) %MON ad_seaice_aduice_min         =   0.0000000000000E+00
(PID.TID 0000.0001) %MON ad_seaice_aduice_mean        =   0.0000000000000E+00
(PID.TID 0000.0001) %MON ad_seaice_aduice_sd          =   0.0000000000000E+00
(PID.TID 0000.0001) %MON ad_seaice_aduice_del2        =   0.0000000000000E+00
(PID.TID 0000.0001) %MON ad_seaice_advice_max         =   0.0000000000000E+00
(PID.TID 0000.0001) %MON ad_seaice_advice_min         =   0.0000000000000E+00
(PID.TID 0000.0001) %MON ad_seaice_advice_mean        =   0.0000000000000E+00
(PID.TID 0000.0001) %MON ad_seaice_advice_sd          =   0.0000000000000E+00
(PID.TID 0000.0001) %MON ad_seaice_advice_del2        =   0.0000000000000E+00
(PID.TID 0000.0001) %MON ad_seaice_adarea_max         =   8.1666343359236E-01
(PID.TID 0000.0001) %MON ad_seaice_adarea_min         =  -4.6462192892122E-01
(PID.TID 0000.0001) %MON ad_seaice_adarea_mean        =  -6.5476865087919E-04
(PID.TID 0000.0001) %MON ad_seaice_adarea_sd          =   3.6337580103724E-02
(PID.TID 0000.0001) %MON ad_seaice_adarea_del2        =   1.2030703648835E-03
(PID.TID 0000.0001) %MON ad_seaice_adheff_max         =   2.1686678705372E+01
(PID.TID 0000.0001) %MON ad_seaice_adheff_min         =  -2.2268948426876E+01
(PID.TID 0000.0001) %MON ad_seaice_adheff_mean        =  -1.5599334531016E+00
(PID.TID 0000.0001) %MON ad_seaice_adheff_sd          =   3.7211652120915E+00
(PID.TID 0000.0001) %MON ad_seaice_adheff_del2        =   5.9437151858895E-02
(PID.TID 0000.0001) %MON ad_seaice_adhsnow_max        =   7.8644355973034E+00
(PID.TID 0000.0001) %MON ad_seaice_adhsnow_min        =  -8.0758692288542E+00
(PID.TID 0000.0001) %MON ad_seaice_adhsnow_mean       =  -5.6695437058804E-01
(PID.TID 0000.0001) %MON ad_seaice_adhsnow_sd         =   1.3523917521476E+00
(PID.TID 0000.0001) %MON ad_seaice_adhsnow_del2       =   2.2206924850686E-02
(PID.TID 0000.0001) // =======================================================
(PID.TID 0000.0001) // End AD_MONITOR SEAICE statistics
(PID.TID 0000.0001) // =======================================================
 Calling cg2d from S/R CG2D_SAD
 cg2d: Sum(rhs),rhsMax =  -3.48977574268772E-19  9.91014220814543E-05
(PID.TID 0000.0001) // =======================================================
(PID.TID 0000.0001) // Begin AD_MONITOR EXF statistics for iwhen =  3
(PID.TID 0000.0001) // =======================================================
(PID.TID 0000.0001) %MON ad_exf_tsnumber              =                 72001
(PID.TID 0000.0001) %MON ad_exf_time_sec              =   6.2208864000000E+09
(PID.TID 0000.0001) %MON ad_exf_adfu_max              =   1.2503113787937E+00
(PID.TID 0000.0001) %MON ad_exf_adfu_min              =  -2.7384013481596E+00
(PID.TID 0000.0001) %MON ad_exf_adfu_mean             =   7.1805008333243E-03
(PID.TID 0000.0001) %MON ad_exf_adfu_sd               =   2.3851630392926E-01
(PID.TID 0000.0001) %MON ad_exf_adfu_del2             =   6.9444710406604E-03
(PID.TID 0000.0001) %MON ad_exf_adfv_max              =   1.8339943631542E+00
(PID.TID 0000.0001) %MON ad_exf_adfv_min              =  -1.3597124265428E+00
(PID.TID 0000.0001) %MON ad_exf_adfv_mean             =   1.3606512736711E-03
(PID.TID 0000.0001) %MON ad_exf_adfv_sd               =   2.0154064975092E-01
(PID.TID 0000.0001) %MON ad_exf_adfv_del2             =   5.9824657837609E-03
(PID.TID 0000.0001) %MON ad_exf_adqnet_max            =   1.3198859627423E-02
(PID.TID 0000.0001) %MON ad_exf_adqnet_min            =  -6.4058402802990E-03
(PID.TID 0000.0001) %MON ad_exf_adqnet_mean           =  -4.7262754585952E-04
(PID.TID 0000.0001) %MON ad_exf_adqnet_sd             =   1.0978251300957E-03
(PID.TID 0000.0001) %MON ad_exf_adqnet_del2           =   2.2198368970750E-05
(PID.TID 0000.0001) %MON ad_exf_adempmr_max           =   4.2960214979463E+03
(PID.TID 0000.0001) %MON ad_exf_adempmr_min           =  -3.8289223594946E+03
(PID.TID 0000.0001) %MON ad_exf_adempmr_mean          =  -1.2486201508182E+01
(PID.TID 0000.0001) %MON ad_exf_adempmr_sd            =   1.7422160871039E+02
(PID.TID 0000.0001) %MON ad_exf_adempmr_del2          =   7.6828476031151E+00
(PID.TID 0000.0001) // =======================================================
(PID.TID 0000.0001) // End AD_MONITOR EXF statistics for iwhen =  3
(PID.TID 0000.0001) // =======================================================
(PID.TID 0000.0001) // =======================================================
(PID.TID 0000.0001) // Begin AD_MONITOR EXF statistics for iwhen =  1
(PID.TID 0000.0001) // =======================================================
(PID.TID 0000.0001) %MON ad_exf_tsnumber              =                 72001
(PID.TID 0000.0001) %MON ad_exf_time_sec              =   6.2208864000000E+09
(PID.TID 0000.0001) %MON ad_exf_adustress_max         =   1.4443255216363E+00
(PID.TID 0000.0001) %MON ad_exf_adustress_min         =  -4.5667057702234E+00
(PID.TID 0000.0001) %MON ad_exf_adustress_mean        =   1.4579294536794E-03
(PID.TID 0000.0001) %MON ad_exf_adustress_sd          =   2.9297709819242E-01
(PID.TID 0000.0001) %MON ad_exf_adustress_del2        =   8.0896903547169E-03
(PID.TID 0000.0001) %MON ad_exf_advstress_max         =   1.8339943631542E+00
(PID.TID 0000.0001) %MON ad_exf_advstress_min         =  -3.2114100291078E+00
(PID.TID 0000.0001) %MON ad_exf_advstress_mean        =  -6.4795484275291E-03
(PID.TID 0000.0001) %MON ad_exf_advstress_sd          =   2.2834044295406E-01
(PID.TID 0000.0001) %MON ad_exf_advstress_del2        =   6.4301859709454E-03
(PID.TID 0000.0001) %MON ad_exf_adhflux_max           =   0.0000000000000E+00
(PID.TID 0000.0001) %MON ad_exf_adhflux_min           =   0.0000000000000E+00
(PID.TID 0000.0001) %MON ad_exf_adhflux_mean          =   0.0000000000000E+00
(PID.TID 0000.0001) %MON ad_exf_adhflux_sd            =   0.0000000000000E+00
(PID.TID 0000.0001) %MON ad_exf_adhflux_del2          =   0.0000000000000E+00
(PID.TID 0000.0001) %MON ad_exf_adsflux_max           =   0.0000000000000E+00
(PID.TID 0000.0001) %MON ad_exf_adsflux_min           =   0.0000000000000E+00
(PID.TID 0000.0001) %MON ad_exf_adsflux_mean          =   0.0000000000000E+00
(PID.TID 0000.0001) %MON ad_exf_adsflux_sd            =   0.0000000000000E+00
(PID.TID 0000.0001) %MON ad_exf_adsflux_del2          =   0.0000000000000E+00
(PID.TID 0000.0001) %MON ad_exf_adwspeed_max          =   8.7829080569444E-05
(PID.TID 0000.0001) %MON ad_exf_adwspeed_min          =  -2.4579325261050E-04
(PID.TID 0000.0001) %MON ad_exf_adwspeed_mean         =  -1.3954852336163E-07
(PID.TID 0000.0001) %MON ad_exf_adwspeed_sd           =   6.8259224299419E-06
(PID.TID 0000.0001) %MON ad_exf_adwspeed_del2         =   2.2938285000884E-07
(PID.TID 0000.0001) // =======================================================
(PID.TID 0000.0001) // End AD_MONITOR EXF statistics for iwhen =  1
(PID.TID 0000.0001) // =======================================================
(PID.TID 0000.0001) // =======================================================
(PID.TID 0000.0001) // Begin AD_MONITOR EXF statistics for iwhen =  2
(PID.TID 0000.0001) // =======================================================
(PID.TID 0000.0001) %MON ad_exf_tsnumber              =                 72001
(PID.TID 0000.0001) %MON ad_exf_time_sec              =   6.2208864000000E+09
(PID.TID 0000.0001) %MON ad_exf_adatemp_max           =   1.0917958788104E-01
(PID.TID 0000.0001) %MON ad_exf_adatemp_min           =  -1.7951902059484E-01
(PID.TID 0000.0001) %MON ad_exf_adatemp_mean          =   5.3199211943297E-03
(PID.TID 0000.0001) %MON ad_exf_adatemp_sd            =   1.4219264673012E-02
(PID.TID 0000.0001) %MON ad_exf_adatemp_del2          =   3.1968404004127E-04
(PID.TID 0000.0001) %MON ad_exf_adaqh_max             =   3.2437180759897E+02
(PID.TID 0000.0001) %MON ad_exf_adaqh_min             =  -3.4543668864792E+02
(PID.TID 0000.0001) %MON ad_exf_adaqh_mean            =   1.1821900598673E+01
(PID.TID 0000.0001) %MON ad_exf_adaqh_sd              =   3.5003794238095E+01
(PID.TID 0000.0001) %MON ad_exf_adaqh_del2            =   8.1522328485179E-01
(PID.TID 0000.0001) %MON ad_exf_adlwflux_max          =   0.0000000000000E+00
(PID.TID 0000.0001) %MON ad_exf_adlwflux_min          =   0.0000000000000E+00
(PID.TID 0000.0001) %MON ad_exf_adlwflux_mean         =   0.0000000000000E+00
(PID.TID 0000.0001) %MON ad_exf_adlwflux_sd           =   0.0000000000000E+00
(PID.TID 0000.0001) %MON ad_exf_adlwflux_del2         =   0.0000000000000E+00
(PID.TID 0000.0001) %MON ad_exf_adprecip_max          =   3.8289223594946E+06
(PID.TID 0000.0001) %MON ad_exf_adprecip_min          =  -4.2960214979463E+06
(PID.TID 0000.0001) %MON ad_exf_adprecip_mean         =   1.2720944615994E+04
(PID.TID 0000.0001) %MON ad_exf_adprecip_sd           =   1.7403991840884E+05
(PID.TID 0000.0001) %MON ad_exf_adprecip_del2         =   7.6831377027203E+03
(PID.TID 0000.0001) %MON ad_exf_adswflux_max          =   0.0000000000000E+00
(PID.TID 0000.0001) %MON ad_exf_adswflux_min          =   0.0000000000000E+00
(PID.TID 0000.0001) %MON ad_exf_adswflux_mean         =   0.0000000000000E+00
(PID.TID 0000.0001) %MON ad_exf_adswflux_sd           =   0.0000000000000E+00
(PID.TID 0000.0001) %MON ad_exf_adswflux_del2         =   0.0000000000000E+00
(PID.TID 0000.0001) %MON ad_exf_adswdown_max          =   5.9830548217993E-03
(PID.TID 0000.0001) %MON ad_exf_adswdown_min          =  -1.1646517228601E-02
(PID.TID 0000.0001) %MON ad_exf_adswdown_mean         =   4.3782993118897E-04
(PID.TID 0000.0001) %MON ad_exf_adswdown_sd           =   9.9592348560390E-04
(PID.TID 0000.0001) %MON ad_exf_adswdown_del2         =   1.9951792980580E-05
(PID.TID 0000.0001) %MON ad_exf_adlwdown_max          =   6.4058402802990E-03
(PID.TID 0000.0001) %MON ad_exf_adlwdown_min          =  -1.3198859627423E-02
(PID.TID 0000.0001) %MON ad_exf_adlwdown_mean         =   4.7381613962798E-04
(PID.TID 0000.0001) %MON ad_exf_adlwdown_sd           =   1.0961174843408E-03
(PID.TID 0000.0001) %MON ad_exf_adlwdown_del2         =   2.2140146536651E-05
(PID.TID 0000.0001) %MON ad_exf_adrunoff_max          =   3.8289223594946E+06
(PID.TID 0000.0001) %MON ad_exf_adrunoff_min          =  -4.2960214979463E+06
(PID.TID 0000.0001) %MON ad_exf_adrunoff_mean         =   1.2486201508182E+04
(PID.TID 0000.0001) %MON ad_exf_adrunoff_sd           =   1.7422160871039E+05
(PID.TID 0000.0001) %MON ad_exf_adrunoff_del2         =   7.6828476031151E+03
(PID.TID 0000.0001) // =======================================================
(PID.TID 0000.0001) // End AD_MONITOR EXF statistics for iwhen =  2
(PID.TID 0000.0001) // =======================================================
(PID.TID 0000.0001) SOLVE_FOR_PRESSURE: putPmEinXvector =    F
 cg2d: Sum(rhs),rhsMax =   2.21291478463262E+03  2.01372754051185E+01
(PID.TID 0000.0001) // =======================================================
(PID.TID 0000.0001) // Begin AD_MONITOR dynamic field statistics
(PID.TID 0000.0001) // =======================================================
(PID.TID 0000.0001) %MON ad_time_tsnumber             =                 72001
(PID.TID 0000.0001) %MON ad_time_secondsf             =   6.2208864000000E+09
(PID.TID 0000.0001) %MON ad_dynstat_adeta_max         =   4.4843871793034E-02
(PID.TID 0000.0001) %MON ad_dynstat_adeta_min         =  -5.3944095486015E-02
(PID.TID 0000.0001) %MON ad_dynstat_adeta_mean        =  -1.0552626741537E-05
(PID.TID 0000.0001) %MON ad_dynstat_adeta_sd          =   2.1545052558951E-03
(PID.TID 0000.0001) %MON ad_dynstat_adeta_del2        =   9.4005612328664E-05
(PID.TID 0000.0001) %MON ad_dynstat_aduvel_max        =   8.8889008158737E+01
(PID.TID 0000.0001) %MON ad_dynstat_aduvel_min        =  -1.1548432505003E+02
(PID.TID 0000.0001) %MON ad_dynstat_aduvel_mean       =   1.4817864691144E-01
(PID.TID 0000.0001) %MON ad_dynstat_aduvel_sd         =   4.6017208022718E+00
(PID.TID 0000.0001) %MON ad_dynstat_aduvel_del2       =   4.0585786543055E-02
(PID.TID 0000.0001) %MON ad_dynstat_advvel_max        =   8.1534030943856E+01
(PID.TID 0000.0001) %MON ad_dynstat_advvel_min        =  -5.4305899025743E+01
(PID.TID 0000.0001) %MON ad_dynstat_advvel_mean       =  -1.4673470899646E-02
(PID.TID 0000.0001) %MON ad_dynstat_advvel_sd         =   4.2219229755416E+00
(PID.TID 0000.0001) %MON ad_dynstat_advvel_del2       =   3.3942507544107E-02
(PID.TID 0000.0001) %MON ad_dynstat_adwvel_max        =   1.4574051249469E+02
(PID.TID 0000.0001) %MON ad_dynstat_adwvel_min        =  -7.9783094295637E+01
(PID.TID 0000.0001) %MON ad_dynstat_adwvel_mean       =   2.7221522718241E-02
(PID.TID 0000.0001) %MON ad_dynstat_adwvel_sd         =   1.4822120777455E+00
(PID.TID 0000.0001) %MON ad_dynstat_adwvel_del2       =   1.9882147094513E-02
(PID.TID 0000.0001) %MON ad_dynstat_adtheta_max       =   3.3164572025712E+01
(PID.TID 0000.0001) %MON ad_dynstat_adtheta_min       =  -2.8991924502861E+01
(PID.TID 0000.0001) %MON ad_dynstat_adtheta_mean      =  -1.0995590060006E+00
(PID.TID 0000.0001) %MON ad_dynstat_adtheta_sd        =   2.3038736135990E+00
(PID.TID 0000.0001) %MON ad_dynstat_adtheta_del2      =   9.8898711660488E-03
(PID.TID 0000.0001) %MON ad_dynstat_adsalt_max        =   1.3305188885779E+02
(PID.TID 0000.0001) %MON ad_dynstat_adsalt_min        =  -1.3172278835343E+02
(PID.TID 0000.0001) %MON ad_dynstat_adsalt_mean       =  -4.5905183553681E-03
(PID.TID 0000.0001) %MON ad_dynstat_adsalt_sd         =   1.0549192109007E+00
(PID.TID 0000.0001) %MON ad_dynstat_adsalt_del2       =   2.3322441263275E-02
(PID.TID 0000.0001) %MON ad_forcing_adqnet_max        =   0.0000000000000E+00
(PID.TID 0000.0001) %MON ad_forcing_adqnet_min        =   0.0000000000000E+00
(PID.TID 0000.0001) %MON ad_forcing_adqnet_mean       =   0.0000000000000E+00
(PID.TID 0000.0001) %MON ad_forcing_adqnet_sd         =   0.0000000000000E+00
(PID.TID 0000.0001) %MON ad_forcing_adqnet_del2       =   0.0000000000000E+00
(PID.TID 0000.0001) %MON ad_forcing_adqsw_max         =   0.0000000000000E+00
(PID.TID 0000.0001) %MON ad_forcing_adqsw_min         =   0.0000000000000E+00
(PID.TID 0000.0001) %MON ad_forcing_adqsw_mean        =   0.0000000000000E+00
(PID.TID 0000.0001) %MON ad_forcing_adqsw_sd          =   0.0000000000000E+00
(PID.TID 0000.0001) %MON ad_forcing_adqsw_del2        =   0.0000000000000E+00
(PID.TID 0000.0001) %MON ad_forcing_adempmr_max       =   0.0000000000000E+00
(PID.TID 0000.0001) %MON ad_forcing_adempmr_min       =   0.0000000000000E+00
(PID.TID 0000.0001) %MON ad_forcing_adempmr_mean      =   0.0000000000000E+00
(PID.TID 0000.0001) %MON ad_forcing_adempmr_sd        =   0.0000000000000E+00
(PID.TID 0000.0001) %MON ad_forcing_adempmr_del2      =   0.0000000000000E+00
(PID.TID 0000.0001) %MON ad_forcing_adfu_max          =   0.0000000000000E+00
(PID.TID 0000.0001) %MON ad_forcing_adfu_min          =   0.0000000000000E+00
(PID.TID 0000.0001) %MON ad_forcing_adfu_mean         =   0.0000000000000E+00
(PID.TID 0000.0001) %MON ad_forcing_adfu_sd           =   0.0000000000000E+00
(PID.TID 0000.0001) %MON ad_forcing_adfu_del2         =   0.0000000000000E+00
(PID.TID 0000.0001) %MON ad_forcing_adfv_max          =   0.0000000000000E+00
(PID.TID 0000.0001) %MON ad_forcing_adfv_min          =   0.0000000000000E+00
(PID.TID 0000.0001) %MON ad_forcing_adfv_mean         =   0.0000000000000E+00
(PID.TID 0000.0001) %MON ad_forcing_adfv_sd           =   0.0000000000000E+00
(PID.TID 0000.0001) %MON ad_forcing_adfv_del2         =   0.0000000000000E+00
(PID.TID 0000.0001) // =======================================================
(PID.TID 0000.0001) // End AD_MONITOR dynamic field statistics
(PID.TID 0000.0001) // =======================================================
(PID.TID 0000.0001) // =======================================================
(PID.TID 0000.0001) // Begin AD_MONITOR SEAICE statistics
(PID.TID 0000.0001) // =======================================================
(PID.TID 0000.0001) %MON ad_seaice_tsnumber           =                 72001
(PID.TID 0000.0001) %MON ad_seaice_time_sec           =   6.2208864000000E+09
(PID.TID 0000.0001) %MON ad_seaice_aduice_max         =   0.0000000000000E+00
(PID.TID 0000.0001) %MON ad_seaice_aduice_min         =   0.0000000000000E+00
(PID.TID 0000.0001) %MON ad_seaice_aduice_mean        =   0.0000000000000E+00
(PID.TID 0000.0001) %MON ad_seaice_aduice_sd          =   0.0000000000000E+00
(PID.TID 0000.0001) %MON ad_seaice_aduice_del2        =   0.0000000000000E+00
(PID.TID 0000.0001) %MON ad_seaice_advice_max         =   0.0000000000000E+00
(PID.TID 0000.0001) %MON ad_seaice_advice_min         =   0.0000000000000E+00
(PID.TID 0000.0001) %MON ad_seaice_advice_mean        =   0.0000000000000E+00
(PID.TID 0000.0001) %MON ad_seaice_advice_sd          =   0.0000000000000E+00
(PID.TID 0000.0001) %MON ad_seaice_advice_del2        =   0.0000000000000E+00
(PID.TID 0000.0001) %MON ad_seaice_adarea_max         =   1.1988606709107E+00
(PID.TID 0000.0001) %MON ad_seaice_adarea_min         =  -4.6548547777251E-01
(PID.TID 0000.0001) %MON ad_seaice_adarea_mean        =  -7.5741872809686E-04
(PID.TID 0000.0001) %MON ad_seaice_adarea_sd          =   4.2139557604677E-02
(PID.TID 0000.0001) %MON ad_seaice_adarea_del2        =   1.3484447569614E-03
(PID.TID 0000.0001) %MON ad_seaice_adheff_max         =   2.1054521396338E+01
(PID.TID 0000.0001) %MON ad_seaice_adheff_min         =  -2.2127618843868E+01
(PID.TID 0000.0001) %MON ad_seaice_adheff_mean        =  -1.5347049784947E+00
(PID.TID 0000.0001) %MON ad_seaice_adheff_sd          =   3.6813736147234E+00
(PID.TID 0000.0001) %MON ad_seaice_adheff_del2        =   6.0509388379174E-02
(PID.TID 0000.0001) %MON ad_seaice_adhsnow_max        =   7.6356698429552E+00
(PID.TID 0000.0001) %MON ad_seaice_adhsnow_min        =  -9.1024021422087E+00
(PID.TID 0000.0001) %MON ad_seaice_adhsnow_mean       =  -5.5781446811715E-01
(PID.TID 0000.0001) %MON ad_seaice_adhsnow_sd         =   1.3449264116080E+00
(PID.TID 0000.0001) %MON ad_seaice_adhsnow_del2       =   2.3335139978878E-02
(PID.TID 0000.0001) // =======================================================
(PID.TID 0000.0001) // End AD_MONITOR SEAICE statistics
(PID.TID 0000.0001) // =======================================================
 Calling cg2d from S/R CG2D_SAD
 cg2d: Sum(rhs),rhsMax =  -3.38813178901720E-21  9.34094043199982E-05
(PID.TID 0000.0001) // =======================================================
(PID.TID 0000.0001) // Begin AD_MONITOR EXF statistics for iwhen =  3
(PID.TID 0000.0001) // =======================================================
(PID.TID 0000.0001) %MON ad_exf_tsnumber              =                 72000
(PID.TID 0000.0001) %MON ad_exf_time_sec              =   6.2208000000000E+09
(PID.TID 0000.0001) %MON ad_exf_adfu_max              =   1.6525179293107E+00
(PID.TID 0000.0001) %MON ad_exf_adfu_min              =  -3.3208329579498E+00
(PID.TID 0000.0001) %MON ad_exf_adfu_mean             =   7.8776374622635E-03
(PID.TID 0000.0001) %MON ad_exf_adfu_sd               =   2.9242427107557E-01
(PID.TID 0000.0001) %MON ad_exf_adfu_del2             =   8.4210265693728E-03
(PID.TID 0000.0001) %MON ad_exf_adfv_max              =   2.1905815131498E+00
(PID.TID 0000.0001) %MON ad_exf_adfv_min              =  -1.5887523636999E+00
(PID.TID 0000.0001) %MON ad_exf_adfv_mean             =  -5.7006923776077E-04
(PID.TID 0000.0001) %MON ad_exf_adfv_sd               =   2.4725765310960E-01
(PID.TID 0000.0001) %MON ad_exf_adfv_del2             =   7.2235923321541E-03
(PID.TID 0000.0001) %MON ad_exf_adqnet_max            =   1.2122528856373E-02
(PID.TID 0000.0001) %MON ad_exf_adqnet_min            =  -7.3090914997590E-03
(PID.TID 0000.0001) %MON ad_exf_adqnet_mean           =  -4.6817287146662E-04
(PID.TID 0000.0001) %MON ad_exf_adqnet_sd             =   1.0884273777661E-03
(PID.TID 0000.0001) %MON ad_exf_adqnet_del2           =   2.3042931138520E-05
(PID.TID 0000.0001) %MON ad_exf_adempmr_max           =   5.3286785367479E+03
(PID.TID 0000.0001) %MON ad_exf_adempmr_min           =  -4.5473803596169E+03
(PID.TID 0000.0001) %MON ad_exf_adempmr_mean          =  -1.3277424401710E+01
(PID.TID 0000.0001) %MON ad_exf_adempmr_sd            =   1.9736122568996E+02
(PID.TID 0000.0001) %MON ad_exf_adempmr_del2          =   8.8398549900170E+00
(PID.TID 0000.0001) // =======================================================
(PID.TID 0000.0001) // End AD_MONITOR EXF statistics for iwhen =  3
(PID.TID 0000.0001) // =======================================================
(PID.TID 0000.0001) // =======================================================
(PID.TID 0000.0001) // Begin AD_MONITOR EXF statistics for iwhen =  1
(PID.TID 0000.0001) // =======================================================
(PID.TID 0000.0001) %MON ad_exf_tsnumber              =                 72000
(PID.TID 0000.0001) %MON ad_exf_time_sec              =   6.2208000000000E+09
(PID.TID 0000.0001) %MON ad_exf_adustress_max         =   2.2314757631045E+00
(PID.TID 0000.0001) %MON ad_exf_adustress_min         =  -4.5384892641688E+00
(PID.TID 0000.0001) %MON ad_exf_adustress_mean        =   5.4507702826323E-03
(PID.TID 0000.0001) %MON ad_exf_adustress_sd          =   3.5357178033838E-01
(PID.TID 0000.0001) %MON ad_exf_adustress_del2        =   9.7183702725169E-03
(PID.TID 0000.0001) %MON ad_exf_advstress_max         =   2.1905815131498E+00
(PID.TID 0000.0001) %MON ad_exf_advstress_min         =  -3.4413752329967E+00
(PID.TID 0000.0001) %MON ad_exf_advstress_mean        =  -9.9785172953601E-03
(PID.TID 0000.0001) %MON ad_exf_advstress_sd          =   2.9234625239370E-01
(PID.TID 0000.0001) %MON ad_exf_advstress_del2        =   7.9247797664130E-03
(PID.TID 0000.0001) %MON ad_exf_adhflux_max           =   0.0000000000000E+00
(PID.TID 0000.0001) %MON ad_exf_adhflux_min           =   0.0000000000000E+00
(PID.TID 0000.0001) %MON ad_exf_adhflux_mean          =   0.0000000000000E+00
(PID.TID 0000.0001) %MON ad_exf_adhflux_sd            =   0.0000000000000E+00
(PID.TID 0000.0001) %MON ad_exf_adhflux_del2          =   0.0000000000000E+00
(PID.TID 0000.0001) %MON ad_exf_adsflux_max           =   0.0000000000000E+00
(PID.TID 0000.0001) %MON ad_exf_adsflux_min           =   0.0000000000000E+00
(PID.TID 0000.0001) %MON ad_exf_adsflux_mean          =   0.0000000000000E+00
(PID.TID 0000.0001) %MON ad_exf_adsflux_sd            =   0.0000000000000E+00
(PID.TID 0000.0001) %MON ad_exf_adsflux_del2          =   0.0000000000000E+00
(PID.TID 0000.0001) %MON ad_exf_adwspeed_max          =   1.3135256432867E-03
(PID.TID 0000.0001) %MON ad_exf_adwspeed_min          =  -6.6534708272661E-04
(PID.TID 0000.0001) %MON ad_exf_adwspeed_mean         =   2.9844550809006E-08
(PID.TID 0000.0001) %MON ad_exf_adwspeed_sd           =   3.4457247002993E-05
(PID.TID 0000.0001) %MON ad_exf_adwspeed_del2         =   1.2404883667502E-06
(PID.TID 0000.0001) // =======================================================
(PID.TID 0000.0001) // End AD_MONITOR EXF statistics for iwhen =  1
(PID.TID 0000.0001) // =======================================================
(PID.TID 0000.0001) // =======================================================
(PID.TID 0000.0001) // Begin AD_MONITOR EXF statistics for iwhen =  2
(PID.TID 0000.0001) // =======================================================
(PID.TID 0000.0001) %MON ad_exf_tsnumber              =                 72000
(PID.TID 0000.0001) %MON ad_exf_time_sec              =   6.2208000000000E+09
(PID.TID 0000.0001) %MON ad_exf_adatemp_max           =   1.2750364569820E-01
(PID.TID 0000.0001) %MON ad_exf_adatemp_min           =  -1.6496232409149E-01
(PID.TID 0000.0001) %MON ad_exf_adatemp_mean          =   5.2775173671649E-03
(PID.TID 0000.0001) %MON ad_exf_adatemp_sd            =   1.4107723227241E-02
(PID.TID 0000.0001) %MON ad_exf_adatemp_del2          =   3.3197893831918E-04
(PID.TID 0000.0001) %MON ad_exf_adaqh_max             =   3.8022290861654E+02
(PID.TID 0000.0001) %MON ad_exf_adaqh_min             =  -3.6816228845198E+02
(PID.TID 0000.0001) %MON ad_exf_adaqh_mean            =   1.1759041906200E+01
(PID.TID 0000.0001) %MON ad_exf_adaqh_sd              =   3.4901255570373E+01
(PID.TID 0000.0001) %MON ad_exf_adaqh_del2            =   8.6018646683540E-01
(PID.TID 0000.0001) %MON ad_exf_adlwflux_max          =   0.0000000000000E+00
(PID.TID 0000.0001) %MON ad_exf_adlwflux_min          =   0.0000000000000E+00
(PID.TID 0000.0001) %MON ad_exf_adlwflux_mean         =   0.0000000000000E+00
(PID.TID 0000.0001) %MON ad_exf_adlwflux_sd           =   0.0000000000000E+00
(PID.TID 0000.0001) %MON ad_exf_adlwflux_del2         =   0.0000000000000E+00
(PID.TID 0000.0001) %MON ad_exf_adprecip_max          =   4.5473803596169E+06
(PID.TID 0000.0001) %MON ad_exf_adprecip_min          =  -5.3286785367479E+06
(PID.TID 0000.0001) %MON ad_exf_adprecip_mean         =   1.3618314798794E+04
(PID.TID 0000.0001) %MON ad_exf_adprecip_sd           =   1.9740736176718E+05
(PID.TID 0000.0001) %MON ad_exf_adprecip_del2         =   8.8461696465487E+03
(PID.TID 0000.0001) %MON ad_exf_adswflux_max          =   0.0000000000000E+00
(PID.TID 0000.0001) %MON ad_exf_adswflux_min          =   0.0000000000000E+00
(PID.TID 0000.0001) %MON ad_exf_adswflux_mean         =   0.0000000000000E+00
(PID.TID 0000.0001) %MON ad_exf_adswflux_sd           =   0.0000000000000E+00
(PID.TID 0000.0001) %MON ad_exf_adswflux_del2         =   0.0000000000000E+00
(PID.TID 0000.0001) %MON ad_exf_adswdown_max          =   6.4635599904126E-03
(PID.TID 0000.0001) %MON ad_exf_adswdown_min          =  -1.0687296992275E-02
(PID.TID 0000.0001) %MON ad_exf_adswdown_mean         =   4.3239276726145E-04
(PID.TID 0000.0001) %MON ad_exf_adswdown_sd           =   9.8458740821420E-04
(PID.TID 0000.0001) %MON ad_exf_adswdown_del2         =   2.0566030494166E-05
(PID.TID 0000.0001) %MON ad_exf_adlwdown_max          =   7.3090914997590E-03
(PID.TID 0000.0001) %MON ad_exf_adlwdown_min          =  -1.2122528856373E-02
(PID.TID 0000.0001) %MON ad_exf_adlwdown_mean         =   4.6826959549406E-04
(PID.TID 0000.0001) %MON ad_exf_adlwdown_sd           =   1.0845025625074E-03
(PID.TID 0000.0001) %MON ad_exf_adlwdown_del2         =   2.2877388550958E-05
(PID.TID 0000.0001) %MON ad_exf_adrunoff_max          =   4.5473803596169E+06
(PID.TID 0000.0001) %MON ad_exf_adrunoff_min          =  -5.3286785367479E+06
(PID.TID 0000.0001) %MON ad_exf_adrunoff_mean         =   1.3277424401710E+04
(PID.TID 0000.0001) %MON ad_exf_adrunoff_sd           =   1.9736122568996E+05
(PID.TID 0000.0001) %MON ad_exf_adrunoff_del2         =   8.8398549900170E+03
(PID.TID 0000.0001) // =======================================================
(PID.TID 0000.0001) // End AD_MONITOR EXF statistics for iwhen =  2
(PID.TID 0000.0001) // =======================================================
(PID.TID 0000.0001)  nRecords = 123 ; filePrec =  64 ; fileIter =     72000
(PID.TID 0000.0001)     nDims =   2 , dims:
(PID.TID 0000.0001)    1: 192   1 192
(PID.TID 0000.0001)    2:  32   1  32
(PID.TID 0000.0001)     nFlds =  11 , nFl3D =   8 , fields:
(PID.TID 0000.0001)  >Uvel    < >GuNm1   < >Vvel    < >GvNm1   < >Theta   < >GtNm1   < >Salt    < >GsNm1   < >EtaN    < >dEtaHdt < >EtaH    <
(PID.TID 0000.0001) missingVal=  1.00000000000000E+00 ; nTimRec =   0 , timeList:
(PID.TID 0000.0001) READ_MFLDS_3D_RL: read field: "Uvel    ", #   1 in fldList, rec=   1
(PID.TID 0000.0001) READ_MFLDS_3D_RL: read field: "Vvel    ", #   3 in fldList, rec=   3
(PID.TID 0000.0001) READ_MFLDS_3D_RL: read field: "Theta   ", #   5 in fldList, rec=   5
(PID.TID 0000.0001) READ_MFLDS_3D_RL: read field: "Salt    ", #   7 in fldList, rec=   7
(PID.TID 0000.0001) READ_MFLDS_3D_RL: read field: "GuNm1   ", #   2 in fldList, rec=   2
(PID.TID 0000.0001) READ_MFLDS_3D_RL: read field: "GvNm1   ", #   4 in fldList, rec=   4
(PID.TID 0000.0001) READ_MFLDS_3D_RL: read field: "EtaN    ", #   9 in fldList, rec= 121
(PID.TID 0000.0001) READ_MFLDS_3D_RL: read field: "dEtaHdt ", #  10 in fldList, rec= 122
(PID.TID 0000.0001) READ_MFLDS_3D_RL: read field: "EtaH    ", #  11 in fldList, rec= 123
(PID.TID 0000.0001) READ_MFLDS_CHECK: - normal end ; reset MFLDS file-name: pickup.0000072000
(PID.TID 0000.0001)  nRecords =  15 ; filePrec =  64 ; fileIter =     72000
(PID.TID 0000.0001)     nDims =   2 , dims:
(PID.TID 0000.0001)    1: 192   1 192
(PID.TID 0000.0001)    2:  32   1  32
(PID.TID 0000.0001)     nFlds =  15 , nFl3D =   0 , fields:
(PID.TID 0000.0001)  >siTICE  < >siYNEG  < >siHSNOW < >siUICE  < >siUICE_2< >siUICE_3< >siVICE  < >siVICE_2< >siVICE_3< >siHEFF  < >siHEFF_2< >siHEFF_3< >siAREA  < >siAREA_2< >siAREA_3<
(PID.TID 0000.0001) missingVal=  1.00000000000000E+00 ; nTimRec =   0 , timeList:
(PID.TID 0000.0001) READ_MFLDS_LEV_RL: read field: "siTICE  ", #   1 in fldList, rec=   1
(PID.TID 0000.0001) READ_MFLDS_3D_RL: read field: "siAREA  ", #  13 in fldList, rec=  13
(PID.TID 0000.0001) READ_MFLDS_3D_RL: read field: "siHEFF  ", #  10 in fldList, rec=  10
(PID.TID 0000.0001) READ_MFLDS_3D_RL: read field: "siHSNOW ", #   3 in fldList, rec=   3
(PID.TID 0000.0001) READ_MFLDS_3D_RL: read field: "siUICE  ", #   4 in fldList, rec=   4
(PID.TID 0000.0001) READ_MFLDS_3D_RL: read field: "siVICE  ", #   7 in fldList, rec=   7
(PID.TID 0000.0001) READ_MFLDS_CHECK: - normal end ; reset MFLDS file-name: pickup_seaice.0000072000
(PID.TID 0000.0001) // =======================================================
(PID.TID 0000.0001) // Begin AD_MONITOR dynamic field statistics
(PID.TID 0000.0001) // =======================================================
(PID.TID 0000.0001) %MON ad_time_tsnumber             =                 72000
(PID.TID 0000.0001) %MON ad_time_secondsf             =   6.2208000000000E+09
(PID.TID 0000.0001) %MON ad_dynstat_adeta_max         =   4.4245401338371E-02
(PID.TID 0000.0001) %MON ad_dynstat_adeta_min         =  -5.7690863973145E-02
(PID.TID 0000.0001) %MON ad_dynstat_adeta_mean        =  -8.6963693504972E-06
(PID.TID 0000.0001) %MON ad_dynstat_adeta_sd          =   2.8180794838514E-03
(PID.TID 0000.0001) %MON ad_dynstat_adeta_del2        =   1.2360785043029E-04
(PID.TID 0000.0001) %MON ad_dynstat_aduvel_max        =   1.0875293638651E+02
(PID.TID 0000.0001) %MON ad_dynstat_aduvel_min        =  -1.3965662774751E+02
(PID.TID 0000.0001) %MON ad_dynstat_aduvel_mean       =   1.8099948891764E-01
(PID.TID 0000.0001) %MON ad_dynstat_aduvel_sd         =   5.6028397032737E+00
(PID.TID 0000.0001) %MON ad_dynstat_aduvel_del2       =   4.9105817201443E-02
(PID.TID 0000.0001) %MON ad_dynstat_advvel_max        =   9.7308469889491E+01
(PID.TID 0000.0001) %MON ad_dynstat_advvel_min        =  -6.4106248221696E+01
(PID.TID 0000.0001) %MON ad_dynstat_advvel_mean       =   4.0567253721463E-02
(PID.TID 0000.0001) %MON ad_dynstat_advvel_sd         =   5.1626244615521E+00
(PID.TID 0000.0001) %MON ad_dynstat_advvel_del2       =   4.1075955506120E-02
(PID.TID 0000.0001) %MON ad_dynstat_adwvel_max        =   1.7384284925398E+02
(PID.TID 0000.0001) %MON ad_dynstat_adwvel_min        =  -9.6563509194372E+01
(PID.TID 0000.0001) %MON ad_dynstat_adwvel_mean       =   3.3089321988972E-02
(PID.TID 0000.0001) %MON ad_dynstat_adwvel_sd         =   1.7815778909549E+00
(PID.TID 0000.0001) %MON ad_dynstat_adwvel_del2       =   2.3670597274411E-02
(PID.TID 0000.0001) %MON ad_dynstat_adtheta_max       =   3.5491394993240E+01
(PID.TID 0000.0001) %MON ad_dynstat_adtheta_min       =  -3.2056077488726E+01
(PID.TID 0000.0001) %MON ad_dynstat_adtheta_mean      =  -1.0997743781636E+00
(PID.TID 0000.0001) %MON ad_dynstat_adtheta_sd        =   2.3045101424953E+00
(PID.TID 0000.0001) %MON ad_dynstat_adtheta_del2      =   1.0161044270922E-02
(PID.TID 0000.0001) %MON ad_dynstat_adsalt_max        =   1.7136998942901E+02
(PID.TID 0000.0001) %MON ad_dynstat_adsalt_min        =  -1.6885247460094E+02
(PID.TID 0000.0001) %MON ad_dynstat_adsalt_mean       =  -6.4475872712213E-03
(PID.TID 0000.0001) %MON ad_dynstat_adsalt_sd         =   1.3697457654414E+00
(PID.TID 0000.0001) %MON ad_dynstat_adsalt_del2       =   2.7153052418067E-02
(PID.TID 0000.0001) %MON ad_forcing_adqnet_max        =   0.0000000000000E+00
(PID.TID 0000.0001) %MON ad_forcing_adqnet_min        =   0.0000000000000E+00
(PID.TID 0000.0001) %MON ad_forcing_adqnet_mean       =   0.0000000000000E+00
(PID.TID 0000.0001) %MON ad_forcing_adqnet_sd         =   0.0000000000000E+00
(PID.TID 0000.0001) %MON ad_forcing_adqnet_del2       =   0.0000000000000E+00
(PID.TID 0000.0001) %MON ad_forcing_adqsw_max         =   0.0000000000000E+00
(PID.TID 0000.0001) %MON ad_forcing_adqsw_min         =   0.0000000000000E+00
(PID.TID 0000.0001) %MON ad_forcing_adqsw_mean        =   0.0000000000000E+00
(PID.TID 0000.0001) %MON ad_forcing_adqsw_sd          =   0.0000000000000E+00
(PID.TID 0000.0001) %MON ad_forcing_adqsw_del2        =   0.0000000000000E+00
(PID.TID 0000.0001) %MON ad_forcing_adempmr_max       =   0.0000000000000E+00
(PID.TID 0000.0001) %MON ad_forcing_adempmr_min       =   0.0000000000000E+00
(PID.TID 0000.0001) %MON ad_forcing_adempmr_mean      =   0.0000000000000E+00
(PID.TID 0000.0001) %MON ad_forcing_adempmr_sd        =   0.0000000000000E+00
(PID.TID 0000.0001) %MON ad_forcing_adempmr_del2      =   0.0000000000000E+00
(PID.TID 0000.0001) %MON ad_forcing_adfu_max          =   0.0000000000000E+00
(PID.TID 0000.0001) %MON ad_forcing_adfu_min          =   0.0000000000000E+00
(PID.TID 0000.0001) %MON ad_forcing_adfu_mean         =   0.0000000000000E+00
(PID.TID 0000.0001) %MON ad_forcing_adfu_sd           =   0.0000000000000E+00
(PID.TID 0000.0001) %MON ad_forcing_adfu_del2         =   0.0000000000000E+00
(PID.TID 0000.0001) %MON ad_forcing_adfv_max          =   0.0000000000000E+00
(PID.TID 0000.0001) %MON ad_forcing_adfv_min          =   0.0000000000000E+00
(PID.TID 0000.0001) %MON ad_forcing_adfv_mean         =   0.0000000000000E+00
(PID.TID 0000.0001) %MON ad_forcing_adfv_sd           =   0.0000000000000E+00
(PID.TID 0000.0001) %MON ad_forcing_adfv_del2         =   0.0000000000000E+00
(PID.TID 0000.0001) // =======================================================
(PID.TID 0000.0001) // End AD_MONITOR dynamic field statistics
(PID.TID 0000.0001) // =======================================================
(PID.TID 0000.0001) // =======================================================
(PID.TID 0000.0001) // Begin AD_MONITOR SEAICE statistics
(PID.TID 0000.0001) // =======================================================
(PID.TID 0000.0001) %MON ad_seaice_tsnumber           =                 72000
(PID.TID 0000.0001) %MON ad_seaice_time_sec           =   6.2208000000000E+09
(PID.TID 0000.0001) %MON ad_seaice_aduice_max         =   0.0000000000000E+00
(PID.TID 0000.0001) %MON ad_seaice_aduice_min         =   0.0000000000000E+00
(PID.TID 0000.0001) %MON ad_seaice_aduice_mean        =   0.0000000000000E+00
(PID.TID 0000.0001) %MON ad_seaice_aduice_sd          =   0.0000000000000E+00
(PID.TID 0000.0001) %MON ad_seaice_aduice_del2        =   0.0000000000000E+00
(PID.TID 0000.0001) %MON ad_seaice_advice_max         =   0.0000000000000E+00
(PID.TID 0000.0001) %MON ad_seaice_advice_min         =   0.0000000000000E+00
(PID.TID 0000.0001) %MON ad_seaice_advice_mean        =   0.0000000000000E+00
(PID.TID 0000.0001) %MON ad_seaice_advice_sd          =   0.0000000000000E+00
(PID.TID 0000.0001) %MON ad_seaice_advice_del2        =   0.0000000000000E+00
(PID.TID 0000.0001) %MON ad_seaice_adarea_max         =   1.5307262028664E+00
(PID.TID 0000.0001) %MON ad_seaice_adarea_min         =  -6.1097104108316E-01
(PID.TID 0000.0001) %MON ad_seaice_adarea_mean        =  -3.8257115444254E-03
(PID.TID 0000.0001) %MON ad_seaice_adarea_sd          =   5.1186879920351E-02
(PID.TID 0000.0001) %MON ad_seaice_adarea_del2        =   1.5087786483738E-03
(PID.TID 0000.0001) %MON ad_seaice_adheff_max         =   2.0416765324019E+01
(PID.TID 0000.0001) %MON ad_seaice_adheff_min         =  -2.3579277867545E+01
(PID.TID 0000.0001) %MON ad_seaice_adheff_mean        =  -1.5117272176132E+00
(PID.TID 0000.0001) %MON ad_seaice_adheff_sd          =   3.6428283947368E+00
(PID.TID 0000.0001) %MON ad_seaice_adheff_del2        =   6.1839481861746E-02
(PID.TID 0000.0001) %MON ad_seaice_adhsnow_max        =   7.5755049409718E+00
(PID.TID 0000.0001) %MON ad_seaice_adhsnow_min        =  -1.0774253109944E+01
(PID.TID 0000.0001) %MON ad_seaice_adhsnow_mean       =  -5.5322260964696E-01
(PID.TID 0000.0001) %MON ad_seaice_adhsnow_sd         =   1.3397093601777E+00
(PID.TID 0000.0001) %MON ad_seaice_adhsnow_del2       =   2.4477932239947E-02
(PID.TID 0000.0001) // =======================================================
(PID.TID 0000.0001) // End AD_MONITOR SEAICE statistics
(PID.TID 0000.0001) // =======================================================
(PID.TID 0000.0001)  nRecords = 123 ; filePrec =  64 ; fileIter =     72000
(PID.TID 0000.0001)     nDims =   2 , dims:
(PID.TID 0000.0001)    1: 192   1 192
(PID.TID 0000.0001)    2:  32   1  32
(PID.TID 0000.0001)     nFlds =  11 , nFl3D =   8 , fields:
(PID.TID 0000.0001)  >Uvel    < >GuNm1   < >Vvel    < >GvNm1   < >Theta   < >GtNm1   < >Salt    < >GsNm1   < >EtaN    < >dEtaHdt < >EtaH    <
(PID.TID 0000.0001) missingVal=  1.00000000000000E+00 ; nTimRec =   0 , timeList:
(PID.TID 0000.0001) READ_MFLDS_3D_RL: read field: "Uvel    ", #   1 in fldList, rec=   1
(PID.TID 0000.0001) READ_MFLDS_3D_RL: read field: "Vvel    ", #   3 in fldList, rec=   3
(PID.TID 0000.0001) READ_MFLDS_3D_RL: read field: "Theta   ", #   5 in fldList, rec=   5
(PID.TID 0000.0001) READ_MFLDS_3D_RL: read field: "Salt    ", #   7 in fldList, rec=   7
(PID.TID 0000.0001) READ_MFLDS_3D_RL: read field: "GuNm1   ", #   2 in fldList, rec=   2
(PID.TID 0000.0001) READ_MFLDS_3D_RL: read field: "GvNm1   ", #   4 in fldList, rec=   4
(PID.TID 0000.0001) READ_MFLDS_3D_RL: read field: "EtaN    ", #   9 in fldList, rec= 121
(PID.TID 0000.0001) READ_MFLDS_3D_RL: read field: "dEtaHdt ", #  10 in fldList, rec= 122
(PID.TID 0000.0001) READ_MFLDS_3D_RL: read field: "EtaH    ", #  11 in fldList, rec= 123
(PID.TID 0000.0001) READ_MFLDS_CHECK: - normal end ; reset MFLDS file-name: pickup.0000072000
 ph-pack: packing ecco_cost
 ph-pack: packing ecco_ctrl
(PID.TID 0000.0001) // =======================================================
(PID.TID 0000.0001) // Gradient-check starts (grdchk_main)
(PID.TID 0000.0001) // =======================================================
(PID.TID 0000.0001) grdchk reference fc: fcref       =  1.10845870964906E+05
grad-res -------------------------------
 grad-res  proc    #    i    j    k   bi   bj iobc       fc ref            fc + eps           fc - eps
 grad-res  proc    #    i    j    k   bi   bj iobc      adj grad            fd grad          1 - fd/adj
(PID.TID 0000.0001) ====== Starts gradient-check number   1 (=ichknum) =======
 ph-test icomp, ncvarcomp, ichknum            1       55522           1
 ph-grd _loc: bi, bj, icomptest, ichknum            1           1           0           1
 ph-grd -->hit<--            1           1           1           1
(PID.TID 0000.0001) grdchk pos: i,j,k=    1    1    1 ; bi,bj=   1   1 ; iobc=  1 ; rec=   1
(PID.TID 0000.0001)  nRecords = 123 ; filePrec =  64 ; fileIter =     72000
(PID.TID 0000.0001)     nDims =   2 , dims:
(PID.TID 0000.0001)    1: 192   1 192
(PID.TID 0000.0001)    2:  32   1  32
(PID.TID 0000.0001)     nFlds =  11 , nFl3D =   8 , fields:
(PID.TID 0000.0001)  >Uvel    < >GuNm1   < >Vvel    < >GvNm1   < >Theta   < >GtNm1   < >Salt    < >GsNm1   < >EtaN    < >dEtaHdt < >EtaH    <
(PID.TID 0000.0001) missingVal=  1.00000000000000E+00 ; nTimRec =   0 , timeList:
(PID.TID 0000.0001) READ_MFLDS_3D_RL: read field: "Uvel    ", #   1 in fldList, rec=   1
(PID.TID 0000.0001) READ_MFLDS_3D_RL: read field: "Vvel    ", #   3 in fldList, rec=   3
(PID.TID 0000.0001) READ_MFLDS_3D_RL: read field: "Theta   ", #   5 in fldList, rec=   5
(PID.TID 0000.0001) READ_MFLDS_3D_RL: read field: "Salt    ", #   7 in fldList, rec=   7
(PID.TID 0000.0001) READ_MFLDS_3D_RL: read field: "GuNm1   ", #   2 in fldList, rec=   2
(PID.TID 0000.0001) READ_MFLDS_3D_RL: read field: "GvNm1   ", #   4 in fldList, rec=   4
(PID.TID 0000.0001) READ_MFLDS_3D_RL: read field: "EtaN    ", #   9 in fldList, rec= 121
(PID.TID 0000.0001) READ_MFLDS_3D_RL: read field: "dEtaHdt ", #  10 in fldList, rec= 122
(PID.TID 0000.0001) READ_MFLDS_3D_RL: read field: "EtaH    ", #  11 in fldList, rec= 123
(PID.TID 0000.0001) READ_MFLDS_CHECK: - normal end ; reset MFLDS file-name: pickup.0000072000
(PID.TID 0000.0001)  nRecords =  15 ; filePrec =  64 ; fileIter =     72000
(PID.TID 0000.0001)     nDims =   2 , dims:
(PID.TID 0000.0001)    1: 192   1 192
(PID.TID 0000.0001)    2:  32   1  32
(PID.TID 0000.0001)     nFlds =  15 , nFl3D =   0 , fields:
(PID.TID 0000.0001)  >siTICE  < >siYNEG  < >siHSNOW < >siUICE  < >siUICE_2< >siUICE_3< >siVICE  < >siVICE_2< >siVICE_3< >siHEFF  < >siHEFF_2< >siHEFF_3< >siAREA  < >siAREA_2< >siAREA_3<
(PID.TID 0000.0001) missingVal=  1.00000000000000E+00 ; nTimRec =   0 , timeList:
(PID.TID 0000.0001) READ_MFLDS_LEV_RL: read field: "siTICE  ", #   1 in fldList, rec=   1
(PID.TID 0000.0001) READ_MFLDS_3D_RL: read field: "siAREA  ", #  13 in fldList, rec=  13
(PID.TID 0000.0001) READ_MFLDS_3D_RL: read field: "siHEFF  ", #  10 in fldList, rec=  10
(PID.TID 0000.0001) READ_MFLDS_3D_RL: read field: "siHSNOW ", #   3 in fldList, rec=   3
(PID.TID 0000.0001) READ_MFLDS_3D_RL: read field: "siUICE  ", #   4 in fldList, rec=   4
(PID.TID 0000.0001) READ_MFLDS_3D_RL: read field: "siVICE  ", #   7 in fldList, rec=   7
(PID.TID 0000.0001) READ_MFLDS_CHECK: - normal end ; reset MFLDS file-name: pickup_seaice.0000072000
(PID.TID 0000.0001) // =======================================================
(PID.TID 0000.0001) // Model current state
(PID.TID 0000.0001) // =======================================================
(PID.TID 0000.0001) 
(PID.TID 0000.0001) SOLVE_FOR_PRESSURE: putPmEinXvector =    F
 cg2d: Sum(rhs),rhsMax =   2.21291478476371E+03  2.01372754051185E+01
 cg2d: Sum(rhs),rhsMax =   2.21288691567079E+03  2.05338888999431E+01
 cg2d: Sum(rhs),rhsMax =   2.21267837864329E+03  2.07023144100045E+01
 cg2d: Sum(rhs),rhsMax =   2.21246317582687E+03  2.08570982849799E+01
 cg2d: Sum(rhs),rhsMax =   2.21223975278217E+03  2.09779537629582E+01
(PID.TID 0000.0001) Did not write pickup because writePickupAtEnd = FALSE
(PID.TID 0000.0001)   early fc =  0.000000000000000D+00
 --> objf_test(bi,bj)   =  0.971423646584162D+04
 --> objf_test(bi,bj)   =  0.743444248306132D+04
 --> objf_test(bi,bj)   =  0.916061123358289D+04
 --> objf_test(bi,bj)   =  0.776111598395164D+04
 --> objf_test(bi,bj)   =  0.645188366964846D+04
 --> objf_test(bi,bj)   =  0.121082946489631D+05
 --> objf_test(bi,bj)   =  0.130205818144919D+05
 --> objf_test(bi,bj)   =  0.134004371116706D+05
 --> objf_test(bi,bj)   =  0.704975745893550D+04
 --> objf_test(bi,bj)   =  0.654290310215675D+04
 --> objf_test(bi,bj)   =  0.974952434985196D+04
 --> objf_test(bi,bj)   =  0.845212527965782D+04
(PID.TID 0000.0001)   local fc =  0.110845913601814D+06
(PID.TID 0000.0001)  global fc =  0.110845913601814D+06
(PID.TID 0000.0001) grdchk perturb(+)fc: fcpertplus  =  1.10845913601814E+05
(PID.TID 0000.0001)  nRecords = 123 ; filePrec =  64 ; fileIter =     72000
(PID.TID 0000.0001)     nDims =   2 , dims:
(PID.TID 0000.0001)    1: 192   1 192
(PID.TID 0000.0001)    2:  32   1  32
(PID.TID 0000.0001)     nFlds =  11 , nFl3D =   8 , fields:
(PID.TID 0000.0001)  >Uvel    < >GuNm1   < >Vvel    < >GvNm1   < >Theta   < >GtNm1   < >Salt    < >GsNm1   < >EtaN    < >dEtaHdt < >EtaH    <
(PID.TID 0000.0001) missingVal=  1.00000000000000E+00 ; nTimRec =   0 , timeList:
(PID.TID 0000.0001) READ_MFLDS_3D_RL: read field: "Uvel    ", #   1 in fldList, rec=   1
(PID.TID 0000.0001) READ_MFLDS_3D_RL: read field: "Vvel    ", #   3 in fldList, rec=   3
(PID.TID 0000.0001) READ_MFLDS_3D_RL: read field: "Theta   ", #   5 in fldList, rec=   5
(PID.TID 0000.0001) READ_MFLDS_3D_RL: read field: "Salt    ", #   7 in fldList, rec=   7
(PID.TID 0000.0001) READ_MFLDS_3D_RL: read field: "GuNm1   ", #   2 in fldList, rec=   2
(PID.TID 0000.0001) READ_MFLDS_3D_RL: read field: "GvNm1   ", #   4 in fldList, rec=   4
(PID.TID 0000.0001) READ_MFLDS_3D_RL: read field: "EtaN    ", #   9 in fldList, rec= 121
(PID.TID 0000.0001) READ_MFLDS_3D_RL: read field: "dEtaHdt ", #  10 in fldList, rec= 122
(PID.TID 0000.0001) READ_MFLDS_3D_RL: read field: "EtaH    ", #  11 in fldList, rec= 123
(PID.TID 0000.0001) READ_MFLDS_CHECK: - normal end ; reset MFLDS file-name: pickup.0000072000
(PID.TID 0000.0001)  nRecords =  15 ; filePrec =  64 ; fileIter =     72000
(PID.TID 0000.0001)     nDims =   2 , dims:
(PID.TID 0000.0001)    1: 192   1 192
(PID.TID 0000.0001)    2:  32   1  32
(PID.TID 0000.0001)     nFlds =  15 , nFl3D =   0 , fields:
(PID.TID 0000.0001)  >siTICE  < >siYNEG  < >siHSNOW < >siUICE  < >siUICE_2< >siUICE_3< >siVICE  < >siVICE_2< >siVICE_3< >siHEFF  < >siHEFF_2< >siHEFF_3< >siAREA  < >siAREA_2< >siAREA_3<
(PID.TID 0000.0001) missingVal=  1.00000000000000E+00 ; nTimRec =   0 , timeList:
(PID.TID 0000.0001) READ_MFLDS_LEV_RL: read field: "siTICE  ", #   1 in fldList, rec=   1
(PID.TID 0000.0001) READ_MFLDS_3D_RL: read field: "siAREA  ", #  13 in fldList, rec=  13
(PID.TID 0000.0001) READ_MFLDS_3D_RL: read field: "siHEFF  ", #  10 in fldList, rec=  10
(PID.TID 0000.0001) READ_MFLDS_3D_RL: read field: "siHSNOW ", #   3 in fldList, rec=   3
(PID.TID 0000.0001) READ_MFLDS_3D_RL: read field: "siUICE  ", #   4 in fldList, rec=   4
(PID.TID 0000.0001) READ_MFLDS_3D_RL: read field: "siVICE  ", #   7 in fldList, rec=   7
(PID.TID 0000.0001) READ_MFLDS_CHECK: - normal end ; reset MFLDS file-name: pickup_seaice.0000072000
(PID.TID 0000.0001) // =======================================================
(PID.TID 0000.0001) // Model current state
(PID.TID 0000.0001) // =======================================================
(PID.TID 0000.0001) 
(PID.TID 0000.0001) SOLVE_FOR_PRESSURE: putPmEinXvector =    F
 cg2d: Sum(rhs),rhsMax =   2.21291478450160E+03  2.01372754051185E+01
 cg2d: Sum(rhs),rhsMax =   2.21288691514851E+03  2.05338888793263E+01
 cg2d: Sum(rhs),rhsMax =   2.21267837786262E+03  2.07023143845931E+01
 cg2d: Sum(rhs),rhsMax =   2.21246317471103E+03  2.08570982697517E+01
 cg2d: Sum(rhs),rhsMax =   2.21223975143253E+03  2.09779537544000E+01
(PID.TID 0000.0001) Did not write pickup because writePickupAtEnd = FALSE
(PID.TID 0000.0001)   early fc =  0.000000000000000D+00
 --> objf_test(bi,bj)   =  0.971415771887447D+04
 --> objf_test(bi,bj)   =  0.743444248312015D+04
 --> objf_test(bi,bj)   =  0.916061123350408D+04
 --> objf_test(bi,bj)   =  0.776111598383156D+04
 --> objf_test(bi,bj)   =  0.645188366964485D+04
 --> objf_test(bi,bj)   =  0.121082946491713D+05
 --> objf_test(bi,bj)   =  0.130205818145378D+05
 --> objf_test(bi,bj)   =  0.134004371116385D+05
 --> objf_test(bi,bj)   =  0.704975745889192D+04
 --> objf_test(bi,bj)   =  0.654289971212696D+04
 --> objf_test(bi,bj)   =  0.974952434184465D+04
 --> objf_test(bi,bj)   =  0.845212069122453D+04
(PID.TID 0000.0001)   local fc =  0.110845826868411D+06
(PID.TID 0000.0001)  global fc =  0.110845826868411D+06
(PID.TID 0000.0001) grdchk perturb(-)fc: fcpertminus =  1.10845826868411E+05
grad-res -------------------------------
 grad-res     0    1    1    1    1    1    1    1   1.10845870965E+05  1.10845913602E+05  1.10845826868E+05
 grad-res     0    1    1    1    0    1    1    1   4.33604851671E+00  4.33667013931E+00 -1.43361542407E-04
(PID.TID 0000.0001)  ADM  ref_cost_function      =  1.10845870964906E+05
(PID.TID 0000.0001)  ADM  adjoint_gradient       =  4.33604851670641E+00
(PID.TID 0000.0001)  ADM  finite-diff_grad       =  4.33667013930972E+00
(PID.TID 0000.0001) ====== End of gradient-check number   1 (ierr=  0) =======
(PID.TID 0000.0001) ====== Starts gradient-check number   2 (=ichknum) =======
 ph-test icomp, ncvarcomp, ichknum            2       55522           2
 ph-grd _loc: bi, bj, icomptest, ichknum            1           1           1           2
 ph-grd -->hit<--            2           1           1           1
(PID.TID 0000.0001) grdchk pos: i,j,k=    2    1    1 ; bi,bj=   1   1 ; iobc=  1 ; rec=   1
(PID.TID 0000.0001)  nRecords = 123 ; filePrec =  64 ; fileIter =     72000
(PID.TID 0000.0001)     nDims =   2 , dims:
(PID.TID 0000.0001)    1: 192   1 192
(PID.TID 0000.0001)    2:  32   1  32
(PID.TID 0000.0001)     nFlds =  11 , nFl3D =   8 , fields:
(PID.TID 0000.0001)  >Uvel    < >GuNm1   < >Vvel    < >GvNm1   < >Theta   < >GtNm1   < >Salt    < >GsNm1   < >EtaN    < >dEtaHdt < >EtaH    <
(PID.TID 0000.0001) missingVal=  1.00000000000000E+00 ; nTimRec =   0 , timeList:
(PID.TID 0000.0001) READ_MFLDS_3D_RL: read field: "Uvel    ", #   1 in fldList, rec=   1
(PID.TID 0000.0001) READ_MFLDS_3D_RL: read field: "Vvel    ", #   3 in fldList, rec=   3
(PID.TID 0000.0001) READ_MFLDS_3D_RL: read field: "Theta   ", #   5 in fldList, rec=   5
(PID.TID 0000.0001) READ_MFLDS_3D_RL: read field: "Salt    ", #   7 in fldList, rec=   7
(PID.TID 0000.0001) READ_MFLDS_3D_RL: read field: "GuNm1   ", #   2 in fldList, rec=   2
(PID.TID 0000.0001) READ_MFLDS_3D_RL: read field: "GvNm1   ", #   4 in fldList, rec=   4
(PID.TID 0000.0001) READ_MFLDS_3D_RL: read field: "EtaN    ", #   9 in fldList, rec= 121
(PID.TID 0000.0001) READ_MFLDS_3D_RL: read field: "dEtaHdt ", #  10 in fldList, rec= 122
(PID.TID 0000.0001) READ_MFLDS_3D_RL: read field: "EtaH    ", #  11 in fldList, rec= 123
(PID.TID 0000.0001) READ_MFLDS_CHECK: - normal end ; reset MFLDS file-name: pickup.0000072000
(PID.TID 0000.0001)  nRecords =  15 ; filePrec =  64 ; fileIter =     72000
(PID.TID 0000.0001)     nDims =   2 , dims:
(PID.TID 0000.0001)    1: 192   1 192
(PID.TID 0000.0001)    2:  32   1  32
(PID.TID 0000.0001)     nFlds =  15 , nFl3D =   0 , fields:
(PID.TID 0000.0001)  >siTICE  < >siYNEG  < >siHSNOW < >siUICE  < >siUICE_2< >siUICE_3< >siVICE  < >siVICE_2< >siVICE_3< >siHEFF  < >siHEFF_2< >siHEFF_3< >siAREA  < >siAREA_2< >siAREA_3<
(PID.TID 0000.0001) missingVal=  1.00000000000000E+00 ; nTimRec =   0 , timeList:
(PID.TID 0000.0001) READ_MFLDS_LEV_RL: read field: "siTICE  ", #   1 in fldList, rec=   1
(PID.TID 0000.0001) READ_MFLDS_3D_RL: read field: "siAREA  ", #  13 in fldList, rec=  13
(PID.TID 0000.0001) READ_MFLDS_3D_RL: read field: "siHEFF  ", #  10 in fldList, rec=  10
(PID.TID 0000.0001) READ_MFLDS_3D_RL: read field: "siHSNOW ", #   3 in fldList, rec=   3
(PID.TID 0000.0001) READ_MFLDS_3D_RL: read field: "siUICE  ", #   4 in fldList, rec=   4
(PID.TID 0000.0001) READ_MFLDS_3D_RL: read field: "siVICE  ", #   7 in fldList, rec=   7
(PID.TID 0000.0001) READ_MFLDS_CHECK: - normal end ; reset MFLDS file-name: pickup_seaice.0000072000
(PID.TID 0000.0001) // =======================================================
(PID.TID 0000.0001) // Model current state
(PID.TID 0000.0001) // =======================================================
(PID.TID 0000.0001) 
(PID.TID 0000.0001) SOLVE_FOR_PRESSURE: putPmEinXvector =    F
 cg2d: Sum(rhs),rhsMax =   2.21291478484988E+03  2.01372754051185E+01
 cg2d: Sum(rhs),rhsMax =   2.21288691584273E+03  2.05338889073628E+01
 cg2d: Sum(rhs),rhsMax =   2.21267837878909E+03  2.07023144185819E+01
 cg2d: Sum(rhs),rhsMax =   2.21246319888837E+03  2.08570982897918E+01
 cg2d: Sum(rhs),rhsMax =   2.21223974896267E+03  2.09779537651032E+01
(PID.TID 0000.0001) Did not write pickup because writePickupAtEnd = FALSE
(PID.TID 0000.0001)   early fc =  0.000000000000000D+00
 --> objf_test(bi,bj)   =  0.971423709571936D+04
 --> objf_test(bi,bj)   =  0.743444248303910D+04
 --> objf_test(bi,bj)   =  0.916061123356421D+04
 --> objf_test(bi,bj)   =  0.776111598399401D+04
 --> objf_test(bi,bj)   =  0.645188366965087D+04
 --> objf_test(bi,bj)   =  0.121082946488870D+05
 --> objf_test(bi,bj)   =  0.130205818145734D+05
 --> objf_test(bi,bj)   =  0.134004371116292D+05
 --> objf_test(bi,bj)   =  0.704975745894115D+04
 --> objf_test(bi,bj)   =  0.654290153413955D+04
 --> objf_test(bi,bj)   =  0.974952513510397D+04
 --> objf_test(bi,bj)   =  0.845212416257541D+04
(PID.TID 0000.0001)   local fc =  0.110845912331817D+06
(PID.TID 0000.0001)  global fc =  0.110845912331817D+06
(PID.TID 0000.0001) grdchk perturb(+)fc: fcpertplus  =  1.10845912331817E+05
(PID.TID 0000.0001)  nRecords = 123 ; filePrec =  64 ; fileIter =     72000
(PID.TID 0000.0001)     nDims =   2 , dims:
(PID.TID 0000.0001)    1: 192   1 192
(PID.TID 0000.0001)    2:  32   1  32
(PID.TID 0000.0001)     nFlds =  11 , nFl3D =   8 , fields:
(PID.TID 0000.0001)  >Uvel    < >GuNm1   < >Vvel    < >GvNm1   < >Theta   < >GtNm1   < >Salt    < >GsNm1   < >EtaN    < >dEtaHdt < >EtaH    <
(PID.TID 0000.0001) missingVal=  1.00000000000000E+00 ; nTimRec =   0 , timeList:
(PID.TID 0000.0001) READ_MFLDS_3D_RL: read field: "Uvel    ", #   1 in fldList, rec=   1
(PID.TID 0000.0001) READ_MFLDS_3D_RL: read field: "Vvel    ", #   3 in fldList, rec=   3
(PID.TID 0000.0001) READ_MFLDS_3D_RL: read field: "Theta   ", #   5 in fldList, rec=   5
(PID.TID 0000.0001) READ_MFLDS_3D_RL: read field: "Salt    ", #   7 in fldList, rec=   7
(PID.TID 0000.0001) READ_MFLDS_3D_RL: read field: "GuNm1   ", #   2 in fldList, rec=   2
(PID.TID 0000.0001) READ_MFLDS_3D_RL: read field: "GvNm1   ", #   4 in fldList, rec=   4
(PID.TID 0000.0001) READ_MFLDS_3D_RL: read field: "EtaN    ", #   9 in fldList, rec= 121
(PID.TID 0000.0001) READ_MFLDS_3D_RL: read field: "dEtaHdt ", #  10 in fldList, rec= 122
(PID.TID 0000.0001) READ_MFLDS_3D_RL: read field: "EtaH    ", #  11 in fldList, rec= 123
(PID.TID 0000.0001) READ_MFLDS_CHECK: - normal end ; reset MFLDS file-name: pickup.0000072000
(PID.TID 0000.0001)  nRecords =  15 ; filePrec =  64 ; fileIter =     72000
(PID.TID 0000.0001)     nDims =   2 , dims:
(PID.TID 0000.0001)    1: 192   1 192
(PID.TID 0000.0001)    2:  32   1  32
(PID.TID 0000.0001)     nFlds =  15 , nFl3D =   0 , fields:
(PID.TID 0000.0001)  >siTICE  < >siYNEG  < >siHSNOW < >siUICE  < >siUICE_2< >siUICE_3< >siVICE  < >siVICE_2< >siVICE_3< >siHEFF  < >siHEFF_2< >siHEFF_3< >siAREA  < >siAREA_2< >siAREA_3<
(PID.TID 0000.0001) missingVal=  1.00000000000000E+00 ; nTimRec =   0 , timeList:
(PID.TID 0000.0001) READ_MFLDS_LEV_RL: read field: "siTICE  ", #   1 in fldList, rec=   1
(PID.TID 0000.0001) READ_MFLDS_3D_RL: read field: "siAREA  ", #  13 in fldList, rec=  13
(PID.TID 0000.0001) READ_MFLDS_3D_RL: read field: "siHEFF  ", #  10 in fldList, rec=  10
(PID.TID 0000.0001) READ_MFLDS_3D_RL: read field: "siHSNOW ", #   3 in fldList, rec=   3
(PID.TID 0000.0001) READ_MFLDS_3D_RL: read field: "siUICE  ", #   4 in fldList, rec=   4
(PID.TID 0000.0001) READ_MFLDS_3D_RL: read field: "siVICE  ", #   7 in fldList, rec=   7
(PID.TID 0000.0001) READ_MFLDS_CHECK: - normal end ; reset MFLDS file-name: pickup_seaice.0000072000
(PID.TID 0000.0001) // =======================================================
(PID.TID 0000.0001) // Model current state
(PID.TID 0000.0001) // =======================================================
(PID.TID 0000.0001) 
(PID.TID 0000.0001) SOLVE_FOR_PRESSURE: putPmEinXvector =    F
 cg2d: Sum(rhs),rhsMax =   2.21291478441542E+03  2.01372754051185E+01
 cg2d: Sum(rhs),rhsMax =   2.21288691497657E+03  2.05338888719161E+01
 cg2d: Sum(rhs),rhsMax =   2.21267837749403E+03  2.07023143760207E+01
 cg2d: Sum(rhs),rhsMax =   2.21246319716727E+03  2.08570982649198E+01
 cg2d: Sum(rhs),rhsMax =   2.21223974642471E+03  2.09779537513628E+01
(PID.TID 0000.0001) Did not write pickup because writePickupAtEnd = FALSE
(PID.TID 0000.0001)   early fc =  0.000000000000000D+00
 --> objf_test(bi,bj)   =  0.971415711198878D+04
 --> objf_test(bi,bj)   =  0.743444248314197D+04
 --> objf_test(bi,bj)   =  0.916061123342902D+04
 --> objf_test(bi,bj)   =  0.776111598378760D+04
 --> objf_test(bi,bj)   =  0.645188366964456D+04
 --> objf_test(bi,bj)   =  0.121082946492454D+05
 --> objf_test(bi,bj)   =  0.130205818146528D+05
 --> objf_test(bi,bj)   =  0.134004371115749D+05
 --> objf_test(bi,bj)   =  0.704975745886666D+04
 --> objf_test(bi,bj)   =  0.654290127802644D+04
 --> objf_test(bi,bj)   =  0.974952527155279D+04
 --> objf_test(bi,bj)   =  0.845212180794713D+04
(PID.TID 0000.0001)   local fc =  0.110845829873858D+06
(PID.TID 0000.0001)  global fc =  0.110845829873858D+06
(PID.TID 0000.0001) grdchk perturb(-)fc: fcpertminus =  1.10845829873858E+05
grad-res -------------------------------
 grad-res     0    2    2    1    1    1    1    1   1.10845870965E+05  1.10845912332E+05  1.10845829874E+05
 grad-res     0    2    2    2    0    1    1    1   4.12975055861E+00  4.12289795713E+00  1.65932575875E-03
(PID.TID 0000.0001)  ADM  ref_cost_function      =  1.10845870964906E+05
(PID.TID 0000.0001)  ADM  adjoint_gradient       =  4.12975055861062E+00
(PID.TID 0000.0001)  ADM  finite-diff_grad       =  4.12289795713150E+00
(PID.TID 0000.0001) ====== End of gradient-check number   2 (ierr=  0) =======
(PID.TID 0000.0001) ====== Starts gradient-check number   3 (=ichknum) =======
 ph-test icomp, ncvarcomp, ichknum            3       55522           3
 ph-grd _loc: bi, bj, icomptest, ichknum            1           1           2           3
 ph-grd -->hit<--            3           1           1           1
(PID.TID 0000.0001) grdchk pos: i,j,k=    3    1    1 ; bi,bj=   1   1 ; iobc=  1 ; rec=   1
(PID.TID 0000.0001)  nRecords = 123 ; filePrec =  64 ; fileIter =     72000
(PID.TID 0000.0001)     nDims =   2 , dims:
(PID.TID 0000.0001)    1: 192   1 192
(PID.TID 0000.0001)    2:  32   1  32
(PID.TID 0000.0001)     nFlds =  11 , nFl3D =   8 , fields:
(PID.TID 0000.0001)  >Uvel    < >GuNm1   < >Vvel    < >GvNm1   < >Theta   < >GtNm1   < >Salt    < >GsNm1   < >EtaN    < >dEtaHdt < >EtaH    <
(PID.TID 0000.0001) missingVal=  1.00000000000000E+00 ; nTimRec =   0 , timeList:
(PID.TID 0000.0001) READ_MFLDS_3D_RL: read field: "Uvel    ", #   1 in fldList, rec=   1
(PID.TID 0000.0001) READ_MFLDS_3D_RL: read field: "Vvel    ", #   3 in fldList, rec=   3
(PID.TID 0000.0001) READ_MFLDS_3D_RL: read field: "Theta   ", #   5 in fldList, rec=   5
(PID.TID 0000.0001) READ_MFLDS_3D_RL: read field: "Salt    ", #   7 in fldList, rec=   7
(PID.TID 0000.0001) READ_MFLDS_3D_RL: read field: "GuNm1   ", #   2 in fldList, rec=   2
(PID.TID 0000.0001) READ_MFLDS_3D_RL: read field: "GvNm1   ", #   4 in fldList, rec=   4
(PID.TID 0000.0001) READ_MFLDS_3D_RL: read field: "EtaN    ", #   9 in fldList, rec= 121
(PID.TID 0000.0001) READ_MFLDS_3D_RL: read field: "dEtaHdt ", #  10 in fldList, rec= 122
(PID.TID 0000.0001) READ_MFLDS_3D_RL: read field: "EtaH    ", #  11 in fldList, rec= 123
(PID.TID 0000.0001) READ_MFLDS_CHECK: - normal end ; reset MFLDS file-name: pickup.0000072000
(PID.TID 0000.0001)  nRecords =  15 ; filePrec =  64 ; fileIter =     72000
(PID.TID 0000.0001)     nDims =   2 , dims:
(PID.TID 0000.0001)    1: 192   1 192
(PID.TID 0000.0001)    2:  32   1  32
(PID.TID 0000.0001)     nFlds =  15 , nFl3D =   0 , fields:
(PID.TID 0000.0001)  >siTICE  < >siYNEG  < >siHSNOW < >siUICE  < >siUICE_2< >siUICE_3< >siVICE  < >siVICE_2< >siVICE_3< >siHEFF  < >siHEFF_2< >siHEFF_3< >siAREA  < >siAREA_2< >siAREA_3<
(PID.TID 0000.0001) missingVal=  1.00000000000000E+00 ; nTimRec =   0 , timeList:
(PID.TID 0000.0001) READ_MFLDS_LEV_RL: read field: "siTICE  ", #   1 in fldList, rec=   1
(PID.TID 0000.0001) READ_MFLDS_3D_RL: read field: "siAREA  ", #  13 in fldList, rec=  13
(PID.TID 0000.0001) READ_MFLDS_3D_RL: read field: "siHEFF  ", #  10 in fldList, rec=  10
(PID.TID 0000.0001) READ_MFLDS_3D_RL: read field: "siHSNOW ", #   3 in fldList, rec=   3
(PID.TID 0000.0001) READ_MFLDS_3D_RL: read field: "siUICE  ", #   4 in fldList, rec=   4
(PID.TID 0000.0001) READ_MFLDS_3D_RL: read field: "siVICE  ", #   7 in fldList, rec=   7
(PID.TID 0000.0001) READ_MFLDS_CHECK: - normal end ; reset MFLDS file-name: pickup_seaice.0000072000
(PID.TID 0000.0001) // =======================================================
(PID.TID 0000.0001) // Model current state
(PID.TID 0000.0001) // =======================================================
(PID.TID 0000.0001) 
(PID.TID 0000.0001) SOLVE_FOR_PRESSURE: putPmEinXvector =    F
 cg2d: Sum(rhs),rhsMax =   2.21291478494371E+03  2.01372754051185E+01
 cg2d: Sum(rhs),rhsMax =   2.21288691602837E+03  2.05338889137089E+01
 cg2d: Sum(rhs),rhsMax =   2.21267837917598E+03  2.07023144256482E+01
 cg2d: Sum(rhs),rhsMax =   2.21246317653217E+03  2.08570982940046E+01
 cg2d: Sum(rhs),rhsMax =   2.21223975367983E+03  2.09779537683401E+01
(PID.TID 0000.0001) Did not write pickup because writePickupAtEnd = FALSE
(PID.TID 0000.0001)   early fc =  0.000000000000000D+00
 --> objf_test(bi,bj)   =  0.971423050286502D+04
 --> objf_test(bi,bj)   =  0.743444248302085D+04
 --> objf_test(bi,bj)   =  0.916061123363438D+04
 --> objf_test(bi,bj)   =  0.776111598403102D+04
 --> objf_test(bi,bj)   =  0.645188366965087D+04
 --> objf_test(bi,bj)   =  0.121082946488258D+05
 --> objf_test(bi,bj)   =  0.130205818144630D+05
 --> objf_test(bi,bj)   =  0.134004371116901D+05
 --> objf_test(bi,bj)   =  0.704975745896349D+04
 --> objf_test(bi,bj)   =  0.654290141148619D+04
 --> objf_test(bi,bj)   =  0.974952441425848D+04
 --> objf_test(bi,bj)   =  0.845212329190989D+04
(PID.TID 0000.0001)   local fc =  0.110845904024799D+06
(PID.TID 0000.0001)  global fc =  0.110845904024799D+06
(PID.TID 0000.0001) grdchk perturb(+)fc: fcpertplus  =  1.10845904024799E+05
(PID.TID 0000.0001)  nRecords = 123 ; filePrec =  64 ; fileIter =     72000
(PID.TID 0000.0001)     nDims =   2 , dims:
(PID.TID 0000.0001)    1: 192   1 192
(PID.TID 0000.0001)    2:  32   1  32
(PID.TID 0000.0001)     nFlds =  11 , nFl3D =   8 , fields:
(PID.TID 0000.0001)  >Uvel    < >GuNm1   < >Vvel    < >GvNm1   < >Theta   < >GtNm1   < >Salt    < >GsNm1   < >EtaN    < >dEtaHdt < >EtaH    <
(PID.TID 0000.0001) missingVal=  1.00000000000000E+00 ; nTimRec =   0 , timeList:
(PID.TID 0000.0001) READ_MFLDS_3D_RL: read field: "Uvel    ", #   1 in fldList, rec=   1
(PID.TID 0000.0001) READ_MFLDS_3D_RL: read field: "Vvel    ", #   3 in fldList, rec=   3
(PID.TID 0000.0001) READ_MFLDS_3D_RL: read field: "Theta   ", #   5 in fldList, rec=   5
(PID.TID 0000.0001) READ_MFLDS_3D_RL: read field: "Salt    ", #   7 in fldList, rec=   7
(PID.TID 0000.0001) READ_MFLDS_3D_RL: read field: "GuNm1   ", #   2 in fldList, rec=   2
(PID.TID 0000.0001) READ_MFLDS_3D_RL: read field: "GvNm1   ", #   4 in fldList, rec=   4
(PID.TID 0000.0001) READ_MFLDS_3D_RL: read field: "EtaN    ", #   9 in fldList, rec= 121
(PID.TID 0000.0001) READ_MFLDS_3D_RL: read field: "dEtaHdt ", #  10 in fldList, rec= 122
(PID.TID 0000.0001) READ_MFLDS_3D_RL: read field: "EtaH    ", #  11 in fldList, rec= 123
(PID.TID 0000.0001) READ_MFLDS_CHECK: - normal end ; reset MFLDS file-name: pickup.0000072000
(PID.TID 0000.0001)  nRecords =  15 ; filePrec =  64 ; fileIter =     72000
(PID.TID 0000.0001)     nDims =   2 , dims:
(PID.TID 0000.0001)    1: 192   1 192
(PID.TID 0000.0001)    2:  32   1  32
(PID.TID 0000.0001)     nFlds =  15 , nFl3D =   0 , fields:
(PID.TID 0000.0001)  >siTICE  < >siYNEG  < >siHSNOW < >siUICE  < >siUICE_2< >siUICE_3< >siVICE  < >siVICE_2< >siVICE_3< >siHEFF  < >siHEFF_2< >siHEFF_3< >siAREA  < >siAREA_2< >siAREA_3<
(PID.TID 0000.0001) missingVal=  1.00000000000000E+00 ; nTimRec =   0 , timeList:
(PID.TID 0000.0001) READ_MFLDS_LEV_RL: read field: "siTICE  ", #   1 in fldList, rec=   1
(PID.TID 0000.0001) READ_MFLDS_3D_RL: read field: "siAREA  ", #  13 in fldList, rec=  13
(PID.TID 0000.0001) READ_MFLDS_3D_RL: read field: "siHEFF  ", #  10 in fldList, rec=  10
(PID.TID 0000.0001) READ_MFLDS_3D_RL: read field: "siHSNOW ", #   3 in fldList, rec=   3
(PID.TID 0000.0001) READ_MFLDS_3D_RL: read field: "siUICE  ", #   4 in fldList, rec=   4
(PID.TID 0000.0001) READ_MFLDS_3D_RL: read field: "siVICE  ", #   7 in fldList, rec=   7
(PID.TID 0000.0001) READ_MFLDS_CHECK: - normal end ; reset MFLDS file-name: pickup_seaice.0000072000
(PID.TID 0000.0001) // =======================================================
(PID.TID 0000.0001) // Model current state
(PID.TID 0000.0001) // =======================================================
(PID.TID 0000.0001) 
(PID.TID 0000.0001) SOLVE_FOR_PRESSURE: putPmEinXvector =    F
 cg2d: Sum(rhs),rhsMax =   2.21291478432160E+03  2.01372754051185E+01
 cg2d: Sum(rhs),rhsMax =   2.21288691479094E+03  2.05338888655699E+01
 cg2d: Sum(rhs),rhsMax =   2.21267837721854E+03  2.07023143689513E+01
 cg2d: Sum(rhs),rhsMax =   2.21246319680384E+03  2.08570982607161E+01
 cg2d: Sum(rhs),rhsMax =   2.21223974634630E+03  2.09779537485695E+01
(PID.TID 0000.0001) Did not write pickup because writePickupAtEnd = FALSE
(PID.TID 0000.0001)   early fc =  0.000000000000000D+00
 --> objf_test(bi,bj)   =  0.971416370505384D+04
 --> objf_test(bi,bj)   =  0.743444248316058D+04
 --> objf_test(bi,bj)   =  0.916061123340679D+04
 --> objf_test(bi,bj)   =  0.776111598375138D+04
 --> objf_test(bi,bj)   =  0.645188366964343D+04
 --> objf_test(bi,bj)   =  0.121082946493075D+05
 --> objf_test(bi,bj)   =  0.130205818146625D+05
 --> objf_test(bi,bj)   =  0.134004371115677D+05
 --> objf_test(bi,bj)   =  0.704975745885431D+04
 --> objf_test(bi,bj)   =  0.654290140065293D+04
 --> objf_test(bi,bj)   =  0.974952507050114D+04
 --> objf_test(bi,bj)   =  0.845212267807557D+04
(PID.TID 0000.0001)   local fc =  0.110845837258638D+06
(PID.TID 0000.0001)  global fc =  0.110845837258638D+06
(PID.TID 0000.0001) grdchk perturb(-)fc: fcpertminus =  1.10845837258638E+05
grad-res -------------------------------
 grad-res     0    3    3    1    1    1    1    1   1.10845870965E+05  1.10845904025E+05  1.10845837259E+05
 grad-res     0    3    3    3    0    1    1    1   3.37114583178E+00  3.33830807504E+00  9.74082949341E-03
(PID.TID 0000.0001)  ADM  ref_cost_function      =  1.10845870964906E+05
(PID.TID 0000.0001)  ADM  adjoint_gradient       =  3.37114583178025E+00
(PID.TID 0000.0001)  ADM  finite-diff_grad       =  3.33830807503546E+00
(PID.TID 0000.0001) ====== End of gradient-check number   3 (ierr=  0) =======
(PID.TID 0000.0001) ====== Starts gradient-check number   4 (=ichknum) =======
 ph-test icomp, ncvarcomp, ichknum            4       55522           4
 ph-grd _loc: bi, bj, icomptest, ichknum            1           1           3           4
 ph-grd -->hit<--            4           1           1           1
(PID.TID 0000.0001) grdchk pos: i,j,k=    4    1    1 ; bi,bj=   1   1 ; iobc=  1 ; rec=   1
(PID.TID 0000.0001)  nRecords = 123 ; filePrec =  64 ; fileIter =     72000
(PID.TID 0000.0001)     nDims =   2 , dims:
(PID.TID 0000.0001)    1: 192   1 192
(PID.TID 0000.0001)    2:  32   1  32
(PID.TID 0000.0001)     nFlds =  11 , nFl3D =   8 , fields:
(PID.TID 0000.0001)  >Uvel    < >GuNm1   < >Vvel    < >GvNm1   < >Theta   < >GtNm1   < >Salt    < >GsNm1   < >EtaN    < >dEtaHdt < >EtaH    <
(PID.TID 0000.0001) missingVal=  1.00000000000000E+00 ; nTimRec =   0 , timeList:
(PID.TID 0000.0001) READ_MFLDS_3D_RL: read field: "Uvel    ", #   1 in fldList, rec=   1
(PID.TID 0000.0001) READ_MFLDS_3D_RL: read field: "Vvel    ", #   3 in fldList, rec=   3
(PID.TID 0000.0001) READ_MFLDS_3D_RL: read field: "Theta   ", #   5 in fldList, rec=   5
(PID.TID 0000.0001) READ_MFLDS_3D_RL: read field: "Salt    ", #   7 in fldList, rec=   7
(PID.TID 0000.0001) READ_MFLDS_3D_RL: read field: "GuNm1   ", #   2 in fldList, rec=   2
(PID.TID 0000.0001) READ_MFLDS_3D_RL: read field: "GvNm1   ", #   4 in fldList, rec=   4
(PID.TID 0000.0001) READ_MFLDS_3D_RL: read field: "EtaN    ", #   9 in fldList, rec= 121
(PID.TID 0000.0001) READ_MFLDS_3D_RL: read field: "dEtaHdt ", #  10 in fldList, rec= 122
(PID.TID 0000.0001) READ_MFLDS_3D_RL: read field: "EtaH    ", #  11 in fldList, rec= 123
(PID.TID 0000.0001) READ_MFLDS_CHECK: - normal end ; reset MFLDS file-name: pickup.0000072000
(PID.TID 0000.0001)  nRecords =  15 ; filePrec =  64 ; fileIter =     72000
(PID.TID 0000.0001)     nDims =   2 , dims:
(PID.TID 0000.0001)    1: 192   1 192
(PID.TID 0000.0001)    2:  32   1  32
(PID.TID 0000.0001)     nFlds =  15 , nFl3D =   0 , fields:
(PID.TID 0000.0001)  >siTICE  < >siYNEG  < >siHSNOW < >siUICE  < >siUICE_2< >siUICE_3< >siVICE  < >siVICE_2< >siVICE_3< >siHEFF  < >siHEFF_2< >siHEFF_3< >siAREA  < >siAREA_2< >siAREA_3<
(PID.TID 0000.0001) missingVal=  1.00000000000000E+00 ; nTimRec =   0 , timeList:
(PID.TID 0000.0001) READ_MFLDS_LEV_RL: read field: "siTICE  ", #   1 in fldList, rec=   1
(PID.TID 0000.0001) READ_MFLDS_3D_RL: read field: "siAREA  ", #  13 in fldList, rec=  13
(PID.TID 0000.0001) READ_MFLDS_3D_RL: read field: "siHEFF  ", #  10 in fldList, rec=  10
(PID.TID 0000.0001) READ_MFLDS_3D_RL: read field: "siHSNOW ", #   3 in fldList, rec=   3
(PID.TID 0000.0001) READ_MFLDS_3D_RL: read field: "siUICE  ", #   4 in fldList, rec=   4
(PID.TID 0000.0001) READ_MFLDS_3D_RL: read field: "siVICE  ", #   7 in fldList, rec=   7
(PID.TID 0000.0001) READ_MFLDS_CHECK: - normal end ; reset MFLDS file-name: pickup_seaice.0000072000
(PID.TID 0000.0001) // =======================================================
(PID.TID 0000.0001) // Model current state
(PID.TID 0000.0001) // =======================================================
(PID.TID 0000.0001) 
(PID.TID 0000.0001) SOLVE_FOR_PRESSURE: putPmEinXvector =    F
 cg2d: Sum(rhs),rhsMax =   2.21291478505563E+03  2.01372754051185E+01
 cg2d: Sum(rhs),rhsMax =   2.21288691625021E+03  2.05338889195846E+01
 cg2d: Sum(rhs),rhsMax =   2.21267837939438E+03  2.07023144313205E+01
 cg2d: Sum(rhs),rhsMax =   2.21246317685586E+03  2.08570982970072E+01
 cg2d: Sum(rhs),rhsMax =   2.21223975408460E+03  2.09779537703128E+01
(PID.TID 0000.0001) Did not write pickup because writePickupAtEnd = FALSE
(PID.TID 0000.0001)   early fc =  0.000000000000000D+00
 --> objf_test(bi,bj)   =  0.971422725266994D+04
 --> objf_test(bi,bj)   =  0.743444248300578D+04
 --> objf_test(bi,bj)   =  0.916061123365344D+04
 --> objf_test(bi,bj)   =  0.776111598406362D+04
 --> objf_test(bi,bj)   =  0.645188366965195D+04
 --> objf_test(bi,bj)   =  0.121082946487747D+05
 --> objf_test(bi,bj)   =  0.130205818144553D+05
 --> objf_test(bi,bj)   =  0.134004371116952D+05
 --> objf_test(bi,bj)   =  0.704975745897376D+04
 --> objf_test(bi,bj)   =  0.654290140599098D+04
 --> objf_test(bi,bj)   =  0.974952429416178D+04
 --> objf_test(bi,bj)   =  0.845212285235221D+04
(PID.TID 0000.0001)   local fc =  0.110845900209449D+06
(PID.TID 0000.0001)  global fc =  0.110845900209449D+06
(PID.TID 0000.0001) grdchk perturb(+)fc: fcpertplus  =  1.10845900209449E+05
(PID.TID 0000.0001)  nRecords = 123 ; filePrec =  64 ; fileIter =     72000
(PID.TID 0000.0001)     nDims =   2 , dims:
(PID.TID 0000.0001)    1: 192   1 192
(PID.TID 0000.0001)    2:  32   1  32
(PID.TID 0000.0001)     nFlds =  11 , nFl3D =   8 , fields:
(PID.TID 0000.0001)  >Uvel    < >GuNm1   < >Vvel    < >GvNm1   < >Theta   < >GtNm1   < >Salt    < >GsNm1   < >EtaN    < >dEtaHdt < >EtaH    <
(PID.TID 0000.0001) missingVal=  1.00000000000000E+00 ; nTimRec =   0 , timeList:
(PID.TID 0000.0001) READ_MFLDS_3D_RL: read field: "Uvel    ", #   1 in fldList, rec=   1
(PID.TID 0000.0001) READ_MFLDS_3D_RL: read field: "Vvel    ", #   3 in fldList, rec=   3
(PID.TID 0000.0001) READ_MFLDS_3D_RL: read field: "Theta   ", #   5 in fldList, rec=   5
(PID.TID 0000.0001) READ_MFLDS_3D_RL: read field: "Salt    ", #   7 in fldList, rec=   7
(PID.TID 0000.0001) READ_MFLDS_3D_RL: read field: "GuNm1   ", #   2 in fldList, rec=   2
(PID.TID 0000.0001) READ_MFLDS_3D_RL: read field: "GvNm1   ", #   4 in fldList, rec=   4
(PID.TID 0000.0001) READ_MFLDS_3D_RL: read field: "EtaN    ", #   9 in fldList, rec= 121
(PID.TID 0000.0001) READ_MFLDS_3D_RL: read field: "dEtaHdt ", #  10 in fldList, rec= 122
(PID.TID 0000.0001) READ_MFLDS_3D_RL: read field: "EtaH    ", #  11 in fldList, rec= 123
(PID.TID 0000.0001) READ_MFLDS_CHECK: - normal end ; reset MFLDS file-name: pickup.0000072000
(PID.TID 0000.0001)  nRecords =  15 ; filePrec =  64 ; fileIter =     72000
(PID.TID 0000.0001)     nDims =   2 , dims:
(PID.TID 0000.0001)    1: 192   1 192
(PID.TID 0000.0001)    2:  32   1  32
(PID.TID 0000.0001)     nFlds =  15 , nFl3D =   0 , fields:
(PID.TID 0000.0001)  >siTICE  < >siYNEG  < >siHSNOW < >siUICE  < >siUICE_2< >siUICE_3< >siVICE  < >siVICE_2< >siVICE_3< >siHEFF  < >siHEFF_2< >siHEFF_3< >siAREA  < >siAREA_2< >siAREA_3<
(PID.TID 0000.0001) missingVal=  1.00000000000000E+00 ; nTimRec =   0 , timeList:
(PID.TID 0000.0001) READ_MFLDS_LEV_RL: read field: "siTICE  ", #   1 in fldList, rec=   1
(PID.TID 0000.0001) READ_MFLDS_3D_RL: read field: "siAREA  ", #  13 in fldList, rec=  13
(PID.TID 0000.0001) READ_MFLDS_3D_RL: read field: "siHEFF  ", #  10 in fldList, rec=  10
(PID.TID 0000.0001) READ_MFLDS_3D_RL: read field: "siHSNOW ", #   3 in fldList, rec=   3
(PID.TID 0000.0001) READ_MFLDS_3D_RL: read field: "siUICE  ", #   4 in fldList, rec=   4
(PID.TID 0000.0001) READ_MFLDS_3D_RL: read field: "siVICE  ", #   7 in fldList, rec=   7
(PID.TID 0000.0001) READ_MFLDS_CHECK: - normal end ; reset MFLDS file-name: pickup_seaice.0000072000
(PID.TID 0000.0001) // =======================================================
(PID.TID 0000.0001) // Model current state
(PID.TID 0000.0001) // =======================================================
(PID.TID 0000.0001) 
(PID.TID 0000.0001) SOLVE_FOR_PRESSURE: putPmEinXvector =    F
 cg2d: Sum(rhs),rhsMax =   2.21291478420969E+03  2.01372754051185E+01
 cg2d: Sum(rhs),rhsMax =   2.21288691456911E+03  2.05338888596998E+01
 cg2d: Sum(rhs),rhsMax =   2.21267837700016E+03  2.07023143632911E+01
 cg2d: Sum(rhs),rhsMax =   2.21246317356999E+03  2.08570982577151E+01
 cg2d: Sum(rhs),rhsMax =   2.21223974884781E+03  2.09779537470165E+01
(PID.TID 0000.0001) Did not write pickup because writePickupAtEnd = FALSE
(PID.TID 0000.0001)   early fc =  0.000000000000000D+00
 --> objf_test(bi,bj)   =  0.971416695275055D+04
 --> objf_test(bi,bj)   =  0.743444248317572D+04
 --> objf_test(bi,bj)   =  0.916061123342800D+04
 --> objf_test(bi,bj)   =  0.776111598371951D+04
 --> objf_test(bi,bj)   =  0.645188366964155D+04
 --> objf_test(bi,bj)   =  0.121082946493594D+05
 --> objf_test(bi,bj)   =  0.130205818145865D+05
 --> objf_test(bi,bj)   =  0.134004371116077D+05
 --> objf_test(bi,bj)   =  0.704975745885247D+04
 --> objf_test(bi,bj)   =  0.654290140615904D+04
 --> objf_test(bi,bj)   =  0.974952502789112D+04
 --> objf_test(bi,bj)   =  0.845212311742108D+04
(PID.TID 0000.0001)   local fc =  0.110845840908593D+06
(PID.TID 0000.0001)  global fc =  0.110845840908593D+06
(PID.TID 0000.0001) grdchk perturb(-)fc: fcpertminus =  1.10845840908593E+05
grad-res -------------------------------
 grad-res     0    4    4    1    1    1    1    1   1.10845870965E+05  1.10845900209E+05  1.10845840909E+05
 grad-res     0    4    4    4    0    1    1    1   3.00171927698E+00  2.96504280122E+00  1.22184895968E-02
(PID.TID 0000.0001)  ADM  ref_cost_function      =  1.10845870964906E+05
(PID.TID 0000.0001)  ADM  adjoint_gradient       =  3.00171927698303E+00
(PID.TID 0000.0001)  ADM  finite-diff_grad       =  2.96504280122463E+00
(PID.TID 0000.0001) ====== End of gradient-check number   4 (ierr=  0) =======
(PID.TID 0000.0001) 
(PID.TID 0000.0001) // =======================================================
(PID.TID 0000.0001) // Gradient check results  >>> START <<<
(PID.TID 0000.0001) // =======================================================
(PID.TID 0000.0001) 
(PID.TID 0000.0001)  EPS =   1.000000E-02
(PID.TID 0000.0001) 
(PID.TID 0000.0001) grdchk output h.p:  Id Itile Jtile LAYER   bi   bj   X(Id)           X(Id)+/-EPS
(PID.TID 0000.0001) grdchk output h.c:  Id  FC                   FC1                  FC2
(PID.TID 0000.0001) grdchk output h.g:  Id     FC1-FC2/(2*EPS)      ADJ GRAD(FC)         1-FDGRD/ADGRD
(PID.TID 0000.0001) 
(PID.TID 0000.0001) grdchk output (p):   1     1     1     1    1    1   0.000000000E+00 -1.000000000E-02
(PID.TID 0000.0001) grdchk output (c):   1  1.1084587096491E+05  1.1084591360181E+05  1.1084582686841E+05
(PID.TID 0000.0001) grdchk output (g):   1     4.3366701393097E+00  4.3360485167064E+00 -1.4336154240691E-04
(PID.TID 0000.0001) 
(PID.TID 0000.0001) grdchk output (p):   2     2     1     1    1    1   0.000000000E+00 -1.000000000E-02
(PID.TID 0000.0001) grdchk output (c):   2  1.1084587096491E+05  1.1084591233182E+05  1.1084582987386E+05
(PID.TID 0000.0001) grdchk output (g):   2     4.1228979571315E+00  4.1297505586106E+00  1.6593257587522E-03
(PID.TID 0000.0001) 
(PID.TID 0000.0001) grdchk output (p):   3     3     1     1    1    1   0.000000000E+00 -1.000000000E-02
(PID.TID 0000.0001) grdchk output (c):   3  1.1084587096491E+05  1.1084590402480E+05  1.1084583725864E+05
(PID.TID 0000.0001) grdchk output (g):   3     3.3383080750355E+00  3.3711458317802E+00  9.7408294934093E-03
(PID.TID 0000.0001) 
(PID.TID 0000.0001) grdchk output (p):   4     4     1     1    1    1   0.000000000E+00 -1.000000000E-02
(PID.TID 0000.0001) grdchk output (c):   4  1.1084587096491E+05  1.1084590020945E+05  1.1084584090859E+05
(PID.TID 0000.0001) grdchk output (g):   4     2.9650428012246E+00  3.0017192769830E+00  1.2218489596826E-02
(PID.TID 0000.0001) 
(PID.TID 0000.0001) grdchk  summary  :  RMS of    4 ratios =  7.8573080910848E-03
(PID.TID 0000.0001) 
(PID.TID 0000.0001) // =======================================================
(PID.TID 0000.0001) // Gradient check results  >>> END <<<
(PID.TID 0000.0001) // =======================================================
(PID.TID 0000.0001) 
(PID.TID 0000.0001)   Seconds in section "ALL                    [THE_MODEL_MAIN]":
(PID.TID 0000.0001)           User time:   160.26402205880731
(PID.TID 0000.0001)         System time:   2.7830140590667725
(PID.TID 0000.0001)     Wall clock time:   163.14880514144897
(PID.TID 0000.0001)          No. starts:           1
(PID.TID 0000.0001)           No. stops:           1
(PID.TID 0000.0001)   Seconds in section "INITIALISE_FIXED       [THE_MODEL_MAIN]":
(PID.TID 0000.0001)           User time:  0.40039198705926538
(PID.TID 0000.0001)         System time:  0.16216400265693665
(PID.TID 0000.0001)     Wall clock time:  0.57557821273803711
(PID.TID 0000.0001)          No. starts:           1
(PID.TID 0000.0001)           No. stops:           1
(PID.TID 0000.0001)   Seconds in section "ADTHE_MAIN_LOOP          [ADJOINT RUN]":
(PID.TID 0000.0001)           User time:   73.136257886886597
(PID.TID 0000.0001)         System time:   2.3243510127067566
(PID.TID 0000.0001)     Wall clock time:   75.528388023376465
(PID.TID 0000.0001)          No. starts:           1
(PID.TID 0000.0001)           No. stops:           1
(PID.TID 0000.0001)   Seconds in section "FORWARD_STEP        [MAIN_DO_LOOP]":
(PID.TID 0000.0001)           User time:   106.66291821002960
(PID.TID 0000.0001)         System time:   9.0623408555984497E-002
(PID.TID 0000.0001)     Wall clock time:   106.77450251579285
(PID.TID 0000.0001)          No. starts:          50
(PID.TID 0000.0001)           No. stops:          50
(PID.TID 0000.0001)   Seconds in section "UPDATE_R_STAR       [FORWARD_STEP]":
(PID.TID 0000.0001)           User time:   2.1820492744445801
(PID.TID 0000.0001)         System time:   5.7184696197509766E-004
(PID.TID 0000.0001)     Wall clock time:   2.1843433380126953
(PID.TID 0000.0001)          No. starts:         100
(PID.TID 0000.0001)           No. stops:         100
(PID.TID 0000.0001)   Seconds in section "LOAD_FIELDS_DRIVER  [FORWARD_STEP]":
(PID.TID 0000.0001)           User time:  0.95271492004394531
(PID.TID 0000.0001)         System time:   2.4622589349746704E-002
(PID.TID 0000.0001)     Wall clock time:  0.97741317749023438
(PID.TID 0000.0001)          No. starts:          50
(PID.TID 0000.0001)           No. stops:          50
(PID.TID 0000.0001)   Seconds in section "EXF_GETFORCING     [LOAD_FLDS_DRIVER]":
(PID.TID 0000.0001)           User time:  0.91781055927276611
(PID.TID 0000.0001)         System time:   1.5936076641082764E-002
(PID.TID 0000.0001)     Wall clock time:  0.93400979042053223
(PID.TID 0000.0001)          No. starts:          55
(PID.TID 0000.0001)           No. stops:          55
(PID.TID 0000.0001)   Seconds in section "EXTERNAL_FLDS_LOAD [LOAD_FLDS_DRIVER]":
(PID.TID 0000.0001)           User time:   4.5394897460937500E-004
(PID.TID 0000.0001)         System time:   1.9669532775878906E-006
(PID.TID 0000.0001)     Wall clock time:   4.9686431884765625E-004
(PID.TID 0000.0001)          No. starts:          55
(PID.TID 0000.0001)           No. stops:          55
(PID.TID 0000.0001)   Seconds in section "CTRL_MAP_FORCING  [FORWARD_STEP]":
(PID.TID 0000.0001)           User time:  0.37501585483551025
(PID.TID 0000.0001)         System time:   1.1424213647842407E-002
(PID.TID 0000.0001)     Wall clock time:  0.38650321960449219
(PID.TID 0000.0001)          No. starts:          50
(PID.TID 0000.0001)           No. stops:          50
(PID.TID 0000.0001)   Seconds in section "DO_ATMOSPHERIC_PHYS [FORWARD_STEP]":
(PID.TID 0000.0001)           User time:   6.9923043251037598E-002
(PID.TID 0000.0001)         System time:   5.1715970039367676E-004
(PID.TID 0000.0001)     Wall clock time:   7.0430040359497070E-002
(PID.TID 0000.0001)          No. starts:          50
(PID.TID 0000.0001)           No. stops:          50
(PID.TID 0000.0001)   Seconds in section "DO_OCEANIC_PHYS     [FORWARD_STEP]":
(PID.TID 0000.0001)           User time:   51.682744979858398
(PID.TID 0000.0001)         System time:   2.8473854064941406E-002
(PID.TID 0000.0001)     Wall clock time:   51.724967718124390
(PID.TID 0000.0001)          No. starts:          50
(PID.TID 0000.0001)           No. stops:          50
(PID.TID 0000.0001)   Seconds in section "SEAICE_MODEL    [DO_OCEANIC_PHYS]":
(PID.TID 0000.0001)           User time:   47.325413823127747
(PID.TID 0000.0001)         System time:   3.2854914665222168E-002
(PID.TID 0000.0001)     Wall clock time:   47.373261213302612
(PID.TID 0000.0001)          No. starts:          55
(PID.TID 0000.0001)           No. stops:          55
(PID.TID 0000.0001)   Seconds in section "SEAICE_DYNSOLVER   [SEAICE_MODEL]":
(PID.TID 0000.0001)           User time:   46.012217640876770
(PID.TID 0000.0001)         System time:   2.4440854787826538E-002
(PID.TID 0000.0001)     Wall clock time:   46.051545143127441
(PID.TID 0000.0001)          No. starts:          55
(PID.TID 0000.0001)           No. stops:          55
(PID.TID 0000.0001)   Seconds in section "DYNAMICS            [FORWARD_STEP]":
(PID.TID 0000.0001)           User time:   16.990833282470703
(PID.TID 0000.0001)         System time:   2.8872489929199219E-004
(PID.TID 0000.0001)     Wall clock time:   16.993151426315308
(PID.TID 0000.0001)          No. starts:          50
(PID.TID 0000.0001)           No. stops:          50
(PID.TID 0000.0001)   Seconds in section "SOLVE_FOR_PRESSURE  [FORWARD_STEP]":
(PID.TID 0000.0001)           User time:   6.5770075321197510
(PID.TID 0000.0001)         System time:   2.2667646408081055E-004
(PID.TID 0000.0001)     Wall clock time:   6.5780079364776611
(PID.TID 0000.0001)          No. starts:          50
(PID.TID 0000.0001)           No. stops:          50
(PID.TID 0000.0001)   Seconds in section "MOM_CORRECTION_STEP [FORWARD_STEP]":
(PID.TID 0000.0001)           User time:  0.58390927314758301
(PID.TID 0000.0001)         System time:   3.7908554077148438E-005
(PID.TID 0000.0001)     Wall clock time:  0.58408379554748535
(PID.TID 0000.0001)          No. starts:          50
(PID.TID 0000.0001)           No. stops:          50
(PID.TID 0000.0001)   Seconds in section "INTEGR_CONTINUITY   [FORWARD_STEP]":
(PID.TID 0000.0001)           User time:   1.0522229671478271
(PID.TID 0000.0001)         System time:   5.1736831665039062E-005
(PID.TID 0000.0001)     Wall clock time:   1.0529525279998779
(PID.TID 0000.0001)          No. starts:          50
(PID.TID 0000.0001)           No. stops:          50
(PID.TID 0000.0001)   Seconds in section "CALC_R_STAR         [FORWARD_STEP]":
(PID.TID 0000.0001)           User time:  0.20784640312194824
(PID.TID 0000.0001)         System time:   8.2254409790039062E-005
(PID.TID 0000.0001)     Wall clock time:  0.20802354812622070
(PID.TID 0000.0001)          No. starts:          50
(PID.TID 0000.0001)           No. stops:          50
(PID.TID 0000.0001)   Seconds in section "BLOCKING_EXCHANGES  [FORWARD_STEP]":
(PID.TID 0000.0001)           User time:   1.0500018596649170
(PID.TID 0000.0001)         System time:   1.6683340072631836E-004
(PID.TID 0000.0001)     Wall clock time:   1.0503716468811035
(PID.TID 0000.0001)          No. starts:         100
(PID.TID 0000.0001)           No. stops:         100
(PID.TID 0000.0001)   Seconds in section "THERMODYNAMICS      [FORWARD_STEP]":
(PID.TID 0000.0001)           User time:   23.251312255859375
(PID.TID 0000.0001)         System time:   3.8593411445617676E-003
(PID.TID 0000.0001)     Wall clock time:   23.257978916168213
(PID.TID 0000.0001)          No. starts:          50
(PID.TID 0000.0001)           No. stops:          50
(PID.TID 0000.0001)   Seconds in section "TRC_CORRECTION_STEP [FORWARD_STEP]":
(PID.TID 0000.0001)           User time:   4.6753883361816406E-004
(PID.TID 0000.0001)         System time:   1.9669532775878906E-006
(PID.TID 0000.0001)     Wall clock time:   4.5132637023925781E-004
(PID.TID 0000.0001)          No. starts:          50
(PID.TID 0000.0001)           No. stops:          50
(PID.TID 0000.0001)   Seconds in section "MONITOR             [FORWARD_STEP]":
(PID.TID 0000.0001)           User time:  0.57690882682800293
(PID.TID 0000.0001)         System time:   3.1113624572753906E-005
(PID.TID 0000.0001)     Wall clock time:  0.57697820663452148
(PID.TID 0000.0001)          No. starts:          50
(PID.TID 0000.0001)           No. stops:          50
(PID.TID 0000.0001)   Seconds in section "COST_TILE           [FORWARD_STEP]":
(PID.TID 0000.0001)           User time:   1.0103688240051270
(PID.TID 0000.0001)         System time:   1.2913346290588379E-004
(PID.TID 0000.0001)     Wall clock time:   1.0108573436737061
(PID.TID 0000.0001)          No. starts:          50
(PID.TID 0000.0001)           No. stops:          50
(PID.TID 0000.0001)   Seconds in section "DO_THE_MODEL_IO     [FORWARD_STEP]":
(PID.TID 0000.0001)           User time:   5.4907083511352539E-002
(PID.TID 0000.0001)         System time:   7.9529583454132080E-003
(PID.TID 0000.0001)     Wall clock time:   6.2862396240234375E-002
(PID.TID 0000.0001)          No. starts:          50
(PID.TID 0000.0001)           No. stops:          50
(PID.TID 0000.0001)   Seconds in section "DO_WRITE_PICKUP     [FORWARD_STEP]":
(PID.TID 0000.0001)           User time:   2.9503107070922852E-002
(PID.TID 0000.0001)         System time:   1.2025892734527588E-002
(PID.TID 0000.0001)     Wall clock time:   4.1501998901367188E-002
(PID.TID 0000.0001)          No. starts:          50
(PID.TID 0000.0001)           No. stops:          50
(PID.TID 0000.0001)   Seconds in section "I/O (WRITE)        [ADJOINT LOOP]":
(PID.TID 0000.0001)           User time:   9.9266052246093750E-002
(PID.TID 0000.0001)         System time:   4.6365499496459961E-002
(PID.TID 0000.0001)     Wall clock time:  0.14562416076660156
(PID.TID 0000.0001)          No. starts:           7
(PID.TID 0000.0001)           No. stops:           7
(PID.TID 0000.0001)   Seconds in section "CTRL_PACK           [THE_MODEL_MAIN]":
(PID.TID 0000.0001)           User time:  0.14336395263671875
(PID.TID 0000.0001)         System time:   3.5962104797363281E-002
(PID.TID 0000.0001)     Wall clock time:  0.17933416366577148
(PID.TID 0000.0001)          No. starts:           1
(PID.TID 0000.0001)           No. stops:           1
(PID.TID 0000.0001)   Seconds in section "CTRL_PACK     [THE_MODEL_MAIN]":
(PID.TID 0000.0001)           User time:  0.14502716064453125
(PID.TID 0000.0001)         System time:   1.6028881072998047E-002
(PID.TID 0000.0001)     Wall clock time:  0.16105985641479492
(PID.TID 0000.0001)          No. starts:           1
(PID.TID 0000.0001)           No. stops:           1
(PID.TID 0000.0001)   Seconds in section "GRDCHK_MAIN         [THE_MODEL_MAIN]":
(PID.TID 0000.0001)           User time:   86.438880920410156
(PID.TID 0000.0001)         System time:  0.24450111389160156
(PID.TID 0000.0001)     Wall clock time:   86.704350948333740
(PID.TID 0000.0001)          No. starts:           1
(PID.TID 0000.0001)           No. stops:           1
(PID.TID 0000.0001)   Seconds in section "INITIALISE_VARIA    [THE_MAIN_LOOP]":
(PID.TID 0000.0001)           User time:   2.3767166137695312
(PID.TID 0000.0001)         System time:  0.15580463409423828
(PID.TID 0000.0001)     Wall clock time:   2.5335960388183594
(PID.TID 0000.0001)          No. starts:           8
(PID.TID 0000.0001)           No. stops:           8
(PID.TID 0000.0001)   Seconds in section "MAIN LOOP           [THE_MAIN_LOOP]":
(PID.TID 0000.0001)           User time:   83.918800354003906
(PID.TID 0000.0001)         System time:   4.0817260742187500E-002
(PID.TID 0000.0001)     Wall clock time:   83.979542016983032
(PID.TID 0000.0001)          No. starts:           8
(PID.TID 0000.0001)           No. stops:           8
(PID.TID 0000.0001)   Seconds in section "MAIN_DO_LOOP        [THE_MAIN_LOOP]":
(PID.TID 0000.0001)           User time:   83.105461120605469
(PID.TID 0000.0001)         System time:   2.4830341339111328E-002
(PID.TID 0000.0001)     Wall clock time:   83.150068521499634
(PID.TID 0000.0001)          No. starts:          40
(PID.TID 0000.0001)           No. stops:          40
(PID.TID 0000.0001)   Seconds in section "COST_FINAL         [ADJOINT SPIN-DOWN]":
(PID.TID 0000.0001)           User time:   5.0842285156250000E-002
(PID.TID 0000.0001)         System time:   1.5822172164916992E-002
(PID.TID 0000.0001)     Wall clock time:   6.6689729690551758E-002
(PID.TID 0000.0001)          No. starts:           8
(PID.TID 0000.0001)           No. stops:           8
(PID.TID 0000.0001) // ======================================================
(PID.TID 0000.0001) // Tile <-> Tile communication statistics
(PID.TID 0000.0001) // ======================================================
(PID.TID 0000.0001) // o Tile number: 000001
(PID.TID 0000.0001) //         No. X exchanges =              0
(PID.TID 0000.0001) //            Max. X spins =              0
(PID.TID 0000.0001) //            Min. X spins =     1000000000
(PID.TID 0000.0001) //          Total. X spins =              0
(PID.TID 0000.0001) //            Avg. X spins =       0.00E+00
(PID.TID 0000.0001) //         No. Y exchanges =              0
(PID.TID 0000.0001) //            Max. Y spins =              0
(PID.TID 0000.0001) //            Min. Y spins =     1000000000
(PID.TID 0000.0001) //          Total. Y spins =              0
(PID.TID 0000.0001) //            Avg. Y spins =       0.00E+00
(PID.TID 0000.0001) // o Tile number: 000002
(PID.TID 0000.0001) //         No. X exchanges =              0
(PID.TID 0000.0001) //            Max. X spins =              0
(PID.TID 0000.0001) //            Min. X spins =     1000000000
(PID.TID 0000.0001) //          Total. X spins =              0
(PID.TID 0000.0001) //            Avg. X spins =       0.00E+00
(PID.TID 0000.0001) //         No. Y exchanges =              0
(PID.TID 0000.0001) //            Max. Y spins =              0
(PID.TID 0000.0001) //            Min. Y spins =     1000000000
(PID.TID 0000.0001) //          Total. Y spins =              0
(PID.TID 0000.0001) //            Avg. Y spins =       0.00E+00
(PID.TID 0000.0001) // o Tile number: 000003
(PID.TID 0000.0001) //         No. X exchanges =              0
(PID.TID 0000.0001) //            Max. X spins =              0
(PID.TID 0000.0001) //            Min. X spins =     1000000000
(PID.TID 0000.0001) //          Total. X spins =              0
(PID.TID 0000.0001) //            Avg. X spins =       0.00E+00
(PID.TID 0000.0001) //         No. Y exchanges =              0
(PID.TID 0000.0001) //            Max. Y spins =              0
(PID.TID 0000.0001) //            Min. Y spins =     1000000000
(PID.TID 0000.0001) //          Total. Y spins =              0
(PID.TID 0000.0001) //            Avg. Y spins =       0.00E+00
(PID.TID 0000.0001) // o Tile number: 000004
(PID.TID 0000.0001) //         No. X exchanges =              0
(PID.TID 0000.0001) //            Max. X spins =              0
(PID.TID 0000.0001) //            Min. X spins =     1000000000
(PID.TID 0000.0001) //          Total. X spins =              0
(PID.TID 0000.0001) //            Avg. X spins =       0.00E+00
(PID.TID 0000.0001) //         No. Y exchanges =              0
(PID.TID 0000.0001) //            Max. Y spins =              0
(PID.TID 0000.0001) //            Min. Y spins =     1000000000
(PID.TID 0000.0001) //          Total. Y spins =              0
(PID.TID 0000.0001) //            Avg. Y spins =       0.00E+00
(PID.TID 0000.0001) // o Tile number: 000005
(PID.TID 0000.0001) //         No. X exchanges =              0
(PID.TID 0000.0001) //            Max. X spins =              0
(PID.TID 0000.0001) //            Min. X spins =     1000000000
(PID.TID 0000.0001) //          Total. X spins =              0
(PID.TID 0000.0001) //            Avg. X spins =       0.00E+00
(PID.TID 0000.0001) //         No. Y exchanges =              0
(PID.TID 0000.0001) //            Max. Y spins =              0
(PID.TID 0000.0001) //            Min. Y spins =     1000000000
(PID.TID 0000.0001) //          Total. Y spins =              0
(PID.TID 0000.0001) //            Avg. Y spins =       0.00E+00
(PID.TID 0000.0001) // o Tile number: 000006
(PID.TID 0000.0001) //         No. X exchanges =              0
(PID.TID 0000.0001) //            Max. X spins =              0
(PID.TID 0000.0001) //            Min. X spins =     1000000000
(PID.TID 0000.0001) //          Total. X spins =              0
(PID.TID 0000.0001) //            Avg. X spins =       0.00E+00
(PID.TID 0000.0001) //         No. Y exchanges =              0
(PID.TID 0000.0001) //            Max. Y spins =              0
(PID.TID 0000.0001) //            Min. Y spins =     1000000000
(PID.TID 0000.0001) //          Total. Y spins =              0
(PID.TID 0000.0001) //            Avg. Y spins =       0.00E+00
(PID.TID 0000.0001) // o Tile number: 000007
(PID.TID 0000.0001) //         No. X exchanges =              0
(PID.TID 0000.0001) //            Max. X spins =              0
(PID.TID 0000.0001) //            Min. X spins =     1000000000
(PID.TID 0000.0001) //          Total. X spins =              0
(PID.TID 0000.0001) //            Avg. X spins =       0.00E+00
(PID.TID 0000.0001) //         No. Y exchanges =              0
(PID.TID 0000.0001) //            Max. Y spins =              0
(PID.TID 0000.0001) //            Min. Y spins =     1000000000
(PID.TID 0000.0001) //          Total. Y spins =              0
(PID.TID 0000.0001) //            Avg. Y spins =       0.00E+00
(PID.TID 0000.0001) // o Tile number: 000008
(PID.TID 0000.0001) //         No. X exchanges =              0
(PID.TID 0000.0001) //            Max. X spins =              0
(PID.TID 0000.0001) //            Min. X spins =     1000000000
(PID.TID 0000.0001) //          Total. X spins =              0
(PID.TID 0000.0001) //            Avg. X spins =       0.00E+00
(PID.TID 0000.0001) //         No. Y exchanges =              0
(PID.TID 0000.0001) //            Max. Y spins =              0
(PID.TID 0000.0001) //            Min. Y spins =     1000000000
(PID.TID 0000.0001) //          Total. Y spins =              0
(PID.TID 0000.0001) //            Avg. Y spins =       0.00E+00
(PID.TID 0000.0001) // o Tile number: 000009
(PID.TID 0000.0001) //         No. X exchanges =              0
(PID.TID 0000.0001) //            Max. X spins =              0
(PID.TID 0000.0001) //            Min. X spins =     1000000000
(PID.TID 0000.0001) //          Total. X spins =              0
(PID.TID 0000.0001) //            Avg. X spins =       0.00E+00
(PID.TID 0000.0001) //         No. Y exchanges =              0
(PID.TID 0000.0001) //            Max. Y spins =              0
(PID.TID 0000.0001) //            Min. Y spins =     1000000000
(PID.TID 0000.0001) //          Total. Y spins =              0
(PID.TID 0000.0001) //            Avg. Y spins =       0.00E+00
(PID.TID 0000.0001) // o Tile number: 000010
(PID.TID 0000.0001) //         No. X exchanges =              0
(PID.TID 0000.0001) //            Max. X spins =              0
(PID.TID 0000.0001) //            Min. X spins =     1000000000
(PID.TID 0000.0001) //          Total. X spins =              0
(PID.TID 0000.0001) //            Avg. X spins =       0.00E+00
(PID.TID 0000.0001) //         No. Y exchanges =              0
(PID.TID 0000.0001) //            Max. Y spins =              0
(PID.TID 0000.0001) //            Min. Y spins =     1000000000
(PID.TID 0000.0001) //          Total. Y spins =              0
(PID.TID 0000.0001) //            Avg. Y spins =       0.00E+00
(PID.TID 0000.0001) // o Tile number: 000011
(PID.TID 0000.0001) //         No. X exchanges =              0
(PID.TID 0000.0001) //            Max. X spins =              0
(PID.TID 0000.0001) //            Min. X spins =     1000000000
(PID.TID 0000.0001) //          Total. X spins =              0
(PID.TID 0000.0001) //            Avg. X spins =       0.00E+00
(PID.TID 0000.0001) //         No. Y exchanges =              0
(PID.TID 0000.0001) //            Max. Y spins =              0
(PID.TID 0000.0001) //            Min. Y spins =     1000000000
(PID.TID 0000.0001) //          Total. Y spins =              0
(PID.TID 0000.0001) //            Avg. Y spins =       0.00E+00
(PID.TID 0000.0001) // o Tile number: 000012
(PID.TID 0000.0001) //         No. X exchanges =              0
(PID.TID 0000.0001) //            Max. X spins =              0
(PID.TID 0000.0001) //            Min. X spins =     1000000000
(PID.TID 0000.0001) //          Total. X spins =              0
(PID.TID 0000.0001) //            Avg. X spins =       0.00E+00
(PID.TID 0000.0001) //         No. Y exchanges =              0
(PID.TID 0000.0001) //            Max. Y spins =              0
(PID.TID 0000.0001) //            Min. Y spins =     1000000000
(PID.TID 0000.0001) //          Total. Y spins =              0
(PID.TID 0000.0001) //            Avg. Y spins =       0.00E+00
(PID.TID 0000.0001) // o Thread number: 000001
(PID.TID 0000.0001) //            No. barriers =         175338
(PID.TID 0000.0001) //      Max. barrier spins =              1
(PID.TID 0000.0001) //      Min. barrier spins =              1
(PID.TID 0000.0001) //     Total barrier spins =         175338
(PID.TID 0000.0001) //      Avg. barrier spins =       1.00E+00
PROGRAM MAIN: Execution ended Normally
