(PID.TID 0000.0001) 
(PID.TID 0000.0001) // ======================================================
(PID.TID 0000.0001) //                      MITgcm UV
(PID.TID 0000.0001) //                      =========
(PID.TID 0000.0001) // ======================================================
(PID.TID 0000.0001) // execution environment starting up...
(PID.TID 0000.0001) 
(PID.TID 0000.0001) // MITgcmUV version:  checkpoint62j
(PID.TID 0000.0001) // Build user:        heimbach
(PID.TID 0000.0001) // Build host:        faulks.csail.mit.edu
(PID.TID 0000.0001) // Build date:        Wed Sep 15 17:12:57 EDT 2010
(PID.TID 0000.0001) 
(PID.TID 0000.0001) // =======================================================
(PID.TID 0000.0001) // Execution Environment parameter file "eedata"
(PID.TID 0000.0001) // =======================================================
(PID.TID 0000.0001) ># Example "eedata" file
(PID.TID 0000.0001) ># Lines beginning "#" are comments
(PID.TID 0000.0001) ># nTx - No. threads per process in X
(PID.TID 0000.0001) ># nTy - No. threads per process in Y
(PID.TID 0000.0001) > &EEPARMS
(PID.TID 0000.0001) > useCubedSphereExchange=.TRUE.,
(PID.TID 0000.0001) > nTx=1,
(PID.TID 0000.0001) > nTy=1,
(PID.TID 0000.0001) > &
(PID.TID 0000.0001) ># Note: Some systems use & as the
(PID.TID 0000.0001) ># namelist terminator. Other systems
(PID.TID 0000.0001) ># use a / character (as shown here).
(PID.TID 0000.0001) 
(PID.TID 0000.0001) // =======================================================
(PID.TID 0000.0001) // Computational Grid Specification ( see files "SIZE.h" )
(PID.TID 0000.0001) //                                  ( and "eedata"       )
(PID.TID 0000.0001) // =======================================================
(PID.TID 0000.0001)      nPx =    1 ; /* No. processes in X */
(PID.TID 0000.0001)      nPy =    1 ; /* No. processes in Y */
(PID.TID 0000.0001)      nSx =    6 ; /* No. tiles in X per process */
(PID.TID 0000.0001)      nSy =    1 ; /* No. tiles in Y per process */
(PID.TID 0000.0001)      sNx =   32 ; /* Tile size in X */
(PID.TID 0000.0001)      sNy =   32 ; /* Tile size in Y */
(PID.TID 0000.0001)      OLx =    4 ; /* Tile overlap distance in X */
(PID.TID 0000.0001)      OLy =    4 ; /* Tile overlap distance in Y */
(PID.TID 0000.0001)      nTx =    1 ; /* No. threads in X per process */
(PID.TID 0000.0001)      nTy =    1 ; /* No. threads in Y per process */
(PID.TID 0000.0001)       Nr =   15 ; /* No. levels in the vertical   */
(PID.TID 0000.0001)       Nx =  192 ; /* Total domain size in X ( = nPx*nSx*sNx ) */
(PID.TID 0000.0001)       Ny =   32 ; /* Total domain size in Y ( = nPy*nSy*sNy ) */
(PID.TID 0000.0001)   nTiles =    6 ; /* Total no. tiles per process ( = nSx*nSy ) */
(PID.TID 0000.0001)   nProcs =    1 ; /* Total no. processes ( = nPx*nPy ) */
(PID.TID 0000.0001) nThreads =    1 ; /* Total no. threads per process ( = nTx*nTy ) */
(PID.TID 0000.0001) usingMPI =    F ; /* Flag used to control whether MPI is in use */
(PID.TID 0000.0001)                   /*  note: To execute a program with MPI calls */
(PID.TID 0000.0001)                   /*  it must be launched appropriately e.g     */
(PID.TID 0000.0001)                   /*  "mpirun -np 64 ......"                    */
(PID.TID 0000.0001) useCoupler=    F ;/* Flag used to control communications with   */
(PID.TID 0000.0001)                   /*  other model components, through a coupler */
(PID.TID 0000.0001) printMapIncludesZeros=    F ; /* print zeros in Std.Output maps */
(PID.TID 0000.0001) maxLengthPrt1D=   65 /* maxLength of 1D array printed to StdOut */
(PID.TID 0000.0001) 
(PID.TID 0000.0001) // ======================================================
(PID.TID 0000.0001) // Mapping of tiles to threads
(PID.TID 0000.0001) // ======================================================
(PID.TID 0000.0001) // -o- Thread   1, tiles (   1:   6,   1:   1)
(PID.TID 0000.0001) 
(PID.TID 0000.0001) W2_READPARMS: file data.exch2 not found
(PID.TID 0000.0001) => use W2_EXCH2 default: regular 6-facets Cube
(PID.TID 0000.0001) W2_useE2ioLayOut=    T ;/* T: use Exch2 glob IO map; F: use model default */
(PID.TID 0000.0001) W2_mapIO        =  -1 ; /* select option for Exch2 global-IO map */
(PID.TID 0000.0001) W2_printMsg     =  -1 ; /* select option for printing information */
(PID.TID 0000.0001) ===== Start setting W2 TOPOLOGY:
(PID.TID 0000.0001)  write to log-file: w2_tile_topology.0000.log
(PID.TID 0000.0001) =====       setting W2 TOPOLOGY: Done
(PID.TID 0000.0001) 
(PID.TID 0000.0001) DEBUG_MSG: ENTERED S/R THE_MODEL_MAIN
(PID.TID 0000.0001) DEBUG_MSG: CALLING S/R INITIALISE_FIXED
(PID.TID 0000.0001) // =======================================================
(PID.TID 0000.0001) // Model parameter file "data"
(PID.TID 0000.0001) // =======================================================
(PID.TID 0000.0001) ># ====================
(PID.TID 0000.0001) ># | Model parameters |
(PID.TID 0000.0001) ># ====================
(PID.TID 0000.0001) >#
(PID.TID 0000.0001) ># Continuous equation parameters
(PID.TID 0000.0001) > &PARM01
(PID.TID 0000.0001) > tRef=15*20.,
(PID.TID 0000.0001) > sRef=15*35.,
(PID.TID 0000.0001) > viscAh =3.E5,
(PID.TID 0000.0001) >#- biharmonic Viscosity: 3.e15 is close to the stability limit with deltaTmom=20mn
(PID.TID 0000.0001) >#viscA4 =3.E15,
(PID.TID 0000.0001) > viscAr =1.E-3,
(PID.TID 0000.0001) > diffKhT=0.,
(PID.TID 0000.0001) > diffK4T=0.,
(PID.TID 0000.0001) > diffKrT=3.E-5,
(PID.TID 0000.0001) > diffKhS=0.,
(PID.TID 0000.0001) > diffK4S=0.,
(PID.TID 0000.0001) > diffKrS=3.E-5,
(PID.TID 0000.0001) > ivdc_kappa=10.,
(PID.TID 0000.0001) > implicitDiffusion=.TRUE.,
(PID.TID 0000.0001) > rotationPeriod=86400.,
(PID.TID 0000.0001) > gravity=9.81,
(PID.TID 0000.0001) > rhonil=1035.,
(PID.TID 0000.0001) > rhoConstFresh=1000.,
(PID.TID 0000.0001) > eosType='JMD95Z',
(PID.TID 0000.0001) > staggerTimeStep=.TRUE.,
(PID.TID 0000.0001) > vectorInvariantMomentum=.TRUE.,
(PID.TID 0000.0001) > implicitFreeSurface=.TRUE.,
(PID.TID 0000.0001) > tempAdvScheme=30,
(PID.TID 0000.0001) > saltAdvScheme=30,
(PID.TID 0000.0001) > exactConserv=.TRUE.,
(PID.TID 0000.0001) > select_rStar=2,
(PID.TID 0000.0001) > nonlinFreeSurf=2,
(PID.TID 0000.0001) > hFacInf=0.2,
(PID.TID 0000.0001) > hFacSup=2.0,
(PID.TID 0000.0001) > useRealFreshWaterFlux=.TRUE.,
(PID.TID 0000.0001) > allowFreezing=.TRUE.,
(PID.TID 0000.0001) > hFacMin=.1,
(PID.TID 0000.0001) > hFacMinDr=20.,
(PID.TID 0000.0001) > readBinaryPrec=64,
(PID.TID 0000.0001) > &
(PID.TID 0000.0001) >
(PID.TID 0000.0001) ># Elliptic solver parameters
(PID.TID 0000.0001) > &PARM02
(PID.TID 0000.0001) > cg2dMaxIters=200,
(PID.TID 0000.0001) >#cg2dTargetResidual=1.E-9,
(PID.TID 0000.0001) > cg2dTargetResWunit=1.E-14,
(PID.TID 0000.0001) > &
(PID.TID 0000.0001) >
(PID.TID 0000.0001) ># Time stepping parameters
(PID.TID 0000.0001) > &PARM03
(PID.TID 0000.0001) > nIter0=72000,
(PID.TID 0000.0001) ># nIter0=0,
(PID.TID 0000.0001) ># nTimeSteps=365,
(PID.TID 0000.0001) > nTimeSteps=20,
(PID.TID 0000.0001) > deltaTmom   =1200.,
(PID.TID 0000.0001) > deltaTtracer=86400.,
(PID.TID 0000.0001) > deltaTfreesurf=86400.,
(PID.TID 0000.0001) > deltaTClock =86400.,
(PID.TID 0000.0001) > abEps = 0.1,
(PID.TID 0000.0001) >#forcing_In_AB=.FALSE.,
(PID.TID 0000.0001) > tracForcingOutAB=1,
(PID.TID 0000.0001) > pChkptFreq  =1728000.,
(PID.TID 0000.0001) ># chkptFreq   =864000.,
(PID.TID 0000.0001) ># taveFreq    =1244160000.,
(PID.TID 0000.0001) ># dumpFreq    =6307200.,
(PID.TID 0000.0001) ># adjDumpFreq  =6307200.,
(PID.TID 0000.0001) > dumpFreq    =86400.,
(PID.TID 0000.0001) ># adjDumpFreq  =86400.,
(PID.TID 0000.0001) ># monitorFreq =31104000.,
(PID.TID 0000.0001) > periodicExternalForcing=.TRUE.,
(PID.TID 0000.0001) > externForcingPeriod=2592000.,
(PID.TID 0000.0001) > externForcingCycle=31104000.,
(PID.TID 0000.0001) ># 2 months restoring timescale for temperature
(PID.TID 0000.0001) > tauThetaClimRelax = 5184000.,
(PID.TID 0000.0001) ># 2yrs restoring timescale for salinity
(PID.TID 0000.0001) > tauSaltClimRelax = 62208000.,
(PID.TID 0000.0001) > monitorFreq =1.,
(PID.TID 0000.0001) > adjMonitorFreq =1.,
(PID.TID 0000.0001) > adjDumpFreq    =86400.,
(PID.TID 0000.0001) > pickupStrictlyMatch=.FALSE.,
(PID.TID 0000.0001) > &
(PID.TID 0000.0001) >
(PID.TID 0000.0001) ># Gridding parameters
(PID.TID 0000.0001) > &PARM04
(PID.TID 0000.0001) > usingCurvilinearGrid=.TRUE.,
(PID.TID 0000.0001) > horizGridFile='grid_cs32',
(PID.TID 0000.0001) > delR= 50., 70., 100., 140., 190.,
(PID.TID 0000.0001) >       240., 290., 340., 390., 440.,
(PID.TID 0000.0001) >       490., 540., 590., 640., 690.,
(PID.TID 0000.0001) > &
(PID.TID 0000.0001) >
(PID.TID 0000.0001) ># Input datasets
(PID.TID 0000.0001) > &PARM05
(PID.TID 0000.0001) > bathyFile      ='bathy_Hmin50.bin',
(PID.TID 0000.0001) > hydrogThetaFile='lev_T_cs_15k.bin',
(PID.TID 0000.0001) > hydrogSaltFile ='lev_S_cs_15k.bin',
(PID.TID 0000.0001) > zonalWindFile  ='trenberth_taux.bin',
(PID.TID 0000.0001) > meridWindFile  ='trenberth_tauy.bin',
(PID.TID 0000.0001) > thetaClimFile  ='lev_surfT_cs_12m.bin',
(PID.TID 0000.0001) > saltClimFile   ='lev_surfS_cs_12m.bin',
(PID.TID 0000.0001) > surfQFile      ='shiQnet_cs32.bin',
(PID.TID 0000.0001) > EmPmRFile      ='shiEmPR_cs32.bin',
(PID.TID 0000.0001) > &
(PID.TID 0000.0001) 
(PID.TID 0000.0001) S/R INI_PARMS ; starts to read PARM01
(PID.TID 0000.0001) S/R INI_PARMS ; read PARM01 : OK
(PID.TID 0000.0001) S/R INI_PARMS ; starts to read PARM02
(PID.TID 0000.0001) S/R INI_PARMS ; read PARM02 : OK
(PID.TID 0000.0001) S/R INI_PARMS ; starts to read PARM03
(PID.TID 0000.0001) S/R INI_PARMS ; read PARM03 : OK
(PID.TID 0000.0001) S/R INI_PARMS ; starts to read PARM04
(PID.TID 0000.0001) S/R INI_PARMS ; read PARM04 : OK
(PID.TID 0000.0001) S/R INI_PARMS ; starts to read PARM05
(PID.TID 0000.0001) S/R INI_PARMS ; read PARM05 : OK
(PID.TID 0000.0001)  PACKAGES_BOOT: opening data.pkg
(PID.TID 0000.0001)  OPEN_COPY_DATA_FILE: opening file data.pkg
(PID.TID 0000.0001) // =======================================================
(PID.TID 0000.0001) // Parameter file "data.pkg"
(PID.TID 0000.0001) // =======================================================
(PID.TID 0000.0001) ># Packages
(PID.TID 0000.0001) > &PACKAGES
(PID.TID 0000.0001) > useGMRedi=.TRUE.,
(PID.TID 0000.0001) >#useDiagnostics=.TRUE.,
(PID.TID 0000.0001) >#useMNC=.TRUE.,
(PID.TID 0000.0001) > useGrdchk=.TRUE.,
(PID.TID 0000.0001) > &
(PID.TID 0000.0001) 
(PID.TID 0000.0001)  PACKAGES_BOOT: finished reading data.pkg
(PID.TID 0000.0001)  GM_READPARMS: opening data.gmredi
(PID.TID 0000.0001)  OPEN_COPY_DATA_FILE: opening file data.gmredi
(PID.TID 0000.0001) // =======================================================
(PID.TID 0000.0001) // Parameter file "data.gmredi"
(PID.TID 0000.0001) // =======================================================
(PID.TID 0000.0001) ># GM+Redi package parameters:
(PID.TID 0000.0001) >#     GM_Small_Number  :: epsilon used in computing the slope
(PID.TID 0000.0001) >#     GM_slopeSqCutoff :: slope^2 cut-off value
(PID.TID 0000.0001) >
(PID.TID 0000.0001) >#-from MOM :
(PID.TID 0000.0001) ># GM_background_K: 	G & Mc.W  diffusion coefficient
(PID.TID 0000.0001) ># GM_maxSlope    :	max slope of isopycnals
(PID.TID 0000.0001) ># GM_Scrit       :	transition for scaling diffusion coefficient
(PID.TID 0000.0001) ># GM_Sd          :	half width scaling for diffusion coefficient
(PID.TID 0000.0001) ># GM_taper_scheme:	slope clipping or one of the tapering schemes
(PID.TID 0000.0001) ># GM_Kmin_horiz  :	horizontal diffusion minimum value
(PID.TID 0000.0001) >
(PID.TID 0000.0001) >#-Option parameters (needs to "define" options in GMREDI_OPTIONS.h")
(PID.TID 0000.0001) ># GM_isopycK     :	isopycnal diffusion coefficient (default=GM_background_K)
(PID.TID 0000.0001) ># GM_AdvForm     :	turn on GM Advective form       (default=Skew flux form)
(PID.TID 0000.0001) >
(PID.TID 0000.0001) > &GM_PARM01
(PID.TID 0000.0001) >  GM_Small_Number  = 1.D-20,
(PID.TID 0000.0001) >  GM_slopeSqCutoff = 1.D+08,
(PID.TID 0000.0001) >  GM_AdvForm         = .FALSE.,
(PID.TID 0000.0001) >  GM_background_K    = 1.D+3,
(PID.TID 0000.0001) >  GM_taper_scheme    = 'dm95',
(PID.TID 0000.0001) >  GM_maxSlope        = 1.D-2,
(PID.TID 0000.0001) >  GM_Kmin_horiz      = 50.,
(PID.TID 0000.0001) >  GM_Scrit           = 4.D-3,
(PID.TID 0000.0001) >  GM_Sd              = 1.D-3,
(PID.TID 0000.0001) >#  GM_Visbeck_alpha   = 1.5D-2,
(PID.TID 0000.0001) >  GM_Visbeck_alpha   = 0.,
(PID.TID 0000.0001) >  GM_Visbeck_length  = 2.D+5,
(PID.TID 0000.0001) >  GM_Visbeck_depth   = 1.D+3,
(PID.TID 0000.0001) >  GM_Visbeck_maxval_K= 2.5D+3,
(PID.TID 0000.0001) > &
(PID.TID 0000.0001) >
(PID.TID 0000.0001) >
(PID.TID 0000.0001) 
(PID.TID 0000.0001)  GM_READPARMS: finished reading data.gmredi
(PID.TID 0000.0001) OPTIM_READPARMS: opening data.optim
(PID.TID 0000.0001)  OPEN_COPY_DATA_FILE: opening file data.optim
(PID.TID 0000.0001) // =======================================================
(PID.TID 0000.0001) // Parameter file "data.optim"
(PID.TID 0000.0001) // =======================================================
(PID.TID 0000.0001) > &OPTIM
(PID.TID 0000.0001) > optimcycle=0,
(PID.TID 0000.0001) > /
(PID.TID 0000.0001) 
(PID.TID 0000.0001) OPTIM_READPARMS: finished reading data.optim
(PID.TID 0000.0001) CTRL_READPARMS: opening data.ctrl
(PID.TID 0000.0001)  OPEN_COPY_DATA_FILE: opening file data.ctrl
(PID.TID 0000.0001) // =======================================================
(PID.TID 0000.0001) // Parameter file "data.ctrl"
(PID.TID 0000.0001) // =======================================================
(PID.TID 0000.0001) >#
(PID.TID 0000.0001) >#
(PID.TID 0000.0001) ># *********************
(PID.TID 0000.0001) ># ECCO controlvariables
(PID.TID 0000.0001) ># *********************
(PID.TID 0000.0001) > &CTRL_NML
(PID.TID 0000.0001) > xx_theta_file      ='xx_theta',
(PID.TID 0000.0001) > xx_salt_file       ='xx_salt',
(PID.TID 0000.0001) >#
(PID.TID 0000.0001) > xx_hfluxstartdate1 = 19790101,
(PID.TID 0000.0001) > xx_hfluxstartdate2 = 000000,
(PID.TID 0000.0001) > xx_hfluxperiod     = 864000.0,
(PID.TID 0000.0001) > xx_hflux_file      = 'xx_hfl',
(PID.TID 0000.0001) >#
(PID.TID 0000.0001) > xx_sfluxstartdate1 = 19790101,
(PID.TID 0000.0001) > xx_sfluxstartdate2 = 000000,
(PID.TID 0000.0001) > xx_sfluxperiod     = 864000.0,
(PID.TID 0000.0001) > xx_sflux_file      = 'xx_sfl',
(PID.TID 0000.0001) >#
(PID.TID 0000.0001) > xx_tauustartdate1 = 19790101,
(PID.TID 0000.0001) > xx_tauustartdate2 = 000000,
(PID.TID 0000.0001) > xx_tauuperiod     = 864000.0,
(PID.TID 0000.0001) > xx_tauu_file      = 'xx_tauu',
(PID.TID 0000.0001) >#
(PID.TID 0000.0001) > xx_tauvstartdate1 = 19790101,
(PID.TID 0000.0001) > xx_tauvstartdate2 = 000000,
(PID.TID 0000.0001) > xx_tauvperiod     = 864000.0,
(PID.TID 0000.0001) > xx_tauv_file      = 'xx_tauv',
(PID.TID 0000.0001) >#
(PID.TID 0000.0001) > xx_atempstartdate1 = 19790101,
(PID.TID 0000.0001) > xx_atempstartdate2 = 000000,
(PID.TID 0000.0001) > xx_atempperiod     = 864000.0,
(PID.TID 0000.0001) > xx_atemp_file      = 'xx_atemp',
(PID.TID 0000.0001) >#
(PID.TID 0000.0001) > xx_aqhstartdate1 = 19790101,
(PID.TID 0000.0001) > xx_aqhstartdate2 = 000000,
(PID.TID 0000.0001) > xx_aqhperiod     = 864000.0,
(PID.TID 0000.0001) > xx_aqh_file      = 'xx_aqh',
(PID.TID 0000.0001) >#
(PID.TID 0000.0001) > xx_precipstartdate1 = 19790101,
(PID.TID 0000.0001) > xx_precipstartdate2 = 000000,
(PID.TID 0000.0001) > xx_precipperiod     = 864000.0,
(PID.TID 0000.0001) > xx_precip_file      = 'xx_precip',
(PID.TID 0000.0001) >#
(PID.TID 0000.0001) > xx_swdownstartdate1 = 19790101,
(PID.TID 0000.0001) > xx_swdownstartdate2 = 000000,
(PID.TID 0000.0001) > xx_swdownperiod     = 864000.0,
(PID.TID 0000.0001) > xx_swdown_file      = 'xx_swdown',
(PID.TID 0000.0001) >#
(PID.TID 0000.0001) > xx_uwindstartdate1 = 19790101,
(PID.TID 0000.0001) > xx_uwindstartdate2 = 000000,
(PID.TID 0000.0001) > xx_uwindperiod     = 864000.0,
(PID.TID 0000.0001) > xx_uwind_file      = 'xx_uwind',
(PID.TID 0000.0001) >#
(PID.TID 0000.0001) > xx_vwindstartdate1 = 19790101,
(PID.TID 0000.0001) > xx_vwindstartdate2 = 000000,
(PID.TID 0000.0001) > xx_vwindperiod     = 864000.0,
(PID.TID 0000.0001) > xx_vwind_file      = 'xx_vwind',
(PID.TID 0000.0001) >#
(PID.TID 0000.0001) > xx_sststartdate1 = 19790101,
(PID.TID 0000.0001) > xx_sststartdate2 = 000000,
(PID.TID 0000.0001) > xx_sstperiod     = 864000.0,
(PID.TID 0000.0001) > xx_sst_file      = 'xx_sst',
(PID.TID 0000.0001) >#
(PID.TID 0000.0001) > xx_sssstartdate1 = 19790101,
(PID.TID 0000.0001) > xx_sssstartdate2 = 000000,
(PID.TID 0000.0001) > xx_sssperiod     = 864000.0,
(PID.TID 0000.0001) > xx_sss_file      = 'xx_sss',
(PID.TID 0000.0001) > &
(PID.TID 0000.0001) >#
(PID.TID 0000.0001) ># *********************
(PID.TID 0000.0001) ># names for ctrl_pack/unpack
(PID.TID 0000.0001) ># *********************
(PID.TID 0000.0001) > &CTRL_PACKNAMES
(PID.TID 0000.0001) > &
(PID.TID 0000.0001) 
(PID.TID 0000.0001) CTRL_READPARMS: finished reading data.ctrl
(PID.TID 0000.0001) COST_READPARMS: opening data.cost
(PID.TID 0000.0001)  OPEN_COPY_DATA_FILE: opening file data.cost
(PID.TID 0000.0001) // =======================================================
(PID.TID 0000.0001) // Parameter file "data.cost"
(PID.TID 0000.0001) // =======================================================
(PID.TID 0000.0001) >#
(PID.TID 0000.0001) >#
(PID.TID 0000.0001) ># ******************
(PID.TID 0000.0001) ># cost function
(PID.TID 0000.0001) ># ******************
(PID.TID 0000.0001) > &COST_NML
(PID.TID 0000.0001) >#revert to default 1 month
(PID.TID 0000.0001) ># lastinterval=7776000.,
(PID.TID 0000.0001) > mult_test=1.,
(PID.TID 0000.0001) > &
(PID.TID 0000.0001) 
(PID.TID 0000.0001) COST_READPARMS: finished reading data.cost
(PID.TID 0000.0001) GRDCHK_READPARMS: opening data.grdchk
(PID.TID 0000.0001)  OPEN_COPY_DATA_FILE: opening file data.grdchk
(PID.TID 0000.0001) // =======================================================
(PID.TID 0000.0001) // Parameter file "data.grdchk"
(PID.TID 0000.0001) // =======================================================
(PID.TID 0000.0001) ># *******************
(PID.TID 0000.0001) ># ECCO gradient check
(PID.TID 0000.0001) ># *******************
(PID.TID 0000.0001) > &GRDCHK_NML
(PID.TID 0000.0001) > grdchk_eps       = 1.d-2,
(PID.TID 0000.0001) >#  iglopos         = 6,
(PID.TID 0000.0001) >#  jglopos         = 17,
(PID.TID 0000.0001) >#  kglopos         = 1,
(PID.TID 0000.0001) > nbeg             = 1,
(PID.TID 0000.0001) > nstep            = 1,
(PID.TID 0000.0001) > nend             = 4,
(PID.TID 0000.0001) > grdchkvarindex   = 1,
(PID.TID 0000.0001) > &
(PID.TID 0000.0001) 
(PID.TID 0000.0001) GRDCHK_READPARMS: finished reading data.grdchk
(PID.TID 0000.0001) 
(PID.TID 0000.0001) // =======================================================
(PID.TID 0000.0001) // Gradient check configuration  >>> START <<<
(PID.TID 0000.0001) // =======================================================
(PID.TID 0000.0001) 
(PID.TID 0000.0001)   eps:                              0.100E-01
(PID.TID 0000.0001)   First location:                           1
(PID.TID 0000.0001)   Last location:                            4
(PID.TID 0000.0001)   Increment:                                1
(PID.TID 0000.0001) 
(PID.TID 0000.0001) // =======================================================
(PID.TID 0000.0001) // Gradient check configuration  >>> END <<<
(PID.TID 0000.0001) // =======================================================
(PID.TID 0000.0001) 
(PID.TID 0000.0001) SET_PARMS: done
(PID.TID 0000.0001) Enter INI_VERTICAL_GRID: setInterFDr=    T ; setCenterDr=    F
(PID.TID 0000.0001) tile:   1 ; Read from file grid_cs32.face001.bin
(PID.TID 0000.0001)   => xC yC dxF dyF rA xG yG dxV dyU rAz dxC dyC rAw rAs dxG dyG AngleCS AngleSN
(PID.TID 0000.0001) tile:   2 ; Read from file grid_cs32.face002.bin
(PID.TID 0000.0001)   => xC yC dxF dyF rA xG yG dxV dyU rAz dxC dyC rAw rAs dxG dyG AngleCS AngleSN
(PID.TID 0000.0001) tile:   3 ; Read from file grid_cs32.face003.bin
(PID.TID 0000.0001)   => xC yC dxF dyF rA xG yG dxV dyU rAz dxC dyC rAw rAs dxG dyG AngleCS AngleSN
(PID.TID 0000.0001) tile:   4 ; Read from file grid_cs32.face004.bin
(PID.TID 0000.0001)   => xC yC dxF dyF rA xG yG dxV dyU rAz dxC dyC rAw rAs dxG dyG AngleCS AngleSN
(PID.TID 0000.0001) tile:   5 ; Read from file grid_cs32.face005.bin
(PID.TID 0000.0001)   => xC yC dxF dyF rA xG yG dxV dyU rAz dxC dyC rAw rAs dxG dyG AngleCS AngleSN
(PID.TID 0000.0001) tile:   6 ; Read from file grid_cs32.face006.bin
(PID.TID 0000.0001)   => xC yC dxF dyF rA xG yG dxV dyU rAz dxC dyC rAw rAs dxG dyG AngleCS AngleSN
(PID.TID 0000.0001) %MON XC_max                       =   1.7854351589505E+02
(PID.TID 0000.0001) %MON XC_min                       =  -1.7854351589505E+02
(PID.TID 0000.0001) %MON XC_mean                      =  -4.6999441375798E-15
(PID.TID 0000.0001) %MON XC_sd                        =   1.0355545336287E+02
(PID.TID 0000.0001) %MON XG_max                       =   1.8000000000000E+02
(PID.TID 0000.0001) %MON XG_min                       =  -1.7708797161002E+02
(PID.TID 0000.0001) %MON XG_mean                      =   1.8603515625000E+00
(PID.TID 0000.0001) %MON XG_sd                        =   1.0357130300504E+02
(PID.TID 0000.0001) %MON DXC_max                      =   3.2375185836900E+05
(PID.TID 0000.0001) %MON DXC_min                      =   1.1142031410131E+05
(PID.TID 0000.0001) %MON DXC_mean                     =   2.8605689051214E+05
(PID.TID 0000.0001) %MON DXC_sd                       =   3.4042087138252E+04
(PID.TID 0000.0001) %MON DXF_max                      =   3.2369947500827E+05
(PID.TID 0000.0001) %MON DXF_min                      =   1.2020820513318E+05
(PID.TID 0000.0001) %MON DXF_mean                     =   2.8605437324820E+05
(PID.TID 0000.0001) %MON DXF_sd                       =   3.4050524252539E+04
(PID.TID 0000.0001) %MON DXG_max                      =   3.2375195872773E+05
(PID.TID 0000.0001) %MON DXG_min                      =   1.0098378008791E+05
(PID.TID 0000.0001) %MON DXG_mean                     =   2.8603818508931E+05
(PID.TID 0000.0001) %MON DXG_sd                       =   3.4140406908005E+04
(PID.TID 0000.0001) %MON DXV_max                      =   3.2380418162750E+05
(PID.TID 0000.0001) %MON DXV_min                      =   8.0152299824136E+04
(PID.TID 0000.0001) %MON DXV_mean                     =   2.8603970633619E+05
(PID.TID 0000.0001) %MON DXV_sd                       =   3.4145142117723E+04
(PID.TID 0000.0001) %MON YC_max                       =   8.7940663871962E+01
(PID.TID 0000.0001) %MON YC_min                       =  -8.7940663871962E+01
(PID.TID 0000.0001) %MON YC_mean                      =   0.0000000000000E+00
(PID.TID 0000.0001) %MON YC_sd                        =   3.8676242969072E+01
(PID.TID 0000.0001) %MON YG_max                       =   9.0000000000000E+01
(PID.TID 0000.0001) %MON YG_min                       =  -9.0000000000000E+01
(PID.TID 0000.0001) %MON YG_mean                      =  -1.1842378929335E-15
(PID.TID 0000.0001) %MON YG_sd                        =   3.8676895860710E+01
(PID.TID 0000.0001) %MON DYC_max                      =   3.2375185836900E+05
(PID.TID 0000.0001) %MON DYC_min                      =   1.1142031410131E+05
(PID.TID 0000.0001) %MON DYC_mean                     =   2.8605689051214E+05
(PID.TID 0000.0001) %MON DYC_sd                       =   3.4042087138252E+04
(PID.TID 0000.0001) %MON DYF_max                      =   3.2369947500827E+05
(PID.TID 0000.0001) %MON DYF_min                      =   1.2020820513318E+05
(PID.TID 0000.0001) %MON DYF_mean                     =   2.8605437324820E+05
(PID.TID 0000.0001) %MON DYF_sd                       =   3.4050524252539E+04
(PID.TID 0000.0001) %MON DYG_max                      =   3.2375195872773E+05
(PID.TID 0000.0001) %MON DYG_min                      =   1.0098378008791E+05
(PID.TID 0000.0001) %MON DYG_mean                     =   2.8603818508931E+05
(PID.TID 0000.0001) %MON DYG_sd                       =   3.4140406908005E+04
(PID.TID 0000.0001) %MON DYU_max                      =   3.2380418162750E+05
(PID.TID 0000.0001) %MON DYU_min                      =   8.0152299824136E+04
(PID.TID 0000.0001) %MON DYU_mean                     =   2.8603970633619E+05
(PID.TID 0000.0001) %MON DYU_sd                       =   3.4145142117723E+04
(PID.TID 0000.0001) %MON RA_max                       =   1.0479260248419E+11
(PID.TID 0000.0001) %MON RA_min                       =   1.4019007022556E+10
(PID.TID 0000.0001) %MON RA_mean                      =   8.2992246709265E+10
(PID.TID 0000.0001) %MON RA_sd                        =   1.7509089299457E+10
(PID.TID 0000.0001) %MON RAW_max                      =   1.0480965274559E+11
(PID.TID 0000.0001) %MON RAW_min                      =   1.2166903467143E+10
(PID.TID 0000.0001) %MON RAW_mean                     =   8.2992246709235E+10
(PID.TID 0000.0001) %MON RAW_sd                       =   1.7481917919656E+10
(PID.TID 0000.0001) %MON RAS_max                      =   1.0480965274559E+11
(PID.TID 0000.0001) %MON RAS_min                      =   1.2166903467143E+10
(PID.TID 0000.0001) %MON RAS_mean                     =   8.2992246709235E+10
(PID.TID 0000.0001) %MON RAS_sd                       =   1.7481917919656E+10
(PID.TID 0000.0001) %MON RAZ_max                      =   1.0484349334619E+11
(PID.TID 0000.0001) %MON RAZ_min                      =   8.8317900612505E+09
(PID.TID 0000.0001) %MON RAZ_mean                     =   8.2992246709235E+10
(PID.TID 0000.0001) %MON RAZ_sd                       =   1.7482297311044E+10
(PID.TID 0000.0001) %MON AngleCS_max                  =   9.9999994756719E-01
(PID.TID 0000.0001) %MON AngleCS_min                  =  -9.9968286884824E-01
(PID.TID 0000.0001) %MON AngleCS_mean                 =   3.3078850405987E-01
(PID.TID 0000.0001) %MON AngleCS_sd                   =   6.2496317138039E-01
(PID.TID 0000.0001) %MON AngleSN_max                  =   9.9968286884824E-01
(PID.TID 0000.0001) %MON AngleSN_min                  =  -9.9999994756719E-01
(PID.TID 0000.0001) %MON AngleSN_mean                 =  -3.3078850405987E-01
(PID.TID 0000.0001) %MON AngleSN_sd                   =   6.2496317138039E-01
(PID.TID 0000.0001)  MDS_READ_FIELD: opening global file: bathy_Hmin50.bin
(PID.TID 0000.0001) // =======================================================
(PID.TID 0000.0001) // Field Model R_low (ini_masks_etc) at iteration          1
(PID.TID 0000.0001) // CMIN =         -5.200000000000000E+03
(PID.TID 0000.0001) // CMAX =         -5.000000000000000E+01
(PID.TID 0000.0001) // CINT =          1.907407407407407E+02
(PID.TID 0000.0001) // SYMBOLS (CMIN->CMAX): -abcdefghijklmnopqrstuvwxyz+
(PID.TID 0000.0001) //                  0.0: .
(PID.TID 0000.0001) // RANGE I (Lo:Hi:Step):(    -3:   196:     1)
(PID.TID 0000.0001) // RANGE J (Lo:Hi:Step):(    36:    -3:    -1)
(PID.TID 0000.0001) // RANGE K (Lo:Hi:Step):(   1:   1:   1)
(PID.TID 0000.0001) // =======================================================
(PID.TID 0000.0001) K =   1
(PID.TID 0000.0001) //                I=6       I=16      I=26      I=36      I=38      I=48      I=58      I=68      I=70      I=80      I=90      I=100     I=102     I=112     I=122     I=132     I=134     I=144     I=154     I=164     I=166     I=176     I=186     I=196
(PID.TID 0000.0001) // |--J--|321012345|789012345|789012345|789012345|901234567|901234567|901234567|901234567|123456789|123456789|123456789|123456789|345678901|345678901|345678901|345678901|567890123|567890123|567890123|567890123|789012345|789012345|789012345|789012345|
(PID.TID 0000.0001) //     36 cbbc-ddcbcdehkhhmn..++..................................................okn.skko--a-fc----bba-cp.............tfeecccbbdeecccbbdeddedcdcccdddcddffggghiggfffdeeffijlihjlica---a--cgffel.+edfgeedflcbahgfllcbahgfllfhdffhkfffca-aady...llnabdoa--a
(PID.TID 0000.0001) //     35 dcac--cbbeefjkfefw+..........zpu........................................kqnzrqqk--b-da----bbbbfu..............fdddccaadcddccaadcdddcbbbbcdddcccdffffghgffffddefflligfiljfba---aafddehy...pwvlhfffcbagfccfcbagfcceeffffjlkjgaa---bfvheeln-aesaaab
(PID.TID 0000.0001) //     34 d--ba-abcehjnldcclz+........spps.......................................vkqn+xnnncabbcbba--aabfu+..............hcbaaaaaccbaaaaaccdccbaaabbddddccdffffghfeeeeedeffjiffefilhfcaaaacgceei.......zomggfcaecbbgfcaecbbccddefilihecbaacbaajfega-aesfeed
(PID.TID 0000.0001) //     33 --abbbccceiomkfdbbc+.......+s..........................................xsrxzz+z.fdcddb-----adu+...............hcbaa--accbaa--accddba--bbbddddccdfffhhgfeeddcceddhfeddfgikhfffdfgccffw........zohhgebbaaahgebbaaaaaccdfhlhfefdcccaabjefbaaafoosso
(PID.TID 0000.0001) //     32 --bddefhhkqqlgfaakqz..v.+..+.........................................++..u+....zigfdba----adu+................kdcaaa-acccaaa-accdcb---bbbcdddddefffggfeeedcccccbccbbdcdfgghhiihcbeiw.........+ynjgebaaaajgebaaaa-aacccfikkhecccbbbaaabaadfklnqpp
(PID.TID 0000.0001) //     31 abbcffijnpnqneaaat..umrr+s.z.........................................+++++.ztsvdlifeb--dfdfu+................+lkdca--abcdca--abcccb---bbbbddddeffflhfeeeecbbbbaaba-abbacbcdceffbbfw+..........++ujfbaaa-ujfbaaa----aacffiljgfffcca--adfikkiihhhf
(PID.TID 0000.0001) //     30 --adgillkkkifcadcx.ymmqzqikvnnps.....................................+++++wmegt-jlifcacdlqx+++...............mligea---abgea---abbbb---abaaddddeedkmeddefdbbbaaaabc---b--aaaaabaabm..............+viba---+viba-------acdefinmlgiieb-chnnnmlmlgffc
(PID.TID 0000.0001) //     29 --cfiljigfjd--efdozy...+ximpnnuz......................................+++yqddhp-iljhcbbchz+......++.........+mmhffc----affc----aaba------acdddcbcineddgdbaaa----cdd--a------aa-bfz...............+qe---a.+qe---aa---aedeegknmlgiigcdfhpokkimlfdb
(PID.TID 0000.0001) //     28 -abgkhfcccea-bdei........t............................................++zwgfcfk-gknhccbbhwwy.....+++........+njfeed-----eed-----aa-------abddcabcnfddegcaaa-----hlf------------dk+................+ja---..+ja------bffdddehfd--bedaacfhpnligiihd
(PID.TID 0000.0001) //     27 -acghfbaaaa-achmy......................+.......+++....................++vnbbbclefkpkeeecflmqxy....++........+lhfeecc----eecc------------aaadcbabcfhddccba-------zqd-----------irw.................++e---..++e-----mhmijddda--------ahhfiokhedegg
(PID.TID 0000.0001) //     26 -adhfca-----bfiv.......................+.......++sy...................+tq-fdbblcjknqiheddefhiksz++++........zkhfdccb----dccb------------aabdcaaaacfddbca-------a+xfa-abb-----vvv...................+wa--...+wa---mlmkijhc----------cjjffiheb-aad
(PID.TID 0000.0001) //     25 -achfa------ch+..................w.......w.......njo+................+x-----bcgidiqqojfefiiiijmy.++.........zkhfdbaa----dbaa-------daa---acccaaaacccca--------ac.+udaabbb----tei...................++qde...++qdeqnghiljcaaaaidaa----beedeeca--bb
(PID.TID 0000.0001) //     24 aaeifa--acbcei...................w.......w.......likn+.....++.....++znpa----bbdi-fnlmnjhinlksssw............qhfeca------ca--------addc--aeffaaaaaaccb-a----a--bd.++udbbaba---ven....................++xy....++xywnfgllcbbabegkecba----ddddcaacdc
(PID.TID 0000.0001) //     23 abfida-aabchjk...................zz......zz.....nhhijz....tqq.....+ujgzgd---abci-cegklkkknols..xuu..........zgfdba------ba--------bcd---affaaadffabbb-----aa-bcc.+.+ufb-----l.gx...........s.........++z.....++zzkfilfccccoz..ulkcd---bccnfddddd
(PID.TID 0000.0001) //     22 -afhfaa---bfgi....................zz..rn..zz..rnjffggm...nlmn+....+sffzya--aabcieaaffdfhimrmp...yuu.++.......zudba------ba--------adc---dda-adffe-aa--------aaac....+ufc-baaqvhh..........dcfeeh......++......++zggqvifefhz......zobbaccfwuffeee
(PID.TID 0000.0001) //     21 babcgca----abe.....................ysstl...ysstlgeeeeoz..ijklt+....lfjzzf---adfcfdaadcehllotq....yy+++zzs.....+zcba-----cba-------cdd--aaa----df------------aaac.....+upjdcy.vohq.......+idcdfeeefwz....efwz....+hhn.vklox.........gdccfjwrigffh
(PID.TID 0000.0001) //     20 fbbbcgfcaa-aae+.......................lc......lcgfdddhq.+hiilnz++.+oquxyz--adgkfdcaabcfmtooyxz......+yuiiy....++gb------gb--------ddcca-a-----acbaa------bbaaaab........ywxy.lulo.lv...kcdgddffefffilyx+fffilyx+fffk.+xyyy.........mgeimvskjklll
(PID.TID 0000.0001) //     19 zmfeccdghfeegcbt......................aa......aafifccgnrzgghjry.+++sr+lq.--edfkkoxtkblwnnsp.vv......skhggt...+++t-------t---------bdaf---------edd-------adlaaaa+..........vnhzy.tllqiedccdhggfggffiiggfgffiiggfcbdgy..yz..........xigqophijkkii
(PID.TID 0000.0001) //     18 ..wifedfkhfegbbcivlqfoz..............jaa.....jaacfihggokeeffgt..++++..hhlfdeddkez..qcz+.zwxtsttz..ysrkhot++++++zig------ig--------b--f---------egqqqaa----frb---+........+kkrhw.vqmlnieddcdehgggffgigedbffgigedbaaceiy.............zilrddefikkhh
(PID.TID 0000.0001) //     17 ..+wfeefikhgcbbccaaacgn.............icaa....icaaccfihfoedddeedy..++...nnqwgfeekeyy.z++..+zsjjllllljllpjos+++.+zhhi-----ehi-----e-----ea--------foqqoqqo--hlwgea-.........+nk+..xiioonhfefddegihhghigfdbaghigfdbaaabdgx..............nheddefiklhg
(PID.TID 0000.0001) //     16 ....wiheddeccdfhfbabdfl............jdbad...jdbaddddgifkccccdccd+.++..++ynvz.tkkq.mu....++zyslllllkhggkmpy++...ihhi-----ehi-----ea---feb-----a-acnoohfghknvmwnuca..........qhu..hhhkojgffgeefghihhiieedbahiieedbaaabcdy..............ygddeghiljgf
(PID.TID 0000.0001) //     15 ......ylea--acfihebcbbes..........sfcbbn..sfcbbngfffigcaaabdbcac+.+++++zgmpx...y.mm....++..zslwz.yhhhhnz+++...rhgc----abgc----ab----ige----acaaalllkddfiy..yswxb..........thk.xgghiligfghfefhhhhiiheedcdiiheedcdbbabdmz.............zfdeghikkifd
(PID.TID 0000.0001) //     14 ........c---acgkhdcc--di..........ofddch..ofddchohffikaaaaabaaa-aw+.+ysnggox++...qrv..........yzzzzrjil+++....qhgd-----agd-----a-----i---cccdeabkklldinqssy..xxv...........+y.uhghikihgfghefgihhhgeeeeedhgeeeeeddbaadhw.............nedeghjjhfed
(PID.TID 0000.0001) //     13 .......+b----cfkhec---afz.........nhfdff..nhfdffholghkaaaaaba-a---flkkuswyy++++y+zr...........zzzzz++ry++......yd-------d--------------aeecdeidfkkqnqlmqquukqqmf..............iihiijjhfefgefhjihiffgggffiffgggffecaabelx...........zjecehijhfecc
(PID.TID 0000.0001) //     12 .......ec----chjhec---ag..........skiqdd..skiqddeiiiifaaabae--a---dd--iu+++.+++sxq++..........+z+++++.+++....++.s-------s------------a-ceccdejhlllkqlkklssiccdee.............wjkkkjjjigeefffgjiiighiiihhighiiihhhdaabdffghtxx......mfccehjiffdb-
(PID.TID 0000.0001) //     11 ......pdca--achlheba--ai..........nkn.fd..nkn.fdemijidaaaabi-------a--q+....++.ziis...........+++++..........+yyza----b-za----b-----a--ccccddkhieekkossssfbbbbcd............njjijhhihijhgggggjjjjijkkkkjjijkkkkjjhcaacddeegpy.....xfdccdhjgfdda-
(PID.TID 0000.0001) //     10 ......wfdb--achlhea---an.........uos..dc.uos..dcemikkfdcaabi-------equ+.........mk...........................zyvuq----ccuq----cc----a---dcfhkopqjeissrnpfbbcccde..........zslihhigghgijjihhhhkllkkkkkkjkkkkkkkjkkkedccdeeeeipz..zwhccbcdhgfddcam
(PID.TID 0000.0001) //      9 ......vgec---bfikca--cjl+.......+nnv.+cc+nnv.+ccffhkkiddaadha-----as++..........pvz++........................zxuuk------uk------a---a----djmqrrnlllsoiddcccccdjf.........+zjijhfgfggffhjkkkiillljihhghgijihhghgihighdeeffgghimnnjgecbbcdgfeccbas
(PID.TID 0000.0001) //      8 .....zleca---afjfca--hdfz.......vkky.jcevkky.jceddefijffdddhb--a-afv............nn..ss.........................+yku-----yku--------------ejnpqqnninnritqdccchkmf+.......wihgghgeffffeefhijkjkljiigeeffefigeeffefffhjhhikkklljklmhffeeeggfdcbaay.
(PID.TID 0000.0001) //      7 ...+zohec--abcfkhecbchbdx.......qiht.faaqiht.faaaabdgijgfededcdcb-f+............nn...pz.........................+zu-----+zu--------------edefqgqddsz+......+yuddmm+....tiggfggfeeeefeeefiiiijkiihhedddddhheddddddddjjllliijhfkmmkkjjhijgdcba--q.
(PID.TID 0000.0001) //      6 ..+yomfddcaabefkifdchaadt......uqdeisc--qdeisc----dfefgifffkklldc--v............up...pp.........................v.x-----v.x---------a----fbbpqgzenx+........zdbcmllkhhfffffffgfeeeeeeeefhhhhijihhffddcbbhffddcbbbbdhhiihedddb-cfhhhjjjieca----+.
(PID.TID 0000.0001) //      5 ..+nhgffkghccfhkhffgdaackz....uoibcimlaaibcimlaaacfbddfjjhijeehf-a-c............zs...su.........................qk.yi---qk.yi-------gha-fjddqs+xkrz.........q-bchikdccdeeeeeeedddedddddgghhhhjhhgffcbbaagffcbbaaaaddfegecca----dfeefhfgdb-----+.
(PID.TID 0000.0001) //      4 .+ujhgfllfhdffhkfffca-aady...llnabdopfcbabdopfcbdgdbcdehlihgfddc--ms............................................okn.zd--okn.zd---eciiiicfkeeqy.ysz..........n-aafgdcbbdeddedcdcccdddcddffggghiggfffdbaa-fffdbaa---acdcccba--abvfedeffdcca----b+.
(PID.TID 0000.0001) //      3 +vjggfcceeffffjlkjgaa---bfvheeln-aesphfd-aesphfdhgabddeflihhgfecbaaayq+++++.....................................kqnz.vtpkqnz.vtpkllgdccfkkkkk..++..........+g---fecaaadcdddcbbbbcdddcccdffffghgffffdcaa-fffdcaa----abcaaaa-acxxmecdjmdbba----r+.
(PID.TID 0000.0001) //      2 qifeecbbccddefilihecbaacbaajfega-aesqhff-aesqhffiea-cdeflkkljifeddcba---bry+...................................vkqn+.sghkqn+.sghfcbcbbbdgfdek.++++.........+l---caaaaaccdccbaaabbddddccdffffghfeeeeecba-eeeecba------baaaa-euwxqdbcdkud-----sy+.
(PID.TID 0000.0001) //      1 ebbbbaaaaaccdfhlhfefdcccaabjefbaaafonhglaafonhglid--adfgkkkklkhffddca-----s++++................................xsrxz.tedsrxz.tedcbbbbaaadddet.++++.........+l------a-accddba--bbbddddccdfffhhgfeeddccba-eddccba-------aaaabgns.qcbcchyzqngll++..
(PID.TID 0000.0001) //      0 -aaaaaaa-aacccfikkhecccbbbaaabaadfkllilmdfkllilmgebaadfijjiiikjhffdcba-----lllgn.............................++..u+..zmd.u+..zmdfbd---a-aeef.xx+..........+++s-------accdcb---bbbcdddddefffggfeeedcccbbaedcccbba----aa--alrwwy.kcbccc+...++++...
(PID.TID 0000.0001) //     -1 --aaaaa----aacffiljgfffcca--adfikkiikimikkiikimiiheccfurkiffhijjigfecb-----l----.............................+++++.z+.wq++.z+.wqgbf-------dgzpoy+........+ys+yrb--aa-abcccb---bbbbddddeffflhfeeeecbbcbbaecbbcbbaa----a--bdflm.yuibbcc.......+...
(PID.TID 0000.0001) //     -2 --aaa-------acdefinmlgiieb-chnnnmlmlfklkmlmlfklklkhednwwsheeghhijjgfdca----g---a.............................+++++wmu++y++wmu++ywn--------fwvmgy+........+r-.+++-abc--abbbb---abaaddddeedkmeddefdbbbdcbadbbbdcbaa-------ba-hv.susfbcc.......+...
(PID.TID 0000.0001) //     -3 a--a---aa---aedeegknmlgiigcdfhpokkimdkmkkkimdkmknoiedcfjvpddegghhhhgfdcbaa-n---a..............................+++yqd.++++yqd.+++zvq--dafz.lqnggw+........+b-....abcc---aaba------acdddcbcineddgdbaaaeedbbaaaeedbaa----------nysqssfcd...........
(PID.TID 0000.0001) // =======================================================
(PID.TID 0000.0001) // END OF FIELD                                          =
(PID.TID 0000.0001) // =======================================================
(PID.TID 0000.0001) 
(PID.TID 0000.0001) // =======================================================
(PID.TID 0000.0001) // Field Model Ro_surf (ini_masks_etc) at iteration          1
(PID.TID 0000.0001) // CMIN =         -7.105427357601002E-15
(PID.TID 0000.0001) // CMAX =         -7.105427357601002E-15
(PID.TID 0000.0001) // CINT =          0.000000000000000E+00
(PID.TID 0000.0001) // SYMBOLS (CMIN->CMAX): -abcdefghijklmnopqrstuvwxyz+
(PID.TID 0000.0001) //                  0.0: .
(PID.TID 0000.0001) // RANGE I (Lo:Hi:Step):(    -3:   196:     1)
(PID.TID 0000.0001) // RANGE J (Lo:Hi:Step):(    36:    -3:    -1)
(PID.TID 0000.0001) // RANGE K (Lo:Hi:Step):(   1:   1:   1)
(PID.TID 0000.0001) // =======================================================
(PID.TID 0000.0001) // =======================================================
(PID.TID 0000.0001) // END OF FIELD                                          =
(PID.TID 0000.0001) // =======================================================
(PID.TID 0000.0001) 
(PID.TID 0000.0001) // =======================================================
(PID.TID 0000.0001) // Field hFacC at iteration          1
(PID.TID 0000.0001) // CMIN =          1.000000000000000E+00
(PID.TID 0000.0001) // CMAX =          1.000000000000000E+00
(PID.TID 0000.0001) // CINT =          0.000000000000000E+00
(PID.TID 0000.0001) // SYMBOLS (CMIN->CMAX): -abcdefghijklmnopqrstuvwxyz+
(PID.TID 0000.0001) //                  0.0: .
(PID.TID 0000.0001) // RANGE I (Lo:Hi:Step):(    -3:   196:     1)
(PID.TID 0000.0001) // RANGE J (Lo:Hi:Step):(    36:    -3:    -1)
(PID.TID 0000.0001) // RANGE K (Lo:Hi:Step):(   1:   1:   1)
(PID.TID 0000.0001) // =======================================================
(PID.TID 0000.0001) // =======================================================
(PID.TID 0000.0001) // END OF FIELD                                          =
(PID.TID 0000.0001) // =======================================================
(PID.TID 0000.0001) 
(PID.TID 0000.0001) // =======================================================
(PID.TID 0000.0001) // Field hFacW at iteration          1
(PID.TID 0000.0001) // CMIN =          1.000000000000000E+00
(PID.TID 0000.0001) // CMAX =          1.000000000000000E+00
(PID.TID 0000.0001) // CINT =          0.000000000000000E+00
(PID.TID 0000.0001) // SYMBOLS (CMIN->CMAX): -abcdefghijklmnopqrstuvwxyz+
(PID.TID 0000.0001) //                  0.0: .
(PID.TID 0000.0001) // RANGE I (Lo:Hi:Step):(    -3:   196:     1)
(PID.TID 0000.0001) // RANGE J (Lo:Hi:Step):(    36:    -3:    -1)
(PID.TID 0000.0001) // RANGE K (Lo:Hi:Step):(   1:   1:   1)
(PID.TID 0000.0001) // =======================================================
(PID.TID 0000.0001) // =======================================================
(PID.TID 0000.0001) // END OF FIELD                                          =
(PID.TID 0000.0001) // =======================================================
(PID.TID 0000.0001) 
(PID.TID 0000.0001) // =======================================================
(PID.TID 0000.0001) // Field hFacS at iteration          1
(PID.TID 0000.0001) // CMIN =          1.000000000000000E+00
(PID.TID 0000.0001) // CMAX =          1.000000000000000E+00
(PID.TID 0000.0001) // CINT =          0.000000000000000E+00
(PID.TID 0000.0001) // SYMBOLS (CMIN->CMAX): -abcdefghijklmnopqrstuvwxyz+
(PID.TID 0000.0001) //                  0.0: .
(PID.TID 0000.0001) // RANGE I (Lo:Hi:Step):(    -3:   196:     1)
(PID.TID 0000.0001) // RANGE J (Lo:Hi:Step):(    36:    -3:    -1)
(PID.TID 0000.0001) // RANGE K (Lo:Hi:Step):(   1:   1:   1)
(PID.TID 0000.0001) // =======================================================
(PID.TID 0000.0001) // =======================================================
(PID.TID 0000.0001) // END OF FIELD                                          =
(PID.TID 0000.0001) // =======================================================
(PID.TID 0000.0001) 
(PID.TID 0000.0001) 
(PID.TID 0000.0001) // ===================================
(PID.TID 0000.0001) // GAD parameters :
(PID.TID 0000.0001) // ===================================
(PID.TID 0000.0001) tempAdvScheme =   /* Temp. Horiz.Advection scheme selector */
(PID.TID 0000.0001)                      30
(PID.TID 0000.0001)     ;
(PID.TID 0000.0001) tempVertAdvScheme =   /* Temp. Vert. Advection scheme selector */
(PID.TID 0000.0001)                      30
(PID.TID 0000.0001)     ;
(PID.TID 0000.0001) tempMultiDimAdvec =   /* use Muti-Dim Advec method for Temp */
(PID.TID 0000.0001)                   T
(PID.TID 0000.0001)     ;
(PID.TID 0000.0001) tempSOM_Advection = /* use 2nd Order Moment Advection for Temp */
(PID.TID 0000.0001)                   F
(PID.TID 0000.0001)     ;
(PID.TID 0000.0001) AdamsBashforthGt = /* apply Adams-Bashforth extrapolation on Gt */
(PID.TID 0000.0001)                   F
(PID.TID 0000.0001)     ;
(PID.TID 0000.0001) AdamsBashforth_T = /* apply Adams-Bashforth extrapolation on Temp */
(PID.TID 0000.0001)                   F
(PID.TID 0000.0001)     ;
(PID.TID 0000.0001) saltAdvScheme =   /* Salt. Horiz.advection scheme selector */
(PID.TID 0000.0001)                      30
(PID.TID 0000.0001)     ;
(PID.TID 0000.0001) saltVertAdvScheme =   /* Salt. Vert. Advection scheme selector */
(PID.TID 0000.0001)                      30
(PID.TID 0000.0001)     ;
(PID.TID 0000.0001) saltMultiDimAdvec =   /* use Muti-Dim Advec method for Salt */
(PID.TID 0000.0001)                   T
(PID.TID 0000.0001)     ;
(PID.TID 0000.0001) saltSOM_Advection = /* use 2nd Order Moment Advection for Salt */
(PID.TID 0000.0001)                   F
(PID.TID 0000.0001)     ;
(PID.TID 0000.0001) AdamsBashforthGs = /* apply Adams-Bashforth extrapolation on Gs */
(PID.TID 0000.0001)                   F
(PID.TID 0000.0001)     ;
(PID.TID 0000.0001) AdamsBashforth_S = /* apply Adams-Bashforth extrapolation on Salt */
(PID.TID 0000.0001)                   F
(PID.TID 0000.0001)     ;
(PID.TID 0000.0001) // ===================================
(PID.TID 0000.0001) ctrl-wet 1:    nvarlength =       239366
(PID.TID 0000.0001) ctrl-wet 2: surface wet C =          639
(PID.TID 0000.0001) ctrl-wet 3: surface wet W =          604
(PID.TID 0000.0001) ctrl-wet 4: surface wet S =          611
(PID.TID 0000.0001) ctrl-wet 4a:surface wet V =            0
(PID.TID 0000.0001) ctrl-wet 5: 3D wet points =         8319
(PID.TID 0000.0001) ctrl-wet 6: no recs for i =     1           1
(PID.TID 0000.0001) ctrl-wet 6: no recs for i =     2           1
(PID.TID 0000.0001) ctrl-wet 6: no recs for i =     3           1
(PID.TID 0000.0001) ctrl-wet 6: no recs for i =     4           1
(PID.TID 0000.0001) ctrl-wet 6: no recs for i =     5           1
(PID.TID 0000.0001) ctrl-wet 6: no recs for i =     6           1
(PID.TID 0000.0001) ctrl-wet 6: no recs for i =     7           0
(PID.TID 0000.0001) ctrl-wet 6: no recs for i =     8           0
(PID.TID 0000.0001) ctrl-wet 6: no recs for i =     9           0
(PID.TID 0000.0001) ctrl-wet 6: no recs for i =    10           0
(PID.TID 0000.0001) ctrl-wet 6: no recs for i =    11           0
(PID.TID 0000.0001) ctrl-wet 6: no recs for i =    12           0
(PID.TID 0000.0001) ctrl-wet 6: no recs for i =    13           0
(PID.TID 0000.0001) ctrl-wet 6: no recs for i =    14           0
(PID.TID 0000.0001) ctrl-wet 6: no recs for i =    15           1
(PID.TID 0000.0001) ctrl-wet 6: no recs for i =    16           0
(PID.TID 0000.0001) ctrl-wet 6: no recs for i =    17           1
(PID.TID 0000.0001) ctrl-wet 6: no recs for i =    18           0
(PID.TID 0000.0001) ctrl-wet 6: no recs for i =    19           0
(PID.TID 0000.0001) ctrl-wet 6: no recs for i =    20           0
(PID.TID 0000.0001) ctrl-wet 6: no recs for i =    21           0
(PID.TID 0000.0001) ctrl-wet 6: no recs for i =    22           0
(PID.TID 0000.0001) ctrl-wet 6: no recs for i =    23           0
(PID.TID 0000.0001) ctrl-wet 6: no recs for i =    24           0
(PID.TID 0000.0001) ctrl-wet 6: no recs for i =    25           0
(PID.TID 0000.0001) ctrl-wet 6: no recs for i =    26           0
(PID.TID 0000.0001) ctrl-wet 6: no recs for i =    27           0
(PID.TID 0000.0001) ctrl-wet 6: no recs for i =    28           0
(PID.TID 0000.0001) ctrl-wet 6: no recs for i =    29           0
(PID.TID 0000.0001) ctrl-wet 6: no recs for i =    30           0
(PID.TID 0000.0001) ctrl-wet 6: no recs for i =    31           0
(PID.TID 0000.0001) ctrl-wet 6: no recs for i =    32           0
(PID.TID 0000.0001) ctrl-wet 6: no recs for i =    33           0
(PID.TID 0000.0001) ctrl-wet 6: no recs for i =    34           0
(PID.TID 0000.0001) ctrl-wet 6: no recs for i =    35           0
(PID.TID 0000.0001) ctrl-wet 6: no recs for i =    36           0
(PID.TID 0000.0001) ctrl-wet 6: no recs for i =    37           0
(PID.TID 0000.0001) ctrl-wet 6: no recs for i =    38           0
(PID.TID 0000.0001) ctrl-wet 6: no recs for i =    39           0
(PID.TID 0000.0001) ctrl-wet 6: no recs for i =    40           0
(PID.TID 0000.0001) ctrl-wet 6: no recs for i =    41           0
(PID.TID 0000.0001) ctrl-wet 6: no recs for i =    42           0
(PID.TID 0000.0001) ctrl-wet 6: no recs for i =    43           0
(PID.TID 0000.0001) ctrl-wet 6: no recs for i =    44           0
(PID.TID 0000.0001) ctrl-wet 6: no recs for i =    45           0
(PID.TID 0000.0001) ctrl-wet 6: no recs for i =    46           0
(PID.TID 0000.0001) ctrl-wet 6: no recs for i =    47           0
(PID.TID 0000.0001) ctrl-wet 6: no recs for i =    48           0
(PID.TID 0000.0001) ctrl-wet 6: no recs for i =    49           0
(PID.TID 0000.0001) ctrl-wet 6: no recs for i =    50           0
(PID.TID 0000.0001) ctrl-wet 6: no recs for i =    51           0
(PID.TID 0000.0001) ctrl-wet 6: no recs for i =    52           0
(PID.TID 0000.0001) ctrl-wet 6: no recs for i =    53           0
(PID.TID 0000.0001) ctrl-wet 6: no recs for i =    54           0
(PID.TID 0000.0001) ctrl-wet 6: no recs for i =    55           0
(PID.TID 0000.0001) ctrl-wet 6: no recs for i =    56           0
(PID.TID 0000.0001) ctrl-wet 6: no recs for i =    57           0
(PID.TID 0000.0001) ctrl-wet 6: no recs for i =    58           0
(PID.TID 0000.0001) ctrl-wet 6: no recs for i =    59           0
(PID.TID 0000.0001) ctrl-wet 6: no recs for i =    60           0
(PID.TID 0000.0001) ctrl-wet 7: flux         19131
(PID.TID 0000.0001) ctrl-wet 8: atmos        16638
(PID.TID 0000.0001) ctrl-wet -------------------------------------------------
(PID.TID 0000.0001) ctrl-wet 13: global nvarlength for Nr =   15      239366
(PID.TID 0000.0001) ctrl-wet -------------------------------------------------
(PID.TID 0000.0001) ctrl-wet 14: global nWet C/S/W/V k=    1        4420        4232        4206           0
(PID.TID 0000.0001) ctrl-wet 14: global nWet C/S/W/V k=    2        4299        4112        4096           0
(PID.TID 0000.0001) ctrl-wet 14: global nWet C/S/W/V k=    3        4222        4038        4023           0
(PID.TID 0000.0001) ctrl-wet 14: global nWet C/S/W/V k=    4        4140        3960        3939           0
(PID.TID 0000.0001) ctrl-wet 14: global nWet C/S/W/V k=    5        4099        3919        3893           0
(PID.TID 0000.0001) ctrl-wet 14: global nWet C/S/W/V k=    6        4038        3856        3839           0
(PID.TID 0000.0001) ctrl-wet 14: global nWet C/S/W/V k=    7        3995        3814        3795           0
(PID.TID 0000.0001) ctrl-wet 14: global nWet C/S/W/V k=    8        3944        3756        3737           0
(PID.TID 0000.0001) ctrl-wet 14: global nWet C/S/W/V k=    9        3887        3699        3673           0
(PID.TID 0000.0001) ctrl-wet 14: global nWet C/S/W/V k=   10        3799        3605        3585           0
(PID.TID 0000.0001) ctrl-wet 14: global nWet C/S/W/V k=   11        3703        3502        3461           0
(PID.TID 0000.0001) ctrl-wet 14: global nWet C/S/W/V k=   12        3554        3338        3303           0
(PID.TID 0000.0001) ctrl-wet 14: global nWet C/S/W/V k=   13        3202        2910        2911           0
(PID.TID 0000.0001) ctrl-wet 14: global nWet C/S/W/V k=   14        2599        2296        2276           0
(PID.TID 0000.0001) ctrl-wet 14: global nWet C/S/W/V k=   15        1621        1368        1334           0
(PID.TID 0000.0001) ctrl-wet -------------------------------------------------
(PID.TID 0000.0001) ctrl-wet -------------------------------------------------
(PID.TID 0000.0001) ctrl-wet -------------------------------------------------
(PID.TID 0000.0001) ctrl_init: no. of control variables:            8
(PID.TID 0000.0001) ctrl_init: control vector length:          239366
(PID.TID 0000.0001) %MON fCori_max                    =   1.4535016908525E-04
(PID.TID 0000.0001) %MON fCori_min                    =  -1.4535016908525E-04
(PID.TID 0000.0001) %MON fCori_mean                   =   0.0000000000000E+00
(PID.TID 0000.0001) %MON fCori_sd                     =   8.3972192788621E-05
(PID.TID 0000.0001) %MON fCoriG_max                   =   1.4544410433286E-04
(PID.TID 0000.0001) %MON fCoriG_min                   =  -1.4544410433286E-04
(PID.TID 0000.0001) %MON fCoriG_mean                  =   0.0000000000000E+00
(PID.TID 0000.0001) %MON fCoriG_sd                    =   8.3972192788621E-05
(PID.TID 0000.0001) %MON fCoriCos_max                 =   1.4540341538469E-04
(PID.TID 0000.0001) %MON fCoriCos_min                 =   5.2264550201501E-06
(PID.TID 0000.0001) %MON fCoriCos_mean                =   1.1482595466044E-04
(PID.TID 0000.0001) %MON fCoriCos_sd                  =   3.0292878037194E-05
(PID.TID 0000.0001) INI_CG2D: CG2D normalisation factor =  1.9156564154949553E-04
(PID.TID 0000.0001) INI_CG2D: cg2dTolerance = 5.809016360175293E-07 (Area=3.6388673751E+14)
(PID.TID 0000.0001) 
(PID.TID 0000.0001) // =======================================================
(PID.TID 0000.0001) // Model configuration
(PID.TID 0000.0001) // =======================================================
(PID.TID 0000.0001) //
(PID.TID 0000.0001) // "Physical" paramters ( PARM01 in namelist )
(PID.TID 0000.0001) //
(PID.TID 0000.0001) buoyancyRelation = /* Type of relation to get Buoyancy */
(PID.TID 0000.0001)               'OCEANIC'
(PID.TID 0000.0001)     ;
(PID.TID 0000.0001) fluidIsAir   =  /* fluid major constituent is Air */
(PID.TID 0000.0001)                   F
(PID.TID 0000.0001)     ;
(PID.TID 0000.0001) fluidIsWater =  /* fluid major constituent is Water */
(PID.TID 0000.0001)                   T
(PID.TID 0000.0001)     ;
(PID.TID 0000.0001) usingPCoords =  /* use p (or p*) vertical coordinate */
(PID.TID 0000.0001)                   F
(PID.TID 0000.0001)     ;
(PID.TID 0000.0001) usingZCoords =  /* use z (or z*) vertical coordinate */
(PID.TID 0000.0001)                   T
(PID.TID 0000.0001)     ;
(PID.TID 0000.0001) tRef =   /* Reference temperature profile ( oC or K ) */
(PID.TID 0000.0001)    15 @  2.000000000000000E+01              /* K =  1: 15 */
(PID.TID 0000.0001)     ;
(PID.TID 0000.0001) sRef =   /* Reference salinity profile ( psu ) */
(PID.TID 0000.0001)    15 @  3.500000000000000E+01              /* K =  1: 15 */
(PID.TID 0000.0001)     ;
(PID.TID 0000.0001) viscAh  =   /* Lateral eddy viscosity ( m^2/s ) */
(PID.TID 0000.0001)                 3.000000000000000E+05
(PID.TID 0000.0001)     ;
(PID.TID 0000.0001) viscAhMax = /* Maximum lateral eddy viscosity ( m^2/s ) */
(PID.TID 0000.0001)                 1.000000000000000E+21
(PID.TID 0000.0001)     ;
(PID.TID 0000.0001) viscAhGrid = /* Grid dependent lateral eddy viscosity ( non-dim. ) */
(PID.TID 0000.0001)                 0.000000000000000E+00
(PID.TID 0000.0001)     ;
(PID.TID 0000.0001) useFullLeith = /* Use Full Form of Leith Viscosity on/off flag*/
(PID.TID 0000.0001)                   F
(PID.TID 0000.0001)     ;
(PID.TID 0000.0001) useStrainTensionVisc= /* Use StrainTension Form of Viscous Operator flag*/
(PID.TID 0000.0001)                   F
(PID.TID 0000.0001)     ;
(PID.TID 0000.0001) useAreaViscLength = /* Use area for visc length instead of geom. mean*/
(PID.TID 0000.0001)                   F
(PID.TID 0000.0001)     ;
(PID.TID 0000.0001) viscC2leith = /* Leith harmonic visc. factor (on grad(vort),non-dim.) */
(PID.TID 0000.0001)                 0.000000000000000E+00
(PID.TID 0000.0001)     ;
(PID.TID 0000.0001) viscC2leithD = /* Leith harmonic viscosity factor (on grad(div),non-dim.)*/
(PID.TID 0000.0001)                 0.000000000000000E+00
(PID.TID 0000.0001)     ;
(PID.TID 0000.0001) viscC2smag = /* Smagorinsky harmonic viscosity factor (non-dim.) */
(PID.TID 0000.0001)                 0.000000000000000E+00
(PID.TID 0000.0001)     ;
(PID.TID 0000.0001) viscA4  =   /* Lateral biharmonic viscosity ( m^4/s ) */
(PID.TID 0000.0001)                 0.000000000000000E+00
(PID.TID 0000.0001)     ;
(PID.TID 0000.0001) viscA4Max = /* Maximum biharmonic viscosity ( m^2/s ) */
(PID.TID 0000.0001)                 1.000000000000000E+21
(PID.TID 0000.0001)     ;
(PID.TID 0000.0001) viscA4Grid = /* Grid dependent biharmonic viscosity ( non-dim. ) */
(PID.TID 0000.0001)                 0.000000000000000E+00
(PID.TID 0000.0001)     ;
(PID.TID 0000.0001) viscC4leith = /* Leith biharm viscosity factor (on grad(vort), non-dim.)*/
(PID.TID 0000.0001)                 0.000000000000000E+00
(PID.TID 0000.0001)     ;
(PID.TID 0000.0001) viscC4leithD = /* Leith biharm viscosity factor (on grad(div), non-dim.) */
(PID.TID 0000.0001)                 0.000000000000000E+00
(PID.TID 0000.0001)     ;
(PID.TID 0000.0001) viscC4Smag = /* Smagorinsky biharm viscosity factor (non-dim) */
(PID.TID 0000.0001)                 0.000000000000000E+00
(PID.TID 0000.0001)     ;
(PID.TID 0000.0001) no_slip_sides =  /* Viscous BCs: No-slip sides */
(PID.TID 0000.0001)                   T
(PID.TID 0000.0001)     ;
(PID.TID 0000.0001) sideDragFactor = /* side-drag scaling factor (non-dim) */
(PID.TID 0000.0001)                 2.000000000000000E+00
(PID.TID 0000.0001)     ;
(PID.TID 0000.0001) viscArNr = /* vertical profile of vertical viscosity ( m^2/s )*/
(PID.TID 0000.0001)    15 @  1.000000000000000E-03              /* K =  1: 15 */
(PID.TID 0000.0001)     ;
(PID.TID 0000.0001) no_slip_bottom =  /* Viscous BCs: No-slip bottom */
(PID.TID 0000.0001)                   T
(PID.TID 0000.0001)     ;
(PID.TID 0000.0001) bottomDragLinear = /* linear bottom-drag coefficient ( m/s ) */
(PID.TID 0000.0001)                 0.000000000000000E+00
(PID.TID 0000.0001)     ;
(PID.TID 0000.0001) bottomDragQuadratic = /* quadratic bottom-drag coefficient (-) */
(PID.TID 0000.0001)                 0.000000000000000E+00
(PID.TID 0000.0001)     ;
(PID.TID 0000.0001) diffKhT =   /* Laplacian diffusion of heat laterally ( m^2/s ) */
(PID.TID 0000.0001)                 0.000000000000000E+00
(PID.TID 0000.0001)     ;
(PID.TID 0000.0001) diffK4T =   /* Biharmonic diffusion of heat laterally ( m^4/s ) */
(PID.TID 0000.0001)                 0.000000000000000E+00
(PID.TID 0000.0001)     ;
(PID.TID 0000.0001) diffKhS =   /* Laplacian diffusion of salt laterally ( m^2/s ) */
(PID.TID 0000.0001)                 0.000000000000000E+00
(PID.TID 0000.0001)     ;
(PID.TID 0000.0001) diffK4S =   /* Biharmonic diffusion of salt laterally ( m^4/s ) */
(PID.TID 0000.0001)                 0.000000000000000E+00
(PID.TID 0000.0001)     ;
(PID.TID 0000.0001) diffKrNrT = /* vertical profile of vertical diffusion of Temp ( m^2/s )*/
(PID.TID 0000.0001)    15 @  3.000000000000000E-05              /* K =  1: 15 */
(PID.TID 0000.0001)     ;
(PID.TID 0000.0001) diffKrNrS = /* vertical profile of vertical diffusion of Salt ( m^2/s )*/
(PID.TID 0000.0001)    15 @  3.000000000000000E-05              /* K =  1: 15 */
(PID.TID 0000.0001)     ;
(PID.TID 0000.0001) diffKrBL79surf = /* Surface diffusion for Bryan and Lewis 79 ( m^2/s ) */
(PID.TID 0000.0001)                 0.000000000000000E+00
(PID.TID 0000.0001)     ;
(PID.TID 0000.0001) diffKrBL79deep = /* Deep diffusion for Bryan and Lewis 1979 ( m^2/s ) */
(PID.TID 0000.0001)                 0.000000000000000E+00
(PID.TID 0000.0001)     ;
(PID.TID 0000.0001) diffKrBL79scl = /* Depth scale for Bryan and Lewis 1979 ( m ) */
(PID.TID 0000.0001)                 2.000000000000000E+02
(PID.TID 0000.0001)     ;
(PID.TID 0000.0001) diffKrBL79Ho = /* Turning depth for Bryan and Lewis 1979 ( m ) */
(PID.TID 0000.0001)                -2.000000000000000E+03
(PID.TID 0000.0001)     ;
(PID.TID 0000.0001) ivdc_kappa = /* Implicit Vertical Diffusivity for Convection ( m^2/s) */
(PID.TID 0000.0001)                 1.000000000000000E+01
(PID.TID 0000.0001)     ;
(PID.TID 0000.0001) hMixCriteria=  /* Criteria for mixed-layer diagnostic */
(PID.TID 0000.0001)                -8.000000000000000E-01
(PID.TID 0000.0001)     ;
(PID.TID 0000.0001) dRhoSmall =  /* Parameter for mixed-layer diagnostic */
(PID.TID 0000.0001)                 1.000000000000000E-06
(PID.TID 0000.0001)     ;
(PID.TID 0000.0001) hMixSmooth=  /* Smoothing parameter for mixed-layer diagnostic */
(PID.TID 0000.0001)                 0.000000000000000E+00
(PID.TID 0000.0001)     ;
(PID.TID 0000.0001) eosType =  /* Type of Equation of State */
(PID.TID 0000.0001)               'JMD95Z'
(PID.TID 0000.0001)     ;
(PID.TID 0000.0001) tAlpha =   /* Linear EOS thermal expansion coefficient ( 1/oC ) */
(PID.TID 0000.0001)                 1.234567000000000E+05
(PID.TID 0000.0001)     ;
(PID.TID 0000.0001) sBeta =   /* Linear EOS haline contraction coefficient ( 1/psu ) */
(PID.TID 0000.0001)                 1.234567000000000E+05
(PID.TID 0000.0001)     ;
(PID.TID 0000.0001) rhonil =   /* Reference density ( kg/m^3 ) */
(PID.TID 0000.0001)                 1.035000000000000E+03
(PID.TID 0000.0001)     ;
(PID.TID 0000.0001) rhoConst =   /* Reference density ( kg/m^3 ) */
(PID.TID 0000.0001)                 1.035000000000000E+03
(PID.TID 0000.0001)     ;
(PID.TID 0000.0001) rhoFacC = /* normalized Reference density @ cell-Center (-) */
(PID.TID 0000.0001)    15 @  1.000000000000000E+00              /* K =  1: 15 */
(PID.TID 0000.0001)     ;
(PID.TID 0000.0001) rhoFacF = /* normalized Reference density @ W-Interface (-) */
(PID.TID 0000.0001)    16 @  1.000000000000000E+00              /* K =  1: 16 */
(PID.TID 0000.0001)     ;
(PID.TID 0000.0001) rhoConstFresh =   /* Reference density ( kg/m^3 ) */
(PID.TID 0000.0001)                 1.000000000000000E+03
(PID.TID 0000.0001)     ;
(PID.TID 0000.0001) gravity =   /* Gravitational acceleration ( m/s^2 ) */
(PID.TID 0000.0001)                 9.810000000000000E+00
(PID.TID 0000.0001)     ;
(PID.TID 0000.0001) gBaro =   /* Barotropic gravity ( m/s^2 ) */
(PID.TID 0000.0001)                 9.810000000000000E+00
(PID.TID 0000.0001)     ;
(PID.TID 0000.0001) rotationPeriod =   /* Rotation Period ( s ) */
(PID.TID 0000.0001)                 8.640000000000000E+04
(PID.TID 0000.0001)     ;
(PID.TID 0000.0001) omega =   /* Angular velocity ( rad/s ) */
(PID.TID 0000.0001)                 7.272205216643040E-05
(PID.TID 0000.0001)     ;
(PID.TID 0000.0001) f0 =   /* Reference coriolis parameter ( 1/s ) */
(PID.TID 0000.0001)                 1.000000000000000E-04
(PID.TID 0000.0001)     ;
(PID.TID 0000.0001) beta =   /* Beta ( 1/(m.s) ) */
(PID.TID 0000.0001)                 9.999999999999999E-12
(PID.TID 0000.0001)     ;
(PID.TID 0000.0001) rigidLid =   /* Rigid lid on/off flag */
(PID.TID 0000.0001)                   F
(PID.TID 0000.0001)     ;
(PID.TID 0000.0001) implicitFreeSurface =   /* Implicit free surface on/off flag */
(PID.TID 0000.0001)                   T
(PID.TID 0000.0001)     ;
(PID.TID 0000.0001) freeSurfFac =   /* Implicit free surface factor */
(PID.TID 0000.0001)                 1.000000000000000E+00
(PID.TID 0000.0001)     ;
(PID.TID 0000.0001) implicSurfPress =  /* Surface Pressure implicit factor (0-1)*/
(PID.TID 0000.0001)                 1.000000000000000E+00
(PID.TID 0000.0001)     ;
(PID.TID 0000.0001) implicDiv2Dflow =  /* Barot. Flow Div. implicit factor (0-1)*/
(PID.TID 0000.0001)                 1.000000000000000E+00
(PID.TID 0000.0001)     ;
(PID.TID 0000.0001) exactConserv =  /* Exact Volume Conservation on/off flag*/
(PID.TID 0000.0001)                   T
(PID.TID 0000.0001)     ;
(PID.TID 0000.0001) linFSConserveTr = /* Tracer correction for Lin Free Surface on/off flag*/
(PID.TID 0000.0001)                   F
(PID.TID 0000.0001)     ;
(PID.TID 0000.0001) uniformLin_PhiSurf = /* use uniform Bo_surf on/off flag*/
(PID.TID 0000.0001)                   T
(PID.TID 0000.0001)     ;
(PID.TID 0000.0001) hFacMin =   /* minimum partial cell factor (hFac) */
(PID.TID 0000.0001)                 1.000000000000000E-01
(PID.TID 0000.0001)     ;
(PID.TID 0000.0001) hFacMinDr = /* minimum partial cell thickness ( m) */
(PID.TID 0000.0001)                 1.000000000000000E-01
(PID.TID 0000.0001)     ;
(PID.TID 0000.0001) nonlinFreeSurf =  /* Non-linear Free Surf. options (-1,0,1,2,3)*/
(PID.TID 0000.0001)                       2
(PID.TID 0000.0001)     ;
(PID.TID 0000.0001)      -1,0= Off ; 1,2,3= On, 2=+rescale gU,gV, 3=+update cg2d solv.
(PID.TID 0000.0001) hFacInf =   /* lower threshold for hFac (nonlinFreeSurf only)*/
(PID.TID 0000.0001)                 2.000000000000000E-01
(PID.TID 0000.0001)     ;
(PID.TID 0000.0001) hFacSup =   /* upper threshold for hFac (nonlinFreeSurf only)*/
(PID.TID 0000.0001)                 2.000000000000000E+00
(PID.TID 0000.0001)     ;
(PID.TID 0000.0001) select_rStar = /* r* Vertical coord. options (=0 r coord.; >0 uses r*)*/
(PID.TID 0000.0001)                       2
(PID.TID 0000.0001)     ;
(PID.TID 0000.0001) selectAddFluid = /* option for mass source/sink of fluid (=0: off) */
(PID.TID 0000.0001)                       0
(PID.TID 0000.0001)     ;
(PID.TID 0000.0001) useRealFreshWaterFlux = /* Real Fresh Water Flux on/off flag*/
(PID.TID 0000.0001)                   T
(PID.TID 0000.0001)     ;
(PID.TID 0000.0001) temp_EvPrRn = /* Temp. of Evap/Prec/R (UNSET=use local T)(oC)*/
(PID.TID 0000.0001)                 1.234567000000000E+05
(PID.TID 0000.0001)     ;
(PID.TID 0000.0001) salt_EvPrRn = /* Salin. of Evap/Prec/R (UNSET=use local S)(psu)*/
(PID.TID 0000.0001)                 0.000000000000000E+00
(PID.TID 0000.0001)     ;
(PID.TID 0000.0001) temp_addMass = /* Temp. of addMass array (UNSET=use local T)(oC)*/
(PID.TID 0000.0001)                 1.234567000000000E+05
(PID.TID 0000.0001)     ;
(PID.TID 0000.0001) salt_addMass = /* Salin. of addMass array (UNSET=use local S)(psu)*/
(PID.TID 0000.0001)                 0.000000000000000E+00
(PID.TID 0000.0001)     ;
(PID.TID 0000.0001) use3Dsolver = /* use 3-D pressure solver on/off flag */
(PID.TID 0000.0001)                   F
(PID.TID 0000.0001)     ;
(PID.TID 0000.0001) nonHydrostatic =  /* Non-Hydrostatic on/off flag */
(PID.TID 0000.0001)                   F
(PID.TID 0000.0001)     ;
(PID.TID 0000.0001) nh_Am2 = /* Non-Hydrostatic terms scaling factor */
(PID.TID 0000.0001)                 1.000000000000000E+00
(PID.TID 0000.0001)     ;
(PID.TID 0000.0001) implicitNHPress = /* Non-Hyd Pressure implicit factor (0-1)*/
(PID.TID 0000.0001)                 1.000000000000000E+00
(PID.TID 0000.0001)     ;
(PID.TID 0000.0001) selectNHfreeSurf = /* Non-Hyd (free-)Surface option */
(PID.TID 0000.0001)                       0
(PID.TID 0000.0001)     ;
(PID.TID 0000.0001) quasiHydrostatic = /* Quasi-Hydrostatic on/off flag */
(PID.TID 0000.0001)                   F
(PID.TID 0000.0001)     ;
(PID.TID 0000.0001) momStepping =  /* Momentum equation on/off flag */
(PID.TID 0000.0001)                   T
(PID.TID 0000.0001)     ;
(PID.TID 0000.0001) vectorInvariantMomentum= /* Vector-Invariant Momentum on/off */
(PID.TID 0000.0001)                   T
(PID.TID 0000.0001)     ;
(PID.TID 0000.0001) momAdvection =  /* Momentum advection on/off flag */
(PID.TID 0000.0001)                   T
(PID.TID 0000.0001)     ;
(PID.TID 0000.0001) momViscosity =  /* Momentum viscosity on/off flag */
(PID.TID 0000.0001)                   T
(PID.TID 0000.0001)     ;
(PID.TID 0000.0001) momImplVertAdv= /* Momentum implicit vert. advection on/off*/
(PID.TID 0000.0001)                   F
(PID.TID 0000.0001)     ;
(PID.TID 0000.0001) implicitViscosity = /* Implicit viscosity on/off flag */
(PID.TID 0000.0001)                   F
(PID.TID 0000.0001)     ;
(PID.TID 0000.0001) metricTerms =  /* metric-Terms on/off flag */
(PID.TID 0000.0001)                   F
(PID.TID 0000.0001)     ;
(PID.TID 0000.0001) useNHMTerms = /* Non-Hydrostatic Metric-Terms on/off */
(PID.TID 0000.0001)                   F
(PID.TID 0000.0001)     ;
(PID.TID 0000.0001) useConstantF =  /* use Constant f0 Coriolis flag */
(PID.TID 0000.0001)                   F
(PID.TID 0000.0001)     ;
(PID.TID 0000.0001) useBetaPlaneF = /* use Beta-Plane Coriolis flag */
(PID.TID 0000.0001)                   F
(PID.TID 0000.0001)     ;
(PID.TID 0000.0001) useSphereF  =   /* use Spherical Coriolis flag */
(PID.TID 0000.0001)                   T
(PID.TID 0000.0001)     ;
(PID.TID 0000.0001) use3dCoriolis = /* 3-D Coriolis on/off flag */
(PID.TID 0000.0001)                   F
(PID.TID 0000.0001)     ;
(PID.TID 0000.0001) useCoriolis =  /* Coriolis on/off flag */
(PID.TID 0000.0001)                   T
(PID.TID 0000.0001)     ;
(PID.TID 0000.0001) useCDscheme =  /* CD scheme on/off flag */
(PID.TID 0000.0001)                   F
(PID.TID 0000.0001)     ;
(PID.TID 0000.0001) useJamartWetPoints= /* Coriolis WetPoints method flag */
(PID.TID 0000.0001)                   F
(PID.TID 0000.0001)     ;
(PID.TID 0000.0001) useJamartMomAdv= /* V.I. Non-linear terms Jamart flag */
(PID.TID 0000.0001)                   F
(PID.TID 0000.0001)     ;
(PID.TID 0000.0001) useAbsVorticity= /* Work with f+zeta in Coriolis */
(PID.TID 0000.0001)                   F
(PID.TID 0000.0001)     ;
(PID.TID 0000.0001) selectVortScheme= /* Scheme selector for Vorticity-Term */
(PID.TID 0000.0001)                       1
(PID.TID 0000.0001)    = 0 : enstrophy (Shallow-Water Eq.) conserving scheme by Sadourny, JAS 75
(PID.TID 0000.0001)    = 1 : same as 0 with modified hFac
(PID.TID 0000.0001)    = 2 : energy conserving scheme (used by Sadourny in JAS 75 paper)
(PID.TID 0000.0001)    = 3 : energy (general) and enstrophy (2D, nonDiv.) conserving scheme
(PID.TID 0000.0001)          from Sadourny (Burridge & Haseler, ECMWF Rep.4, 1977)
(PID.TID 0000.0001)     ;
(PID.TID 0000.0001) upwindVorticity= /* Upwind bias vorticity flag */
(PID.TID 0000.0001)                   F
(PID.TID 0000.0001)     ;
(PID.TID 0000.0001) highOrderVorticity= /* High order interp. of vort. flag */
(PID.TID 0000.0001)                   F
(PID.TID 0000.0001)     ;
(PID.TID 0000.0001) upwindShear= /* Upwind vertical Shear advection flag */
(PID.TID 0000.0001)                   F
(PID.TID 0000.0001)     ;
(PID.TID 0000.0001) selectKEscheme= /* Kinetic Energy scheme selector */
(PID.TID 0000.0001)                       0
(PID.TID 0000.0001)     ;
(PID.TID 0000.0001) momForcing =  /* Momentum forcing on/off flag */
(PID.TID 0000.0001)                   T
(PID.TID 0000.0001)     ;
(PID.TID 0000.0001) momPressureForcing =  /* Momentum pressure term on/off flag */
(PID.TID 0000.0001)                   T
(PID.TID 0000.0001)     ;
(PID.TID 0000.0001) implicitIntGravWave= /* Implicit Internal Gravity Wave flag */
(PID.TID 0000.0001)                   F
(PID.TID 0000.0001)     ;
(PID.TID 0000.0001) staggerTimeStep =   /* Stagger time stepping on/off flag */
(PID.TID 0000.0001)                   T
(PID.TID 0000.0001)     ;
(PID.TID 0000.0001) multiDimAdvection =   /* enable/disable Multi-Dim Advection */
(PID.TID 0000.0001)                   T
(PID.TID 0000.0001)     ;
(PID.TID 0000.0001) useMultiDimAdvec =   /* Multi-Dim Advection is/is-not used */
(PID.TID 0000.0001)                   T
(PID.TID 0000.0001)     ;
(PID.TID 0000.0001) implicitDiffusion = /* Implicit Diffusion on/off flag */
(PID.TID 0000.0001)                   T
(PID.TID 0000.0001)     ;
(PID.TID 0000.0001) tempStepping =  /* Temperature equation on/off flag */
(PID.TID 0000.0001)                   T
(PID.TID 0000.0001)     ;
(PID.TID 0000.0001) tempAdvection=  /* Temperature advection on/off flag */
(PID.TID 0000.0001)                   T
(PID.TID 0000.0001)     ;
(PID.TID 0000.0001) tempImplVertAdv = /* Temp. implicit vert. advection on/off */
(PID.TID 0000.0001)                   F
(PID.TID 0000.0001)     ;
(PID.TID 0000.0001) tempForcing  =  /* Temperature forcing on/off flag */
(PID.TID 0000.0001)                   T
(PID.TID 0000.0001)     ;
(PID.TID 0000.0001) tempIsActiveTr = /* Temp. is a dynamically Active Tracer */
(PID.TID 0000.0001)                   T
(PID.TID 0000.0001)     ;
(PID.TID 0000.0001) saltStepping =  /* Salinity equation on/off flag */
(PID.TID 0000.0001)                   T
(PID.TID 0000.0001)     ;
(PID.TID 0000.0001) saltAdvection=  /* Salinity advection on/off flag */
(PID.TID 0000.0001)                   T
(PID.TID 0000.0001)     ;
(PID.TID 0000.0001) saltImplVertAdv = /* Sali. implicit vert. advection on/off */
(PID.TID 0000.0001)                   F
(PID.TID 0000.0001)     ;
(PID.TID 0000.0001) saltForcing  =  /* Salinity forcing on/off flag */
(PID.TID 0000.0001)                   T
(PID.TID 0000.0001)     ;
(PID.TID 0000.0001) saltIsActiveTr = /* Salt  is a dynamically Active Tracer */
(PID.TID 0000.0001)                   T
(PID.TID 0000.0001)     ;
(PID.TID 0000.0001)  readBinaryPrec = /* Precision used for reading binary files */
(PID.TID 0000.0001)                      64
(PID.TID 0000.0001)     ;
(PID.TID 0000.0001) writeBinaryPrec = /* Precision used for writing binary files */
(PID.TID 0000.0001)                      32
(PID.TID 0000.0001)     ;
(PID.TID 0000.0001)  globalFiles = /* write "global" (=not per tile) files */
(PID.TID 0000.0001)                   F
(PID.TID 0000.0001)     ;
(PID.TID 0000.0001)  useSingleCpuIO = /* only master MPI process does I/O */
(PID.TID 0000.0001)                   F
(PID.TID 0000.0001)     ;
(PID.TID 0000.0001)  debugMode  =  /* Debug Mode on/off flag */
(PID.TID 0000.0001)                   F
(PID.TID 0000.0001)     ;
(PID.TID 0000.0001)    debLevA  =  /* 1rst level of debugging */
(PID.TID 0000.0001)                       1
(PID.TID 0000.0001)     ;
(PID.TID 0000.0001)    debLevB  =  /* 2nd  level of debugging */
(PID.TID 0000.0001)                       2
(PID.TID 0000.0001)     ;
(PID.TID 0000.0001)  debugLevel =  /* select debugging level */
(PID.TID 0000.0001)                       1
(PID.TID 0000.0001)     ;
(PID.TID 0000.0001) //
(PID.TID 0000.0001) // Elliptic solver(s) paramters ( PARM02 in namelist )
(PID.TID 0000.0001) //
(PID.TID 0000.0001) cg2dMaxIters =   /* Upper limit on 2d con. grad iterations  */
(PID.TID 0000.0001)                     200
(PID.TID 0000.0001)     ;
(PID.TID 0000.0001) cg2dChkResFreq =   /* 2d con. grad convergence test frequency */
(PID.TID 0000.0001)                       1
(PID.TID 0000.0001)     ;
(PID.TID 0000.0001) cg2dTargetResidual =   /* 2d con. grad target residual  */
(PID.TID 0000.0001)                 1.000000000000000E-07
(PID.TID 0000.0001)     ;
(PID.TID 0000.0001) cg2dTargetResWunit =   /* CG2d target residual [W units] */
(PID.TID 0000.0001)                 1.000000000000000E-14
(PID.TID 0000.0001)     ;
(PID.TID 0000.0001) cg2dPreCondFreq =   /* Freq. for updating cg2d preconditioner */
(PID.TID 0000.0001)                       1
(PID.TID 0000.0001)     ;
(PID.TID 0000.0001) useSRCGSolver =  /* use single reduction CG solver(s) */
(PID.TID 0000.0001)                   F
(PID.TID 0000.0001)     ;
(PID.TID 0000.0001) //
(PID.TID 0000.0001) // Time stepping paramters ( PARM03 in namelist )
(PID.TID 0000.0001) //
(PID.TID 0000.0001) deltaTmom =   /* Momentum equation timestep ( s ) */
(PID.TID 0000.0001)                 1.200000000000000E+03
(PID.TID 0000.0001)     ;
(PID.TID 0000.0001) deltaTfreesurf = /* FreeSurface equation timestep ( s ) */
(PID.TID 0000.0001)                 8.640000000000000E+04
(PID.TID 0000.0001)     ;
(PID.TID 0000.0001) dTtracerLev =  /* Tracer equation timestep ( s ) */
(PID.TID 0000.0001)    15 @  8.640000000000000E+04              /* K =  1: 15 */
(PID.TID 0000.0001)     ;
(PID.TID 0000.0001) deltaTClock  =   /* Model clock timestep ( s ) */
(PID.TID 0000.0001)                 8.640000000000000E+04
(PID.TID 0000.0001)     ;
(PID.TID 0000.0001) cAdjFreq =   /* Convective adjustment interval ( s ) */
(PID.TID 0000.0001)                 0.000000000000000E+00
(PID.TID 0000.0001)     ;
(PID.TID 0000.0001) momForcingOutAB = /* =1: take Momentum Forcing out of Adams-Bash. stepping */
(PID.TID 0000.0001)                       0
(PID.TID 0000.0001)     ;
(PID.TID 0000.0001) tracForcingOutAB = /* =1: take T,S,pTr Forcing out of Adams-Bash. stepping */
(PID.TID 0000.0001)                       1
(PID.TID 0000.0001)     ;
(PID.TID 0000.0001) momDissip_In_AB = /* put Dissipation Tendency in Adams-Bash. stepping */
(PID.TID 0000.0001)                   T
(PID.TID 0000.0001)     ;
(PID.TID 0000.0001) doAB_onGtGs = /* apply AB on Tendencies (rather than on T,S)*/
(PID.TID 0000.0001)                   T
(PID.TID 0000.0001)     ;
(PID.TID 0000.0001) abEps =   /* Adams-Bashforth-2 stabilizing weight */
(PID.TID 0000.0001)                 1.000000000000000E-01
(PID.TID 0000.0001)     ;
(PID.TID 0000.0001) alph_AB =   /* Adams-Bashforth-3 primary factor */
(PID.TID 0000.0001)                 5.000000000000000E-01
(PID.TID 0000.0001)     ;
(PID.TID 0000.0001) beta_AB =   /* Adams-Bashforth-3 secondary factor */
(PID.TID 0000.0001)                 4.166666666666667E-01
(PID.TID 0000.0001)     ;
(PID.TID 0000.0001) startFromPickupAB2= /* start from AB-2 pickup */
(PID.TID 0000.0001)                   F
(PID.TID 0000.0001)     ;
(PID.TID 0000.0001) pickupStrictlyMatch= /* stop if pickup do not strictly match */
(PID.TID 0000.0001)                   F
(PID.TID 0000.0001)     ;
(PID.TID 0000.0001) nIter0 =   /* Run starting timestep number  */
(PID.TID 0000.0001)                   72000
(PID.TID 0000.0001)     ;
(PID.TID 0000.0001) nTimeSteps =   /* Number of timesteps */
(PID.TID 0000.0001)                      20
(PID.TID 0000.0001)     ;
(PID.TID 0000.0001) baseTime =   /* Model base time ( s ). */
(PID.TID 0000.0001)                 0.000000000000000E+00
(PID.TID 0000.0001)     ;
(PID.TID 0000.0001) startTime =   /* Run start time ( s ). */
(PID.TID 0000.0001)                 6.220800000000000E+09
(PID.TID 0000.0001)     ;
(PID.TID 0000.0001) endTime =   /* Integration ending time ( s ). */
(PID.TID 0000.0001)                 6.222528000000000E+09
(PID.TID 0000.0001)     ;
(PID.TID 0000.0001) pChkPtFreq =   /* Permanent restart/checkpoint file interval ( s ). */
(PID.TID 0000.0001)                 1.728000000000000E+06
(PID.TID 0000.0001)     ;
(PID.TID 0000.0001) chkPtFreq =   /* Rolling restart/checkpoint file interval ( s ). */
(PID.TID 0000.0001)                 0.000000000000000E+00
(PID.TID 0000.0001)     ;
(PID.TID 0000.0001) pickup_write_mdsio =   /* Model IO flag. */
(PID.TID 0000.0001)                   T
(PID.TID 0000.0001)     ;
(PID.TID 0000.0001) pickup_read_mdsio =   /* Model IO flag. */
(PID.TID 0000.0001)                   T
(PID.TID 0000.0001)     ;
(PID.TID 0000.0001) pickup_write_immed =   /* Model IO flag. */
(PID.TID 0000.0001)                   F
(PID.TID 0000.0001)     ;
(PID.TID 0000.0001) writePickupAtEnd =   /* Model IO flag. */
(PID.TID 0000.0001)                   T
(PID.TID 0000.0001)     ;
(PID.TID 0000.0001) dumpFreq =   /* Model state write out interval ( s ). */
(PID.TID 0000.0001)                 8.640000000000000E+04
(PID.TID 0000.0001)     ;
(PID.TID 0000.0001) dumpInitAndLast= /* write out Initial & Last iter. model state */
(PID.TID 0000.0001)                   T
(PID.TID 0000.0001)     ;
(PID.TID 0000.0001) snapshot_mdsio =   /* Model IO flag. */
(PID.TID 0000.0001)                   T
(PID.TID 0000.0001)     ;
(PID.TID 0000.0001) monitorFreq =   /* Monitor output interval ( s ). */
(PID.TID 0000.0001)                 1.000000000000000E+00
(PID.TID 0000.0001)     ;
(PID.TID 0000.0001) monitorSelect = /* select group of variables to monitor */
(PID.TID 0000.0001)                       3
(PID.TID 0000.0001)     ;
(PID.TID 0000.0001) monitor_stdio =   /* Model IO flag. */
(PID.TID 0000.0001)                   T
(PID.TID 0000.0001)     ;
(PID.TID 0000.0001) externForcingPeriod =   /* forcing period (s) */
(PID.TID 0000.0001)                 2.592000000000000E+06
(PID.TID 0000.0001)     ;
(PID.TID 0000.0001) externForcingCycle =   /* period of the cyle (s). */
(PID.TID 0000.0001)                 3.110400000000000E+07
(PID.TID 0000.0001)     ;
(PID.TID 0000.0001) tauThetaClimRelax =   /* relaxation time scale (s) */
(PID.TID 0000.0001)                 5.184000000000000E+06
(PID.TID 0000.0001)     ;
(PID.TID 0000.0001) tauSaltClimRelax =   /* relaxation time scale (s) */
(PID.TID 0000.0001)                 6.220800000000000E+07
(PID.TID 0000.0001)     ;
(PID.TID 0000.0001) latBandClimRelax =   /* max. Lat. where relaxation */
(PID.TID 0000.0001)                 1.800000000000000E+02
(PID.TID 0000.0001)     ;
(PID.TID 0000.0001) //
(PID.TID 0000.0001) // Gridding paramters ( PARM04 in namelist )
(PID.TID 0000.0001) //
(PID.TID 0000.0001) usingCartesianGrid = /* Cartesian coordinates flag ( True/False ) */
(PID.TID 0000.0001)                   F
(PID.TID 0000.0001)     ;
(PID.TID 0000.0001) usingCylindricalGrid = /* Cylindrical coordinates flag ( True/False ) */
(PID.TID 0000.0001)                   F
(PID.TID 0000.0001)     ;
(PID.TID 0000.0001) usingSphericalPolarGrid = /* Spherical coordinates flag ( True/False ) */
(PID.TID 0000.0001)                   F
(PID.TID 0000.0001)     ;
(PID.TID 0000.0001) usingCurvilinearGrid = /* Curvilinear coordinates flag ( True/False ) */
(PID.TID 0000.0001)                   T
(PID.TID 0000.0001)     ;
(PID.TID 0000.0001) selectSigmaCoord = /* Hybrid-Sigma Vert. Coordinate option */
(PID.TID 0000.0001)                       0
(PID.TID 0000.0001)     ;
(PID.TID 0000.0001) Ro_SeaLevel = /* r(1) ( units of r ==  m ) */
(PID.TID 0000.0001)                 0.000000000000000E+00
(PID.TID 0000.0001)     ;
(PID.TID 0000.0001) rSigmaBnd = /* r/sigma transition ( units of r ==  m ) */
(PID.TID 0000.0001)                 1.234567000000000E+05
(PID.TID 0000.0001)     ;
(PID.TID 0000.0001) rkSign =   /* index orientation relative to vertical coordinate */
(PID.TID 0000.0001)                -1.000000000000000E+00
(PID.TID 0000.0001)     ;
(PID.TID 0000.0001) gravitySign = /* gravity orientation relative to vertical coordinate */
(PID.TID 0000.0001)                -1.000000000000000E+00
(PID.TID 0000.0001)     ;
(PID.TID 0000.0001) mass2rUnit = /* convert mass per unit area [kg/m2] to r-units [m] */
(PID.TID 0000.0001)                 9.661835748792270E-04
(PID.TID 0000.0001)     ;
(PID.TID 0000.0001) rUnit2mass = /* convert r-units [m] to mass per unit area [kg/m2] */
(PID.TID 0000.0001)                 1.035000000000000E+03
(PID.TID 0000.0001)     ;
(PID.TID 0000.0001) drC =   /* C spacing ( units of r ) */
(PID.TID 0000.0001)                 2.500000000000000E+01,      /* K =  1 */
(PID.TID 0000.0001)                 6.000000000000000E+01,      /* K =  2 */
(PID.TID 0000.0001)                 8.500000000000000E+01,      /* K =  3 */
(PID.TID 0000.0001)                 1.200000000000000E+02,      /* K =  4 */
(PID.TID 0000.0001)                 1.650000000000000E+02,      /* K =  5 */
(PID.TID 0000.0001)                 2.150000000000000E+02,      /* K =  6 */
(PID.TID 0000.0001)                 2.650000000000000E+02,      /* K =  7 */
(PID.TID 0000.0001)                 3.150000000000000E+02,      /* K =  8 */
(PID.TID 0000.0001)                 3.650000000000000E+02,      /* K =  9 */
(PID.TID 0000.0001)                 4.150000000000000E+02,      /* K = 10 */
(PID.TID 0000.0001)                 4.650000000000000E+02,      /* K = 11 */
(PID.TID 0000.0001)                 5.150000000000000E+02,      /* K = 12 */
(PID.TID 0000.0001)                 5.650000000000000E+02,      /* K = 13 */
(PID.TID 0000.0001)                 6.150000000000000E+02,      /* K = 14 */
(PID.TID 0000.0001)                 6.650000000000000E+02       /* K = 15 */
(PID.TID 0000.0001)     ;
(PID.TID 0000.0001) drF =   /* W spacing ( units of r ) */
(PID.TID 0000.0001)                 5.000000000000000E+01,      /* K =  1 */
(PID.TID 0000.0001)                 7.000000000000000E+01,      /* K =  2 */
(PID.TID 0000.0001)                 1.000000000000000E+02,      /* K =  3 */
(PID.TID 0000.0001)                 1.400000000000000E+02,      /* K =  4 */
(PID.TID 0000.0001)                 1.900000000000000E+02,      /* K =  5 */
(PID.TID 0000.0001)                 2.400000000000000E+02,      /* K =  6 */
(PID.TID 0000.0001)                 2.900000000000000E+02,      /* K =  7 */
(PID.TID 0000.0001)                 3.400000000000000E+02,      /* K =  8 */
(PID.TID 0000.0001)                 3.900000000000000E+02,      /* K =  9 */
(PID.TID 0000.0001)                 4.400000000000000E+02,      /* K = 10 */
(PID.TID 0000.0001)                 4.900000000000000E+02,      /* K = 11 */
(PID.TID 0000.0001)                 5.400000000000000E+02,      /* K = 12 */
(PID.TID 0000.0001)                 5.900000000000000E+02,      /* K = 13 */
(PID.TID 0000.0001)                 6.400000000000000E+02,      /* K = 14 */
(PID.TID 0000.0001)                 6.900000000000000E+02       /* K = 15 */
(PID.TID 0000.0001)     ;
(PID.TID 0000.0001) xgOrigin = /* X-axis origin of West  edge (cartesian: m, lat-lon: deg.) */
(PID.TID 0000.0001)                 0.000000000000000E+00
(PID.TID 0000.0001)     ;
(PID.TID 0000.0001) ygOrigin = /* Y-axis origin of South edge (cartesian: m, lat-lon: deg.) */
(PID.TID 0000.0001)                 0.000000000000000E+00
(PID.TID 0000.0001)     ;
(PID.TID 0000.0001) rSphere =  /* Radius ( ignored - cartesian, m - spherical ) */
(PID.TID 0000.0001)                 6.370000000000000E+06
(PID.TID 0000.0001)     ;
(PID.TID 0000.0001) deepAtmosphere = /* Deep/Shallow Atmosphere flag (True/False) */
(PID.TID 0000.0001)                   F
(PID.TID 0000.0001)     ;
(PID.TID 0000.0001) xC =  /* xC(:,1,:,1) : P-point X coord ( deg. or m if cartesian) */
(PID.TID 0000.0001)                -4.439521994760536E+01,      /* I =  1 */
(PID.TID 0000.0001)                -4.295641272275883E+01,      /* I =  2 */
(PID.TID 0000.0001)                -4.122055553388957E+01,      /* I =  3 */
(PID.TID 0000.0001)      . . .
(PID.TID 0000.0001)                 8.070819219728060E+01,      /* I = 46 */
(PID.TID 0000.0001)                 8.439652466417766E+01,      /* I = 47 */
(PID.TID 0000.0001)                 8.812739148696656E+01,      /* I = 48 */
(PID.TID 0000.0001)                 9.187260851303344E+01,      /* I = 49 */
(PID.TID 0000.0001)                 9.560347533582234E+01,      /* I = 50 */
(PID.TID 0000.0001)                 9.929180780271940E+01,      /* I = 51 */
(PID.TID 0000.0001)      . . .
(PID.TID 0000.0001)                 1.321863035748696E+02,      /* I = 94 */
(PID.TID 0000.0001)                 1.337919453120370E+02,      /* I = 95 */
(PID.TID 0000.0001)                 1.350000000000000E+02,      /* I = 96 */
(PID.TID 0000.0001)                 1.356047800523947E+02,      /* I = 97 */
(PID.TID 0000.0001)                 1.358367907661329E+02,      /* I = 98 */
(PID.TID 0000.0001)                 1.359720382181193E+02,      /* I = 99 */
(PID.TID 0000.0001)      . . .
(PID.TID 0000.0001)                -1.336511021209287E+02,      /* I =142 */
(PID.TID 0000.0001)                -1.336469399409420E+02,      /* I =143 */
(PID.TID 0000.0001)                -1.336449032499283E+02,      /* I =144 */
(PID.TID 0000.0001)                -1.336449032499283E+02,      /* I =145 */
(PID.TID 0000.0001)                -1.336469399409420E+02,      /* I =146 */
(PID.TID 0000.0001)                -1.336511021209287E+02,      /* I =147 */
(PID.TID 0000.0001)      . . .
(PID.TID 0000.0001)                 1.378136964251304E+02,      /* I =190 */
(PID.TID 0000.0001)                 1.362080546879630E+02,      /* I =191 */
(PID.TID 0000.0001)                 1.350000000000000E+02       /* I =192 */
(PID.TID 0000.0001)     ;
(PID.TID 0000.0001) yC =  /* yC(1,:,1,:) : P-point Y coord ( deg. or m if cartesian) */
(PID.TID 0000.0001)                -3.497677942598243E+01,      /* J =  1 */
(PID.TID 0000.0001)                -3.374005967394886E+01,      /* J =  2 */
(PID.TID 0000.0001)                -3.220655175667454E+01,      /* J =  3 */
(PID.TID 0000.0001)                -3.045756348838641E+01,      /* J =  4 */
(PID.TID 0000.0001)                -2.853728129852918E+01,      /* J =  5 */
(PID.TID 0000.0001)                -2.647426640173173E+01,      /* J =  6 */
(PID.TID 0000.0001)                -2.428936657094636E+01,      /* J =  7 */
(PID.TID 0000.0001)                -2.199915808312262E+01,      /* J =  8 */
(PID.TID 0000.0001)                -1.961768597440146E+01,      /* J =  9 */
(PID.TID 0000.0001)                -1.715743888281371E+01,      /* J = 10 */
(PID.TID 0000.0001)                -1.462993396899330E+01,      /* J = 11 */
(PID.TID 0000.0001)                -1.204608340464756E+01,      /* J = 12 */
(PID.TID 0000.0001)                -9.416429130284818E+00,      /* J = 13 */
(PID.TID 0000.0001)                -6.751293662992216E+00,      /* J = 14 */
(PID.TID 0000.0001)                -4.060875511835959E+00,      /* J = 15 */
(PID.TID 0000.0001)                -1.355307764409121E+00,      /* J = 16 */
(PID.TID 0000.0001)                 1.355307764409121E+00,      /* J = 17 */
(PID.TID 0000.0001)                 4.060875511835959E+00,      /* J = 18 */
(PID.TID 0000.0001)                 6.751293662992216E+00,      /* J = 19 */
(PID.TID 0000.0001)                 9.416429130284818E+00,      /* J = 20 */
(PID.TID 0000.0001)                 1.204608340464756E+01,      /* J = 21 */
(PID.TID 0000.0001)                 1.462993396899330E+01,      /* J = 22 */
(PID.TID 0000.0001)                 1.715743888281371E+01,      /* J = 23 */
(PID.TID 0000.0001)                 1.961768597440146E+01,      /* J = 24 */
(PID.TID 0000.0001)                 2.199915808312262E+01,      /* J = 25 */
(PID.TID 0000.0001)                 2.428936657094636E+01,      /* J = 26 */
(PID.TID 0000.0001)                 2.647426640173173E+01,      /* J = 27 */
(PID.TID 0000.0001)                 2.853728129852918E+01,      /* J = 28 */
(PID.TID 0000.0001)                 3.045756348838641E+01,      /* J = 29 */
(PID.TID 0000.0001)                 3.220655175667454E+01,      /* J = 30 */
(PID.TID 0000.0001)                 3.374005967394886E+01,      /* J = 31 */
(PID.TID 0000.0001)                 3.497677942598243E+01       /* J = 32 */
(PID.TID 0000.0001)     ;
(PID.TID 0000.0001) rcoord = /* P-point R coordinate (  units of r ) */
(PID.TID 0000.0001)                -2.500000000000000E+01,      /* K =  1 */
(PID.TID 0000.0001)                -8.500000000000000E+01,      /* K =  2 */
(PID.TID 0000.0001)                -1.700000000000000E+02,      /* K =  3 */
(PID.TID 0000.0001)                -2.900000000000000E+02,      /* K =  4 */
(PID.TID 0000.0001)                -4.550000000000000E+02,      /* K =  5 */
(PID.TID 0000.0001)                -6.700000000000000E+02,      /* K =  6 */
(PID.TID 0000.0001)                -9.350000000000000E+02,      /* K =  7 */
(PID.TID 0000.0001)                -1.250000000000000E+03,      /* K =  8 */
(PID.TID 0000.0001)                -1.615000000000000E+03,      /* K =  9 */
(PID.TID 0000.0001)                -2.030000000000000E+03,      /* K = 10 */
(PID.TID 0000.0001)                -2.495000000000000E+03,      /* K = 11 */
(PID.TID 0000.0001)                -3.010000000000000E+03,      /* K = 12 */
(PID.TID 0000.0001)                -3.575000000000000E+03,      /* K = 13 */
(PID.TID 0000.0001)                -4.190000000000000E+03,      /* K = 14 */
(PID.TID 0000.0001)                -4.855000000000000E+03       /* K = 15 */
(PID.TID 0000.0001)     ;
(PID.TID 0000.0001) rF =   /* W-Interf. R coordinate (  units of r ) */
(PID.TID 0000.0001)                 0.000000000000000E+00,      /* K =  1 */
(PID.TID 0000.0001)                -5.000000000000000E+01,      /* K =  2 */
(PID.TID 0000.0001)                -1.200000000000000E+02,      /* K =  3 */
(PID.TID 0000.0001)                -2.200000000000000E+02,      /* K =  4 */
(PID.TID 0000.0001)                -3.600000000000000E+02,      /* K =  5 */
(PID.TID 0000.0001)                -5.500000000000000E+02,      /* K =  6 */
(PID.TID 0000.0001)                -7.900000000000000E+02,      /* K =  7 */
(PID.TID 0000.0001)                -1.080000000000000E+03,      /* K =  8 */
(PID.TID 0000.0001)                -1.420000000000000E+03,      /* K =  9 */
(PID.TID 0000.0001)                -1.810000000000000E+03,      /* K = 10 */
(PID.TID 0000.0001)                -2.250000000000000E+03,      /* K = 11 */
(PID.TID 0000.0001)                -2.740000000000000E+03,      /* K = 12 */
(PID.TID 0000.0001)                -3.280000000000000E+03,      /* K = 13 */
(PID.TID 0000.0001)                -3.870000000000000E+03,      /* K = 14 */
(PID.TID 0000.0001)                -4.510000000000000E+03,      /* K = 15 */
(PID.TID 0000.0001)                -5.200000000000000E+03       /* K = 16 */
(PID.TID 0000.0001)     ;
(PID.TID 0000.0001) deepFacC = /* deep-model grid factor @ cell-Center (-) */
(PID.TID 0000.0001)    15 @  1.000000000000000E+00              /* K =  1: 15 */
(PID.TID 0000.0001)     ;
(PID.TID 0000.0001) deepFacF = /* deep-model grid factor @ W-Interface (-) */
(PID.TID 0000.0001)    16 @  1.000000000000000E+00              /* K =  1: 16 */
(PID.TID 0000.0001)     ;
(PID.TID 0000.0001) rVel2wUnit = /* convert units: rVel -> wSpeed (=1 if z-coord)*/
(PID.TID 0000.0001)    16 @  1.000000000000000E+00              /* K =  1: 16 */
(PID.TID 0000.0001)     ;
(PID.TID 0000.0001) wUnit2rVel = /* convert units: wSpeed -> rVel (=1 if z-coord)*/
(PID.TID 0000.0001)    16 @  1.000000000000000E+00              /* K =  1: 16 */
(PID.TID 0000.0001)     ;
(PID.TID 0000.0001) dBdrRef = /* Vertical gradient of reference boyancy [(m/s/r)^2)] */
(PID.TID 0000.0001)    15 @  0.000000000000000E+00              /* K =  1: 15 */
(PID.TID 0000.0001)     ;
(PID.TID 0000.0001) rotateGrid = /* use rotated grid ( True/False ) */
(PID.TID 0000.0001)                   F
(PID.TID 0000.0001)     ;
(PID.TID 0000.0001) phiEuler = /* Euler angle, rotation about original z-coordinate [rad] */
(PID.TID 0000.0001)                 0.000000000000000E+00
(PID.TID 0000.0001)     ;
(PID.TID 0000.0001) thetaEuler = /* Euler angle, rotation about new x-coordinate [rad] */
(PID.TID 0000.0001)                 0.000000000000000E+00
(PID.TID 0000.0001)     ;
(PID.TID 0000.0001) psiEuler = /* Euler angle, rotation about new z-coordinate [rad] */
(PID.TID 0000.0001)                 0.000000000000000E+00
(PID.TID 0000.0001)     ;
(PID.TID 0000.0001) dxF =  /* dxF(:,1,:,1) ( units: m ) */
(PID.TID 0000.0001)                 1.202082051331828E+05,      /* I =  1 */
(PID.TID 0000.0001)                 1.563594089971120E+05,      /* I =  2 */
(PID.TID 0000.0001)                 1.835530058121492E+05,      /* I =  3 */
(PID.TID 0000.0001)      . . .
(PID.TID 0000.0001)                 2.978501920522794E+05,      /* I = 46 */
(PID.TID 0000.0001)                 3.000967749619962E+05,      /* I = 47 */
(PID.TID 0000.0001)                 3.012190981969055E+05,      /* I = 48 */
(PID.TID 0000.0001)                 3.012190981969055E+05,      /* I = 49 */
(PID.TID 0000.0001)                 3.000967749619962E+05,      /* I = 50 */
(PID.TID 0000.0001)                 2.978501920522794E+05,      /* I = 51 */
(PID.TID 0000.0001)      . . .
(PID.TID 0000.0001)                 1.835530058121492E+05,      /* I = 94 */
(PID.TID 0000.0001)                 1.563594089971120E+05,      /* I = 95 */
(PID.TID 0000.0001)                 1.202082051331828E+05,      /* I = 96 */
(PID.TID 0000.0001)                 1.202082051331828E+05,      /* I = 97 */
(PID.TID 0000.0001)                 1.563594089971120E+05,      /* I = 98 */
(PID.TID 0000.0001)                 1.835530058121492E+05,      /* I = 99 */
(PID.TID 0000.0001)      . . .
(PID.TID 0000.0001)                 2.978501920522794E+05,      /* I =142 */
(PID.TID 0000.0001)                 3.000967749619962E+05,      /* I =143 */
(PID.TID 0000.0001)                 3.012190981969055E+05,      /* I =144 */
(PID.TID 0000.0001)                 3.012190981969055E+05,      /* I =145 */
(PID.TID 0000.0001)                 3.000967749619962E+05,      /* I =146 */
(PID.TID 0000.0001)                 2.978501920522794E+05,      /* I =147 */
(PID.TID 0000.0001)      . . .
(PID.TID 0000.0001)                 1.835530058121492E+05,      /* I =190 */
(PID.TID 0000.0001)                 1.563594089971120E+05,      /* I =191 */
(PID.TID 0000.0001)                 1.202082051331828E+05       /* I =192 */
(PID.TID 0000.0001)     ;
(PID.TID 0000.0001) dxF =  /* dxF(1,:,1,:) ( units: m ) */
(PID.TID 0000.0001)                 1.202082051331828E+05,      /* J =  1 */
(PID.TID 0000.0001)                 1.572908084538706E+05,      /* J =  2 */
(PID.TID 0000.0001)                 1.840412227747703E+05,      /* J =  3 */
(PID.TID 0000.0001)                 2.048868197919576E+05,      /* J =  4 */
(PID.TID 0000.0001)                 2.220405216043041E+05,      /* J =  5 */
(PID.TID 0000.0001)                 2.365892017348392E+05,      /* J =  6 */
(PID.TID 0000.0001)                 2.491250781852558E+05,      /* J =  7 */
(PID.TID 0000.0001)                 2.599949918261881E+05,      /* J =  8 */
(PID.TID 0000.0001)                 2.694110134598581E+05,      /* J =  9 */
(PID.TID 0000.0001)                 2.775055554645015E+05,      /* J = 10 */
(PID.TID 0000.0001)                 2.843615645344775E+05,      /* J = 11 */
(PID.TID 0000.0001)                 2.900303768613599E+05,      /* J = 12 */
(PID.TID 0000.0001)                 2.945429307892709E+05,      /* J = 13 */
(PID.TID 0000.0001)                 2.979171143158405E+05,      /* J = 14 */
(PID.TID 0000.0001)                 3.001626787528886E+05,      /* J = 15 */
(PID.TID 0000.0001)     2 @  3.012844832048790E+05,             /* J = 16: 17 */
(PID.TID 0000.0001)                 3.001626787528886E+05,      /* J = 18 */
(PID.TID 0000.0001)                 2.979171143158405E+05,      /* J = 19 */
(PID.TID 0000.0001)                 2.945429307892709E+05,      /* J = 20 */
(PID.TID 0000.0001)                 2.900303768613599E+05,      /* J = 21 */
(PID.TID 0000.0001)                 2.843615645344775E+05,      /* J = 22 */
(PID.TID 0000.0001)                 2.775055554645015E+05,      /* J = 23 */
(PID.TID 0000.0001)                 2.694110134598581E+05,      /* J = 24 */
(PID.TID 0000.0001)                 2.599949918261881E+05,      /* J = 25 */
(PID.TID 0000.0001)                 2.491250781852558E+05,      /* J = 26 */
(PID.TID 0000.0001)                 2.365892017348392E+05,      /* J = 27 */
(PID.TID 0000.0001)                 2.220405216043041E+05,      /* J = 28 */
(PID.TID 0000.0001)                 2.048868197919576E+05,      /* J = 29 */
(PID.TID 0000.0001)                 1.840412227747703E+05,      /* J = 30 */
(PID.TID 0000.0001)                 1.572908084538706E+05,      /* J = 31 */
(PID.TID 0000.0001)                 1.202082051331828E+05       /* J = 32 */
(PID.TID 0000.0001)     ;
(PID.TID 0000.0001) dyF =  /* dyF(:,1,:,1) ( units: m ) */
(PID.TID 0000.0001)                 1.202082051331828E+05,      /* I =  1 */
(PID.TID 0000.0001)                 1.572908084538706E+05,      /* I =  2 */
(PID.TID 0000.0001)                 1.840412227747703E+05,      /* I =  3 */
(PID.TID 0000.0001)      . . .
(PID.TID 0000.0001)                 2.979171143158405E+05,      /* I = 46 */
(PID.TID 0000.0001)                 3.001626787528886E+05,      /* I = 47 */
(PID.TID 0000.0001)                 3.012844832048790E+05,      /* I = 48 */
(PID.TID 0000.0001)                 3.012844832048790E+05,      /* I = 49 */
(PID.TID 0000.0001)                 3.001626787528886E+05,      /* I = 50 */
(PID.TID 0000.0001)                 2.979171143158405E+05,      /* I = 51 */
(PID.TID 0000.0001)      . . .
(PID.TID 0000.0001)                 1.840412227747703E+05,      /* I = 94 */
(PID.TID 0000.0001)                 1.572908084538706E+05,      /* I = 95 */
(PID.TID 0000.0001)                 1.202082051331828E+05,      /* I = 96 */
(PID.TID 0000.0001)                 1.202082051331828E+05,      /* I = 97 */
(PID.TID 0000.0001)                 1.572908084538706E+05,      /* I = 98 */
(PID.TID 0000.0001)                 1.840412227747703E+05,      /* I = 99 */
(PID.TID 0000.0001)      . . .
(PID.TID 0000.0001)                 2.979171143158405E+05,      /* I =142 */
(PID.TID 0000.0001)                 3.001626787528886E+05,      /* I =143 */
(PID.TID 0000.0001)                 3.012844832048790E+05,      /* I =144 */
(PID.TID 0000.0001)                 3.012844832048790E+05,      /* I =145 */
(PID.TID 0000.0001)                 3.001626787528886E+05,      /* I =146 */
(PID.TID 0000.0001)                 2.979171143158405E+05,      /* I =147 */
(PID.TID 0000.0001)      . . .
(PID.TID 0000.0001)                 1.840412227747703E+05,      /* I =190 */
(PID.TID 0000.0001)                 1.572908084538706E+05,      /* I =191 */
(PID.TID 0000.0001)                 1.202082051331828E+05       /* I =192 */
(PID.TID 0000.0001)     ;
(PID.TID 0000.0001) dyF =  /* dyF(1,:,1,:) ( units: m ) */
(PID.TID 0000.0001)                 1.202082051331828E+05,      /* J =  1 */
(PID.TID 0000.0001)                 1.563594089971120E+05,      /* J =  2 */
(PID.TID 0000.0001)                 1.835530058121492E+05,      /* J =  3 */
(PID.TID 0000.0001)                 2.045883481718707E+05,      /* J =  4 */
(PID.TID 0000.0001)                 2.218350349844185E+05,      /* J =  5 */
(PID.TID 0000.0001)                 2.364352994647058E+05,      /* J =  6 */
(PID.TID 0000.0001)                 2.490022710862746E+05,      /* J =  7 */
(PID.TID 0000.0001)                 2.598919724358304E+05,      /* J =  8 */
(PID.TID 0000.0001)                 2.693210245495156E+05,      /* J =  9 */
(PID.TID 0000.0001)                 2.774243179696503E+05,      /* J = 10 */
(PID.TID 0000.0001)                 2.842862532064524E+05,      /* J = 11 */
(PID.TID 0000.0001)                 2.899590699694043E+05,      /* J = 12 */
(PID.TID 0000.0001)                 2.944742915095688E+05,      /* J = 13 */
(PID.TID 0000.0001)                 2.978501920522794E+05,      /* J = 14 */
(PID.TID 0000.0001)                 3.000967749619962E+05,      /* J = 15 */
(PID.TID 0000.0001)     2 @  3.012190981969055E+05,             /* J = 16: 17 */
(PID.TID 0000.0001)                 3.000967749619962E+05,      /* J = 18 */
(PID.TID 0000.0001)                 2.978501920522794E+05,      /* J = 19 */
(PID.TID 0000.0001)                 2.944742915095688E+05,      /* J = 20 */
(PID.TID 0000.0001)                 2.899590699694043E+05,      /* J = 21 */
(PID.TID 0000.0001)                 2.842862532064524E+05,      /* J = 22 */
(PID.TID 0000.0001)                 2.774243179696503E+05,      /* J = 23 */
(PID.TID 0000.0001)                 2.693210245495156E+05,      /* J = 24 */
(PID.TID 0000.0001)                 2.598919724358304E+05,      /* J = 25 */
(PID.TID 0000.0001)                 2.490022710862746E+05,      /* J = 26 */
(PID.TID 0000.0001)                 2.364352994647058E+05,      /* J = 27 */
(PID.TID 0000.0001)                 2.218350349844185E+05,      /* J = 28 */
(PID.TID 0000.0001)                 2.045883481718707E+05,      /* J = 29 */
(PID.TID 0000.0001)                 1.835530058121492E+05,      /* J = 30 */
(PID.TID 0000.0001)                 1.563594089971120E+05,      /* J = 31 */
(PID.TID 0000.0001)                 1.202082051331828E+05       /* J = 32 */
(PID.TID 0000.0001)     ;
(PID.TID 0000.0001) dxG =  /* dxG(:,1,:,1) ( units: m ) */
(PID.TID 0000.0001)                 1.009837800879055E+05,      /* I =  1 */
(PID.TID 0000.0001)                 1.534505834330338E+05,      /* I =  2 */
(PID.TID 0000.0001)                 1.823321598773926E+05,      /* I =  3 */
(PID.TID 0000.0001)      . . .
(PID.TID 0000.0001)                 2.977867909042096E+05,      /* I = 46 */
(PID.TID 0000.0001)                 3.000380090330854E+05,      /* I = 47 */
(PID.TID 0000.0001)                 3.011625828699101E+05,      /* I = 48 */
(PID.TID 0000.0001)                 3.011625828699101E+05,      /* I = 49 */
(PID.TID 0000.0001)                 3.000380090330854E+05,      /* I = 50 */
(PID.TID 0000.0001)                 2.977867909042096E+05,      /* I = 51 */
(PID.TID 0000.0001)      . . .
(PID.TID 0000.0001)                 1.823321598773926E+05,      /* I = 94 */
(PID.TID 0000.0001)                 1.534505834330338E+05,      /* I = 95 */
(PID.TID 0000.0001)                 1.009837800879055E+05,      /* I = 96 */
(PID.TID 0000.0001)                 1.009837800879055E+05,      /* I = 97 */
(PID.TID 0000.0001)                 1.534505834330338E+05,      /* I = 98 */
(PID.TID 0000.0001)                 1.823321598773926E+05,      /* I = 99 */
(PID.TID 0000.0001)      . . .
(PID.TID 0000.0001)                 2.977867909042096E+05,      /* I =142 */
(PID.TID 0000.0001)                 3.000380090330854E+05,      /* I =143 */
(PID.TID 0000.0001)                 3.011625828699101E+05,      /* I =144 */
(PID.TID 0000.0001)                 3.011625828699101E+05,      /* I =145 */
(PID.TID 0000.0001)                 3.000380090330854E+05,      /* I =146 */
(PID.TID 0000.0001)                 2.977867909042096E+05,      /* I =147 */
(PID.TID 0000.0001)      . . .
(PID.TID 0000.0001)                 1.823321598773926E+05,      /* I =190 */
(PID.TID 0000.0001)                 1.534505834330338E+05,      /* I =191 */
(PID.TID 0000.0001)                 1.009837800879055E+05       /* I =192 */
(PID.TID 0000.0001)     ;
(PID.TID 0000.0001) dxG =  /* dxG(1,:,1,:) ( units: m ) */
(PID.TID 0000.0001)                 1.009837800879055E+05,      /* J =  1 */
(PID.TID 0000.0001)                 1.403701524205398E+05,      /* J =  2 */
(PID.TID 0000.0001)                 1.716197227386011E+05,      /* J =  3 */
(PID.TID 0000.0001)                 1.950254041626018E+05,      /* J =  4 */
(PID.TID 0000.0001)                 2.138410773065497E+05,      /* J =  5 */
(PID.TID 0000.0001)                 2.295958105911512E+05,      /* J =  6 */
(PID.TID 0000.0001)                 2.430829951739083E+05,      /* J =  7 */
(PID.TID 0000.0001)                 2.547526806712889E+05,      /* J =  8 */
(PID.TID 0000.0001)                 2.648750305193301E+05,      /* J =  9 */
(PID.TID 0000.0001)                 2.736173771018112E+05,      /* J = 10 */
(PID.TID 0000.0001)                 2.810845823202647E+05,      /* J = 11 */
(PID.TID 0000.0001)                 2.873420591008078E+05,      /* J = 12 */
(PID.TID 0000.0001)                 2.924298293668651E+05,      /* J = 13 */
(PID.TID 0000.0001)                 2.963715635865306E+05,      /* J = 14 */
(PID.TID 0000.0001)                 2.991805843171258E+05,      /* J = 15 */
(PID.TID 0000.0001)                 3.008638765647886E+05,      /* J = 16 */
(PID.TID 0000.0001)                 3.014246674484008E+05,      /* J = 17 */
(PID.TID 0000.0001)                 3.008638765647886E+05,      /* J = 18 */
(PID.TID 0000.0001)                 2.991805843171258E+05,      /* J = 19 */
(PID.TID 0000.0001)                 2.963715635865306E+05,      /* J = 20 */
(PID.TID 0000.0001)                 2.924298293668651E+05,      /* J = 21 */
(PID.TID 0000.0001)                 2.873420591008078E+05,      /* J = 22 */
(PID.TID 0000.0001)                 2.810845823202647E+05,      /* J = 23 */
(PID.TID 0000.0001)                 2.736173771018112E+05,      /* J = 24 */
(PID.TID 0000.0001)                 2.648750305193301E+05,      /* J = 25 */
(PID.TID 0000.0001)                 2.547526806712889E+05,      /* J = 26 */
(PID.TID 0000.0001)                 2.430829951739083E+05,      /* J = 27 */
(PID.TID 0000.0001)                 2.295958105911512E+05,      /* J = 28 */
(PID.TID 0000.0001)                 2.138410773065497E+05,      /* J = 29 */
(PID.TID 0000.0001)                 1.950254041626018E+05,      /* J = 30 */
(PID.TID 0000.0001)                 1.716197227386011E+05,      /* J = 31 */
(PID.TID 0000.0001)                 1.403701524205398E+05       /* J = 32 */
(PID.TID 0000.0001)     ;
(PID.TID 0000.0001) dyG =  /* dyG(:,1,:,1) ( units: m ) */
(PID.TID 0000.0001)                 1.009837800879055E+05,      /* I =  1 */
(PID.TID 0000.0001)                 1.403701524205398E+05,      /* I =  2 */
(PID.TID 0000.0001)                 1.716197227386011E+05,      /* I =  3 */
(PID.TID 0000.0001)      . . .
(PID.TID 0000.0001)                 2.963715635865306E+05,      /* I = 46 */
(PID.TID 0000.0001)                 2.991805843171258E+05,      /* I = 47 */
(PID.TID 0000.0001)                 3.008638765647886E+05,      /* I = 48 */
(PID.TID 0000.0001)                 3.014246674484008E+05,      /* I = 49 */
(PID.TID 0000.0001)                 3.008638765647886E+05,      /* I = 50 */
(PID.TID 0000.0001)                 2.991805843171258E+05,      /* I = 51 */
(PID.TID 0000.0001)      . . .
(PID.TID 0000.0001)                 1.950254041626018E+05,      /* I = 94 */
(PID.TID 0000.0001)                 1.716197227386011E+05,      /* I = 95 */
(PID.TID 0000.0001)                 1.403701524205398E+05,      /* I = 96 */
(PID.TID 0000.0001)                 1.009837800879055E+05,      /* I = 97 */
(PID.TID 0000.0001)                 1.403701524205398E+05,      /* I = 98 */
(PID.TID 0000.0001)                 1.716197227386011E+05,      /* I = 99 */
(PID.TID 0000.0001)      . . .
(PID.TID 0000.0001)                 2.963715635865306E+05,      /* I =142 */
(PID.TID 0000.0001)                 2.991805843171258E+05,      /* I =143 */
(PID.TID 0000.0001)                 3.008638765647886E+05,      /* I =144 */
(PID.TID 0000.0001)                 3.014246674484008E+05,      /* I =145 */
(PID.TID 0000.0001)                 3.008638765647886E+05,      /* I =146 */
(PID.TID 0000.0001)                 2.991805843171258E+05,      /* I =147 */
(PID.TID 0000.0001)      . . .
(PID.TID 0000.0001)                 1.950254041626018E+05,      /* I =190 */
(PID.TID 0000.0001)                 1.716197227386011E+05,      /* I =191 */
(PID.TID 0000.0001)                 1.403701524205398E+05       /* I =192 */
(PID.TID 0000.0001)     ;
(PID.TID 0000.0001) dyG =  /* dyG(1,:,1,:) ( units: m ) */
(PID.TID 0000.0001)                 1.009837800879055E+05,      /* J =  1 */
(PID.TID 0000.0001)                 1.534505834330338E+05,      /* J =  2 */
(PID.TID 0000.0001)                 1.823321598773926E+05,      /* J =  3 */
(PID.TID 0000.0001)                 2.038999045536999E+05,      /* J =  4 */
(PID.TID 0000.0001)                 2.213884732245467E+05,      /* J =  5 */
(PID.TID 0000.0001)                 2.361211699596122E+05,      /* J =  6 */
(PID.TID 0000.0001)                 2.487693460283865E+05,      /* J =  7 */
(PID.TID 0000.0001)                 2.597126963772147E+05,      /* J =  8 */
(PID.TID 0000.0001)                 2.691790288994575E+05,      /* J =  9 */
(PID.TID 0000.0001)                 2.773091043277394E+05,      /* J = 10 */
(PID.TID 0000.0001)                 2.841906470085516E+05,      /* J = 11 */
(PID.TID 0000.0001)                 2.898778860929753E+05,      /* J = 12 */
(PID.TID 0000.0001)                 2.944035815526416E+05,      /* J = 13 */
(PID.TID 0000.0001)                 2.977867909042096E+05,      /* J = 14 */
(PID.TID 0000.0001)                 3.000380090330854E+05,      /* J = 15 */
(PID.TID 0000.0001)     2 @  3.011625828699101E+05,             /* J = 16: 17 */
(PID.TID 0000.0001)                 3.000380090330854E+05,      /* J = 18 */
(PID.TID 0000.0001)                 2.977867909042096E+05,      /* J = 19 */
(PID.TID 0000.0001)                 2.944035815526416E+05,      /* J = 20 */
(PID.TID 0000.0001)                 2.898778860929753E+05,      /* J = 21 */
(PID.TID 0000.0001)                 2.841906470085516E+05,      /* J = 22 */
(PID.TID 0000.0001)                 2.773091043277394E+05,      /* J = 23 */
(PID.TID 0000.0001)                 2.691790288994575E+05,      /* J = 24 */
(PID.TID 0000.0001)                 2.597126963772147E+05,      /* J = 25 */
(PID.TID 0000.0001)                 2.487693460283865E+05,      /* J = 26 */
(PID.TID 0000.0001)                 2.361211699596122E+05,      /* J = 27 */
(PID.TID 0000.0001)                 2.213884732245467E+05,      /* J = 28 */
(PID.TID 0000.0001)                 2.038999045536999E+05,      /* J = 29 */
(PID.TID 0000.0001)                 1.823321598773926E+05,      /* J = 30 */
(PID.TID 0000.0001)                 1.534505834330338E+05,      /* J = 31 */
(PID.TID 0000.0001)                 1.009837800879055E+05       /* J = 32 */
(PID.TID 0000.0001)     ;
(PID.TID 0000.0001) dxC =  /* dxC(:,1,:,1) ( units: m ) */
(PID.TID 0000.0001)                 1.114203141013064E+05,      /* I =  1 */
(PID.TID 0000.0001)                 1.391343389937106E+05,      /* I =  2 */
(PID.TID 0000.0001)                 1.709574999026266E+05,      /* I =  3 */
(PID.TID 0000.0001)      . . .
(PID.TID 0000.0001)                 2.963038832565530E+05,      /* I = 46 */
(PID.TID 0000.0001)                 2.991142470004740E+05,      /* I = 47 */
(PID.TID 0000.0001)                 3.007982711627968E+05,      /* I = 48 */
(PID.TID 0000.0001)                 3.013593857228136E+05,      /* I = 49 */
(PID.TID 0000.0001)                 3.007982711627968E+05,      /* I = 50 */
(PID.TID 0000.0001)                 2.991142470004740E+05,      /* I = 51 */
(PID.TID 0000.0001)      . . .
(PID.TID 0000.0001)                 1.946503699269892E+05,      /* I = 94 */
(PID.TID 0000.0001)                 1.709574999026266E+05,      /* I = 95 */
(PID.TID 0000.0001)                 1.391343389937106E+05,      /* I = 96 */
(PID.TID 0000.0001)                 1.114203141013064E+05,      /* I = 97 */
(PID.TID 0000.0001)                 1.391343389937106E+05,      /* I = 98 */
(PID.TID 0000.0001)                 1.709574999026266E+05,      /* I = 99 */
(PID.TID 0000.0001)      . . .
(PID.TID 0000.0001)                 2.963038832565530E+05,      /* I =142 */
(PID.TID 0000.0001)                 2.991142470004740E+05,      /* I =143 */
(PID.TID 0000.0001)                 3.007982711627968E+05,      /* I =144 */
(PID.TID 0000.0001)                 3.013593857228136E+05,      /* I =145 */
(PID.TID 0000.0001)                 3.007982711627968E+05,      /* I =146 */
(PID.TID 0000.0001)                 2.991142470004740E+05,      /* I =147 */
(PID.TID 0000.0001)      . . .
(PID.TID 0000.0001)                 1.946503699269892E+05,      /* I =190 */
(PID.TID 0000.0001)                 1.709574999026266E+05,      /* I =191 */
(PID.TID 0000.0001)                 1.391343389937106E+05       /* I =192 */
(PID.TID 0000.0001)     ;
(PID.TID 0000.0001) dxC =  /* dxC(1,:,1,:) ( units: m ) */
(PID.TID 0000.0001)                 1.114203141013064E+05,      /* J =  1 */
(PID.TID 0000.0001)                 1.549545757850771E+05,      /* J =  2 */
(PID.TID 0000.0001)                 1.829777599966776E+05,      /* J =  3 */
(PID.TID 0000.0001)                 2.042717761866506E+05,      /* J =  4 */
(PID.TID 0000.0001)                 2.216367828252819E+05,      /* J =  5 */
(PID.TID 0000.0001)                 2.363029564123586E+05,      /* J =  6 */
(PID.TID 0000.0001)                 2.489113743322025E+05,      /* J =  7 */
(PID.TID 0000.0001)                 2.598293319150326E+05,      /* J =  8 */
(PID.TID 0000.0001)                 2.692787333338535E+05,      /* J =  9 */
(PID.TID 0000.0001)                 2.773972106720365E+05,      /* J = 10 */
(PID.TID 0000.0001)                 2.842706922224557E+05,      /* J = 11 */
(PID.TID 0000.0001)                 2.899523122489403E+05,      /* J = 12 */
(PID.TID 0000.0001)                 2.944741346384699E+05,      /* J = 13 */
(PID.TID 0000.0001)                 2.978547649292580E+05,      /* J = 14 */
(PID.TID 0000.0001)                 3.001044073506459E+05,      /* J = 15 */
(PID.TID 0000.0001)     2 @  3.012281885409289E+05,             /* J = 16: 17 */
(PID.TID 0000.0001)                 3.001044073506459E+05,      /* J = 18 */
(PID.TID 0000.0001)                 2.978547649292580E+05,      /* J = 19 */
(PID.TID 0000.0001)                 2.944741346384699E+05,      /* J = 20 */
(PID.TID 0000.0001)                 2.899523122489403E+05,      /* J = 21 */
(PID.TID 0000.0001)                 2.842706922224557E+05,      /* J = 22 */
(PID.TID 0000.0001)                 2.773972106720365E+05,      /* J = 23 */
(PID.TID 0000.0001)                 2.692787333338535E+05,      /* J = 24 */
(PID.TID 0000.0001)                 2.598293319150326E+05,      /* J = 25 */
(PID.TID 0000.0001)                 2.489113743322025E+05,      /* J = 26 */
(PID.TID 0000.0001)                 2.363029564123586E+05,      /* J = 27 */
(PID.TID 0000.0001)                 2.216367828252819E+05,      /* J = 28 */
(PID.TID 0000.0001)                 2.042717761866506E+05,      /* J = 29 */
(PID.TID 0000.0001)                 1.829777599966776E+05,      /* J = 30 */
(PID.TID 0000.0001)                 1.549545757850771E+05,      /* J = 31 */
(PID.TID 0000.0001)                 1.114203141013064E+05       /* J = 32 */
(PID.TID 0000.0001)     ;
(PID.TID 0000.0001) dyC =  /* dyC(:,1,:,1) ( units: m ) */
(PID.TID 0000.0001)                 1.114203141013064E+05,      /* I =  1 */
(PID.TID 0000.0001)                 1.549545757850771E+05,      /* I =  2 */
(PID.TID 0000.0001)                 1.829777599966776E+05,      /* I =  3 */
(PID.TID 0000.0001)      . . .
(PID.TID 0000.0001)                 2.978547649292580E+05,      /* I = 46 */
(PID.TID 0000.0001)                 3.001044073506459E+05,      /* I = 47 */
(PID.TID 0000.0001)                 3.012281885409289E+05,      /* I = 48 */
(PID.TID 0000.0001)                 3.012281885409289E+05,      /* I = 49 */
(PID.TID 0000.0001)                 3.001044073506459E+05,      /* I = 50 */
(PID.TID 0000.0001)                 2.978547649292580E+05,      /* I = 51 */
(PID.TID 0000.0001)      . . .
(PID.TID 0000.0001)                 1.829777599966776E+05,      /* I = 94 */
(PID.TID 0000.0001)                 1.549545757850771E+05,      /* I = 95 */
(PID.TID 0000.0001)                 1.114203141013064E+05,      /* I = 96 */
(PID.TID 0000.0001)                 1.114203141013064E+05,      /* I = 97 */
(PID.TID 0000.0001)                 1.549545757850771E+05,      /* I = 98 */
(PID.TID 0000.0001)                 1.829777599966776E+05,      /* I = 99 */
(PID.TID 0000.0001)      . . .
(PID.TID 0000.0001)                 2.978547649292580E+05,      /* I =142 */
(PID.TID 0000.0001)                 3.001044073506459E+05,      /* I =143 */
(PID.TID 0000.0001)                 3.012281885409289E+05,      /* I =144 */
(PID.TID 0000.0001)                 3.012281885409289E+05,      /* I =145 */
(PID.TID 0000.0001)                 3.001044073506459E+05,      /* I =146 */
(PID.TID 0000.0001)                 2.978547649292580E+05,      /* I =147 */
(PID.TID 0000.0001)      . . .
(PID.TID 0000.0001)                 1.829777599966776E+05,      /* I =190 */
(PID.TID 0000.0001)                 1.549545757850771E+05,      /* I =191 */
(PID.TID 0000.0001)                 1.114203141013064E+05       /* I =192 */
(PID.TID 0000.0001)     ;
(PID.TID 0000.0001) dyC =  /* dyC(1,:,1,:) ( units: m ) */
(PID.TID 0000.0001)                 1.114203141013064E+05,      /* J =  1 */
(PID.TID 0000.0001)                 1.391343389937106E+05,      /* J =  2 */
(PID.TID 0000.0001)                 1.709574999026266E+05,      /* J =  3 */
(PID.TID 0000.0001)                 1.946503699269892E+05,      /* J =  4 */
(PID.TID 0000.0001)                 2.135964483342134E+05,      /* J =  5 */
(PID.TID 0000.0001)                 2.294195678257306E+05,      /* J =  6 */
(PID.TID 0000.0001)                 2.429464709770498E+05,      /* J =  7 */
(PID.TID 0000.0001)                 2.546408290696998E+05,      /* J =  8 */
(PID.TID 0000.0001)                 2.647791839299727E+05,      /* J =  9 */
(PID.TID 0000.0001)                 2.735321911346108E+05,      /* J = 10 */
(PID.TID 0000.0001)                 2.810065951609633E+05,      /* J = 11 */
(PID.TID 0000.0001)                 2.872689479506990E+05,      /* J = 12 */
(PID.TID 0000.0001)                 2.923599955312932E+05,      /* J = 13 */
(PID.TID 0000.0001)                 2.963038832565530E+05,      /* J = 14 */
(PID.TID 0000.0001)                 2.991142470004740E+05,      /* J = 15 */
(PID.TID 0000.0001)                 3.007982711627968E+05,      /* J = 16 */
(PID.TID 0000.0001)                 3.013593857228136E+05,      /* J = 17 */
(PID.TID 0000.0001)                 3.007982711627968E+05,      /* J = 18 */
(PID.TID 0000.0001)                 2.991142470004740E+05,      /* J = 19 */
(PID.TID 0000.0001)                 2.963038832565530E+05,      /* J = 20 */
(PID.TID 0000.0001)                 2.923599955312932E+05,      /* J = 21 */
(PID.TID 0000.0001)                 2.872689479506990E+05,      /* J = 22 */
(PID.TID 0000.0001)                 2.810065951609633E+05,      /* J = 23 */
(PID.TID 0000.0001)                 2.735321911346108E+05,      /* J = 24 */
(PID.TID 0000.0001)                 2.647791839299727E+05,      /* J = 25 */
(PID.TID 0000.0001)                 2.546408290696998E+05,      /* J = 26 */
(PID.TID 0000.0001)                 2.429464709770498E+05,      /* J = 27 */
(PID.TID 0000.0001)                 2.294195678257306E+05,      /* J = 28 */
(PID.TID 0000.0001)                 2.135964483342134E+05,      /* J = 29 */
(PID.TID 0000.0001)                 1.946503699269892E+05,      /* J = 30 */
(PID.TID 0000.0001)                 1.709574999026266E+05,      /* J = 31 */
(PID.TID 0000.0001)                 1.391343389937106E+05       /* J = 32 */
(PID.TID 0000.0001)     ;
(PID.TID 0000.0001) dxV =  /* dxV(:,1,:,1) ( units: m ) */
(PID.TID 0000.0001)                 8.015229982413632E+04,      /* I =  1 */
(PID.TID 0000.0001)                 1.333130744933864E+05,      /* I =  2 */
(PID.TID 0000.0001)                 1.691744868129062E+05,      /* I =  3 */
(PID.TID 0000.0001)      . . .
(PID.TID 0000.0001)                 2.962371870847826E+05,      /* I = 46 */
(PID.TID 0000.0001)                 2.990534755671296E+05,      /* I = 47 */
(PID.TID 0000.0001)                 3.007409169495504E+05,      /* I = 48 */
(PID.TID 0000.0001)                 3.013031486919771E+05,      /* I = 49 */
(PID.TID 0000.0001)                 3.007409169495504E+05,      /* I = 50 */
(PID.TID 0000.0001)                 2.990534755671296E+05,      /* I = 51 */
(PID.TID 0000.0001)      . . .
(PID.TID 0000.0001)                 1.937548202849060E+05,      /* I = 94 */
(PID.TID 0000.0001)                 1.691744868129062E+05,      /* I = 95 */
(PID.TID 0000.0001)                 1.333130744933864E+05,      /* I = 96 */
(PID.TID 0000.0001)                 8.015229982413632E+04,      /* I = 97 */
(PID.TID 0000.0001)                 1.333130744933864E+05,      /* I = 98 */
(PID.TID 0000.0001)                 1.691744868129062E+05,      /* I = 99 */
(PID.TID 0000.0001)      . . .
(PID.TID 0000.0001)                 2.962371870847826E+05,      /* I =142 */
(PID.TID 0000.0001)                 2.990534755671296E+05,      /* I =143 */
(PID.TID 0000.0001)                 3.007409169495504E+05,      /* I =144 */
(PID.TID 0000.0001)                 3.013031486919771E+05,      /* I =145 */
(PID.TID 0000.0001)                 3.007409169495504E+05,      /* I =146 */
(PID.TID 0000.0001)                 2.990534755671296E+05,      /* I =147 */
(PID.TID 0000.0001)      . . .
(PID.TID 0000.0001)                 1.937548202849060E+05,      /* I =190 */
(PID.TID 0000.0001)                 1.691744868129062E+05,      /* I =191 */
(PID.TID 0000.0001)                 1.333130744933864E+05       /* I =192 */
(PID.TID 0000.0001)     ;
(PID.TID 0000.0001) dxV =  /* dxV(1,:,1,:) ( units: m ) */
(PID.TID 0000.0001)                 8.015229982413632E+04,      /* J =  1 */
(PID.TID 0000.0001)                 1.362652340208229E+05,      /* J =  2 */
(PID.TID 0000.0001)                 1.701080315742101E+05,      /* J =  3 */
(PID.TID 0000.0001)                 1.942331448101592E+05,      /* J =  4 */
(PID.TID 0000.0001)                 2.133486626971531E+05,      /* J =  5 */
(PID.TID 0000.0001)                 2.292584591272880E+05,      /* J =  6 */
(PID.TID 0000.0001)                 2.428369969078989E+05,      /* J =  7 */
(PID.TID 0000.0001)                 2.545652950875683E+05,      /* J =  8 */
(PID.TID 0000.0001)                 2.647274964828301E+05,      /* J =  9 */
(PID.TID 0000.0001)                 2.734980225206389E+05,      /* J = 10 */
(PID.TID 0000.0001)                 2.809856491525217E+05,      /* J = 11 */
(PID.TID 0000.0001)                 2.872580915202295E+05,      /* J = 12 */
(PID.TID 0000.0001)                 2.923567890694162E+05,      /* J = 13 */
(PID.TID 0000.0001)                 2.963063101754721E+05,      /* J = 14 */
(PID.TID 0000.0001)                 2.991205495886625E+05,      /* J = 15 */
(PID.TID 0000.0001)                 3.008068453676764E+05,      /* J = 16 */
(PID.TID 0000.0001)                 3.013686170436881E+05,      /* J = 17 */
(PID.TID 0000.0001)                 3.008068453676764E+05,      /* J = 18 */
(PID.TID 0000.0001)                 2.991205495886625E+05,      /* J = 19 */
(PID.TID 0000.0001)                 2.963063101754721E+05,      /* J = 20 */
(PID.TID 0000.0001)                 2.923567890694162E+05,      /* J = 21 */
(PID.TID 0000.0001)                 2.872580915202295E+05,      /* J = 22 */
(PID.TID 0000.0001)                 2.809856491525217E+05,      /* J = 23 */
(PID.TID 0000.0001)                 2.734980225206389E+05,      /* J = 24 */
(PID.TID 0000.0001)                 2.647274964828301E+05,      /* J = 25 */
(PID.TID 0000.0001)                 2.545652950875683E+05,      /* J = 26 */
(PID.TID 0000.0001)                 2.428369969078989E+05,      /* J = 27 */
(PID.TID 0000.0001)                 2.292584591272880E+05,      /* J = 28 */
(PID.TID 0000.0001)                 2.133486626971531E+05,      /* J = 29 */
(PID.TID 0000.0001)                 1.942331448101592E+05,      /* J = 30 */
(PID.TID 0000.0001)                 1.701080315742101E+05,      /* J = 31 */
(PID.TID 0000.0001)                 1.362652340208229E+05       /* J = 32 */
(PID.TID 0000.0001)     ;
(PID.TID 0000.0001) dyU =  /* dyU(:,1,:,1) ( units: m ) */
(PID.TID 0000.0001)                 8.015229982413632E+04,      /* I =  1 */
(PID.TID 0000.0001)                 1.362652340208229E+05,      /* I =  2 */
(PID.TID 0000.0001)                 1.701080315742101E+05,      /* I =  3 */
(PID.TID 0000.0001)      . . .
(PID.TID 0000.0001)                 2.963063101754721E+05,      /* I = 46 */
(PID.TID 0000.0001)                 2.991205495886625E+05,      /* I = 47 */
(PID.TID 0000.0001)                 3.008068453676764E+05,      /* I = 48 */
(PID.TID 0000.0001)                 3.013686170436881E+05,      /* I = 49 */
(PID.TID 0000.0001)                 3.008068453676764E+05,      /* I = 50 */
(PID.TID 0000.0001)                 2.991205495886625E+05,      /* I = 51 */
(PID.TID 0000.0001)      . . .
(PID.TID 0000.0001)                 1.942331448101592E+05,      /* I = 94 */
(PID.TID 0000.0001)                 1.701080315742101E+05,      /* I = 95 */
(PID.TID 0000.0001)                 1.362652340208229E+05,      /* I = 96 */
(PID.TID 0000.0001)                 8.015229982413632E+04,      /* I = 97 */
(PID.TID 0000.0001)                 1.362652340208229E+05,      /* I = 98 */
(PID.TID 0000.0001)                 1.701080315742101E+05,      /* I = 99 */
(PID.TID 0000.0001)      . . .
(PID.TID 0000.0001)                 2.963063101754721E+05,      /* I =142 */
(PID.TID 0000.0001)                 2.991205495886625E+05,      /* I =143 */
(PID.TID 0000.0001)                 3.008068453676764E+05,      /* I =144 */
(PID.TID 0000.0001)                 3.013686170436881E+05,      /* I =145 */
(PID.TID 0000.0001)                 3.008068453676764E+05,      /* I =146 */
(PID.TID 0000.0001)                 2.991205495886625E+05,      /* I =147 */
(PID.TID 0000.0001)      . . .
(PID.TID 0000.0001)                 1.942331448101592E+05,      /* I =190 */
(PID.TID 0000.0001)                 1.701080315742101E+05,      /* I =191 */
(PID.TID 0000.0001)                 1.362652340208229E+05       /* I =192 */
(PID.TID 0000.0001)     ;
(PID.TID 0000.0001) dyU =  /* dyU(1,:,1,:) ( units: m ) */
(PID.TID 0000.0001)                 8.015229982413632E+04,      /* J =  1 */
(PID.TID 0000.0001)                 1.333130744933864E+05,      /* J =  2 */
(PID.TID 0000.0001)                 1.691744868129062E+05,      /* J =  3 */
(PID.TID 0000.0001)                 1.937548202849060E+05,      /* J =  4 */
(PID.TID 0000.0001)                 2.130490056267208E+05,      /* J =  5 */
(PID.TID 0000.0001)                 2.290479919481738E+05,      /* J =  6 */
(PID.TID 0000.0001)                 2.426774358027003E+05,      /* J =  7 */
(PID.TID 0000.0001)                 2.544372984215561E+05,      /* J =  8 */
(PID.TID 0000.0001)                 2.646201463834826E+05,      /* J =  9 */
(PID.TID 0000.0001)                 2.734046499619031E+05,      /* J = 10 */
(PID.TID 0000.0001)                 2.809019351693761E+05,      /* J = 11 */
(PID.TID 0000.0001)                 2.871811105274442E+05,      /* J = 12 */
(PID.TID 0000.0001)                 2.922844849381675E+05,      /* J = 13 */
(PID.TID 0000.0001)                 2.962371870847826E+05,      /* J = 14 */
(PID.TID 0000.0001)                 2.990534755671296E+05,      /* J = 15 */
(PID.TID 0000.0001)                 3.007409169495504E+05,      /* J = 16 */
(PID.TID 0000.0001)                 3.013031486919771E+05,      /* J = 17 */
(PID.TID 0000.0001)                 3.007409169495504E+05,      /* J = 18 */
(PID.TID 0000.0001)                 2.990534755671296E+05,      /* J = 19 */
(PID.TID 0000.0001)                 2.962371870847826E+05,      /* J = 20 */
(PID.TID 0000.0001)                 2.922844849381675E+05,      /* J = 21 */
(PID.TID 0000.0001)                 2.871811105274442E+05,      /* J = 22 */
(PID.TID 0000.0001)                 2.809019351693761E+05,      /* J = 23 */
(PID.TID 0000.0001)                 2.734046499619031E+05,      /* J = 24 */
(PID.TID 0000.0001)                 2.646201463834826E+05,      /* J = 25 */
(PID.TID 0000.0001)                 2.544372984215561E+05,      /* J = 26 */
(PID.TID 0000.0001)                 2.426774358027003E+05,      /* J = 27 */
(PID.TID 0000.0001)                 2.290479919481738E+05,      /* J = 28 */
(PID.TID 0000.0001)                 2.130490056267208E+05,      /* J = 29 */
(PID.TID 0000.0001)                 1.937548202849060E+05,      /* J = 30 */
(PID.TID 0000.0001)                 1.691744868129062E+05,      /* J = 31 */
(PID.TID 0000.0001)                 1.333130744933864E+05       /* J = 32 */
(PID.TID 0000.0001)     ;
(PID.TID 0000.0001) rA  =  /* rA (:,1,:,1) ( units: m^2 ) */
(PID.TID 0000.0001)                 1.401900702255611E+10,      /* I =  1 */
(PID.TID 0000.0001)                 2.459906945574446E+10,      /* I =  2 */
(PID.TID 0000.0001)                 3.378518544307869E+10,      /* I =  3 */
(PID.TID 0000.0001)      . . .
(PID.TID 0000.0001)                 8.874277443041928E+10,      /* I = 46 */
(PID.TID 0000.0001)                 9.008620045350865E+10,      /* I = 47 */
(PID.TID 0000.0001)                 9.076111290418457E+10,      /* I = 48 */
(PID.TID 0000.0001)                 9.076111290422060E+10,      /* I = 49 */
(PID.TID 0000.0001)                 9.008620045354469E+10,      /* I = 50 */
(PID.TID 0000.0001)                 8.874277443041928E+10,      /* I = 51 */
(PID.TID 0000.0001)      . . .
(PID.TID 0000.0001)                 3.378518544304265E+10,      /* I = 94 */
(PID.TID 0000.0001)                 2.459906945574446E+10,      /* I = 95 */
(PID.TID 0000.0001)                 1.401900702259215E+10,      /* I = 96 */
(PID.TID 0000.0001)                 1.401900702255611E+10,      /* I = 97 */
(PID.TID 0000.0001)                 2.459906945574446E+10,      /* I = 98 */
(PID.TID 0000.0001)                 3.378518544307869E+10,      /* I = 99 */
(PID.TID 0000.0001)      . . .
(PID.TID 0000.0001)                 8.874277443041928E+10,      /* I =142 */
(PID.TID 0000.0001)                 9.008620045350865E+10,      /* I =143 */
(PID.TID 0000.0001)                 9.076111290418457E+10,      /* I =144 */
(PID.TID 0000.0001)                 9.076111290422060E+10,      /* I =145 */
(PID.TID 0000.0001)                 9.008620045354469E+10,      /* I =146 */
(PID.TID 0000.0001)                 8.874277443041928E+10,      /* I =147 */
(PID.TID 0000.0001)      . . .
(PID.TID 0000.0001)                 3.378518544304265E+10,      /* I =190 */
(PID.TID 0000.0001)                 2.459906945574446E+10,      /* I =191 */
(PID.TID 0000.0001)                 1.401900702259215E+10       /* I =192 */
(PID.TID 0000.0001)     ;
(PID.TID 0000.0001) rA  =  /* rA (1,:,1,:) ( units: m^2 ) */
(PID.TID 0000.0001)                 1.401900702255611E+10,      /* J =  1 */
(PID.TID 0000.0001)                 2.459906945574446E+10,      /* J =  2 */
(PID.TID 0000.0001)                 3.378518544307869E+10,      /* J =  3 */
(PID.TID 0000.0001)                 4.192037169898667E+10,      /* J =  4 */
(PID.TID 0000.0001)                 4.925938996118163E+10,      /* J =  5 */
(PID.TID 0000.0001)                 5.594154126607553E+10,      /* J =  6 */
(PID.TID 0000.0001)                 6.203683527776127E+10,      /* J =  7 */
(PID.TID 0000.0001)                 6.757541173817516E+10,      /* J =  8 */
(PID.TID 0000.0001)                 7.256353271748119E+10,      /* J =  9 */
(PID.TID 0000.0001)                 7.699293007098555E+10,      /* J = 10 */
(PID.TID 0000.0001)                 8.084683449728902E+10,      /* J = 11 */
(PID.TID 0000.0001)                 8.410423102799828E+10,      /* J = 12 */
(PID.TID 0000.0001)                 8.674306976737517E+10,      /* J = 13 */
(PID.TID 0000.0001)                 8.874277443041928E+10,      /* J = 14 */
(PID.TID 0000.0001)                 9.008620045350865E+10,      /* J = 15 */
(PID.TID 0000.0001)                 9.076111290418457E+10,      /* J = 16 */
(PID.TID 0000.0001)                 9.076111290422060E+10,      /* J = 17 */
(PID.TID 0000.0001)                 9.008620045354469E+10,      /* J = 18 */
(PID.TID 0000.0001)                 8.874277443041928E+10,      /* J = 19 */
(PID.TID 0000.0001)                 8.674306976737517E+10,      /* J = 20 */
(PID.TID 0000.0001)                 8.410423102799828E+10,      /* J = 21 */
(PID.TID 0000.0001)                 8.084683449728902E+10,      /* J = 22 */
(PID.TID 0000.0001)                 7.699293007098555E+10,      /* J = 23 */
(PID.TID 0000.0001)                 7.256353271748119E+10,      /* J = 24 */
(PID.TID 0000.0001)                 6.757541173817516E+10,      /* J = 25 */
(PID.TID 0000.0001)                 6.203683527772523E+10,      /* J = 26 */
(PID.TID 0000.0001)                 5.594154126607553E+10,      /* J = 27 */
(PID.TID 0000.0001)                 4.925938996118163E+10,      /* J = 28 */
(PID.TID 0000.0001)                 4.192037169898667E+10,      /* J = 29 */
(PID.TID 0000.0001)                 3.378518544307869E+10,      /* J = 30 */
(PID.TID 0000.0001)                 2.459906945574446E+10,      /* J = 31 */
(PID.TID 0000.0001)                 1.401900702259215E+10       /* J = 32 */
(PID.TID 0000.0001)     ;
(PID.TID 0000.0001) rAw =  /* rAw(:,1,:,1) ( units: m^2 ) */
(PID.TID 0000.0001)                 1.216690346714270E+10,      /* I =  1 */
(PID.TID 0000.0001)                 1.974052138506315E+10,      /* I =  2 */
(PID.TID 0000.0001)                 2.943712825252015E+10,      /* I =  3 */
(PID.TID 0000.0001)      . . .
(PID.TID 0000.0001)                 8.781353403175085E+10,      /* I = 46 */
(PID.TID 0000.0001)                 8.948571540392021E+10,      /* I = 47 */
(PID.TID 0000.0001)                 9.049530583086168E+10,      /* I = 48 */
(PID.TID 0000.0001)                 9.083293515008307E+10,      /* I = 49 */
(PID.TID 0000.0001)                 9.049530583087070E+10,      /* I = 50 */
(PID.TID 0000.0001)                 8.948571540391121E+10,      /* I = 51 */
(PID.TID 0000.0001)      . . .
(PID.TID 0000.0001)                 3.801790263325260E+10,      /* I = 94 */
(PID.TID 0000.0001)                 2.943712825251114E+10,      /* I = 95 */
(PID.TID 0000.0001)                 1.974052138509018E+10,      /* I = 96 */
(PID.TID 0000.0001)                 1.216690346714270E+10,      /* I = 97 */
(PID.TID 0000.0001)                 1.974052138506315E+10,      /* I = 98 */
(PID.TID 0000.0001)                 2.943712825252015E+10,      /* I = 99 */
(PID.TID 0000.0001)      . . .
(PID.TID 0000.0001)                 8.781353403175085E+10,      /* I =142 */
(PID.TID 0000.0001)                 8.948571540392021E+10,      /* I =143 */
(PID.TID 0000.0001)                 9.049530583086168E+10,      /* I =144 */
(PID.TID 0000.0001)                 9.083293515008307E+10,      /* I =145 */
(PID.TID 0000.0001)                 9.049530583087070E+10,      /* I =146 */
(PID.TID 0000.0001)                 8.948571540391121E+10,      /* I =147 */
(PID.TID 0000.0001)      . . .
(PID.TID 0000.0001)                 3.801790263325260E+10,      /* I =190 */
(PID.TID 0000.0001)                 2.943712825251114E+10,      /* I =191 */
(PID.TID 0000.0001)                 1.974052138509018E+10       /* I =192 */
(PID.TID 0000.0001)     ;
(PID.TID 0000.0001) rAw =  /* rAw(1,:,1,:) ( units: m^2 ) */
(PID.TID 0000.0001)                 1.216690346714270E+10,      /* J =  1 */
(PID.TID 0000.0001)                 2.390126200743558E+10,      /* J =  2 */
(PID.TID 0000.0001)                 3.341968103208270E+10,      /* J =  3 */
(PID.TID 0000.0001)                 4.168532893152940E+10,      /* J =  4 */
(PID.TID 0000.0001)                 4.909074590409593E+10,      /* J =  5 */
(PID.TID 0000.0001)                 5.581203765722643E+10,      /* J =  6 */
(PID.TID 0000.0001)                 6.193257577506788E+10,      /* J =  7 */
(PID.TID 0000.0001)                 6.748840226738273E+10,      /* J =  8 */
(PID.TID 0000.0001)                 7.248875782324815E+10,      /* J =  9 */
(PID.TID 0000.0001)                 7.692702995909871E+10,      /* J = 10 */
(PID.TID 0000.0001)                 8.078743937057304E+10,      /* J = 11 */
(PID.TID 0000.0001)                 8.404959656062837E+10,      /* J = 12 */
(PID.TID 0000.0001)                 8.669186205742538E+10,      /* J = 13 */
(PID.TID 0000.0001)                 8.869393350723613E+10,      /* J = 14 */
(PID.TID 0000.0001)                 9.003884657168852E+10,      /* J = 15 */
(PID.TID 0000.0001)     2 @  9.071447638299399E+10,             /* J = 16: 17 */
(PID.TID 0000.0001)                 9.003884657168852E+10,      /* J = 18 */
(PID.TID 0000.0001)                 8.869393350723613E+10,      /* J = 19 */
(PID.TID 0000.0001)                 8.669186205742538E+10,      /* J = 20 */
(PID.TID 0000.0001)                 8.404959656062837E+10,      /* J = 21 */
(PID.TID 0000.0001)                 8.078743937057304E+10,      /* J = 22 */
(PID.TID 0000.0001)                 7.692702995909871E+10,      /* J = 23 */
(PID.TID 0000.0001)                 7.248875782324815E+10,      /* J = 24 */
(PID.TID 0000.0001)                 6.748840226738273E+10,      /* J = 25 */
(PID.TID 0000.0001)                 6.193257577506788E+10,      /* J = 26 */
(PID.TID 0000.0001)                 5.581203765722643E+10,      /* J = 27 */
(PID.TID 0000.0001)                 4.909074590409593E+10,      /* J = 28 */
(PID.TID 0000.0001)                 4.168532893152940E+10,      /* J = 29 */
(PID.TID 0000.0001)                 3.341968103208270E+10,      /* J = 30 */
(PID.TID 0000.0001)                 2.390126200743558E+10,      /* J = 31 */
(PID.TID 0000.0001)                 1.216690346714270E+10       /* J = 32 */
(PID.TID 0000.0001)     ;
(PID.TID 0000.0001) rAs =  /* rAs(:,1,:,1) ( units: m^2 ) */
(PID.TID 0000.0001)                 1.216690346714270E+10,      /* I =  1 */
(PID.TID 0000.0001)                 2.390126200743558E+10,      /* I =  2 */
(PID.TID 0000.0001)                 3.341968103208270E+10,      /* I =  3 */
(PID.TID 0000.0001)      . . .
(PID.TID 0000.0001)                 8.869393350723613E+10,      /* I = 46 */
(PID.TID 0000.0001)                 9.003884657168852E+10,      /* I = 47 */
(PID.TID 0000.0001)                 9.071447638299399E+10,      /* I = 48 */
(PID.TID 0000.0001)                 9.071447638299399E+10,      /* I = 49 */
(PID.TID 0000.0001)                 9.003884657168852E+10,      /* I = 50 */
(PID.TID 0000.0001)                 8.869393350723613E+10,      /* I = 51 */
(PID.TID 0000.0001)      . . .
(PID.TID 0000.0001)                 3.341968103208270E+10,      /* I = 94 */
(PID.TID 0000.0001)                 2.390126200743558E+10,      /* I = 95 */
(PID.TID 0000.0001)                 1.216690346714270E+10,      /* I = 96 */
(PID.TID 0000.0001)                 1.216690346714270E+10,      /* I = 97 */
(PID.TID 0000.0001)                 2.390126200743558E+10,      /* I = 98 */
(PID.TID 0000.0001)                 3.341968103208270E+10,      /* I = 99 */
(PID.TID 0000.0001)      . . .
(PID.TID 0000.0001)                 8.869393350723613E+10,      /* I =142 */
(PID.TID 0000.0001)                 9.003884657168852E+10,      /* I =143 */
(PID.TID 0000.0001)                 9.071447638299399E+10,      /* I =144 */
(PID.TID 0000.0001)                 9.071447638299399E+10,      /* I =145 */
(PID.TID 0000.0001)                 9.003884657168852E+10,      /* I =146 */
(PID.TID 0000.0001)                 8.869393350723613E+10,      /* I =147 */
(PID.TID 0000.0001)      . . .
(PID.TID 0000.0001)                 3.341968103208270E+10,      /* I =190 */
(PID.TID 0000.0001)                 2.390126200743558E+10,      /* I =191 */
(PID.TID 0000.0001)                 1.216690346714270E+10       /* I =192 */
(PID.TID 0000.0001)     ;
(PID.TID 0000.0001) rAs =  /* rAs(1,:,1,:) ( units: m^2 ) */
(PID.TID 0000.0001)                 1.216690346714270E+10,      /* J =  1 */
(PID.TID 0000.0001)                 1.974052138506315E+10,      /* J =  2 */
(PID.TID 0000.0001)                 2.943712825252015E+10,      /* J =  3 */
(PID.TID 0000.0001)                 3.801790263324359E+10,      /* J =  4 */
(PID.TID 0000.0001)                 4.571243814189866E+10,      /* J =  5 */
(PID.TID 0000.0001)                 5.269930713599979E+10,      /* J =  6 */
(PID.TID 0000.0001)                 5.907428494299063E+10,      /* J =  7 */
(PID.TID 0000.0001)                 6.488320895111514E+10,      /* J =  8 */
(PID.TID 0000.0001)                 7.014205907741882E+10,      /* J =  9 */
(PID.TID 0000.0001)                 7.484854821847499E+10,      /* J = 10 */
(PID.TID 0000.0001)                 7.898934631431560E+10,      /* J = 11 */
(PID.TID 0000.0001)                 8.254500894894537E+10,      /* J = 12 */
(PID.TID 0000.0001)                 8.549360686473492E+10,      /* J = 13 */
(PID.TID 0000.0001)                 8.781353403175085E+10,      /* J = 14 */
(PID.TID 0000.0001)                 8.948571540392021E+10,      /* J = 15 */
(PID.TID 0000.0001)                 9.049530583086168E+10,      /* J = 16 */
(PID.TID 0000.0001)                 9.083293515008307E+10,      /* J = 17 */
(PID.TID 0000.0001)                 9.049530583087070E+10,      /* J = 18 */
(PID.TID 0000.0001)                 8.948571540391121E+10,      /* J = 19 */
(PID.TID 0000.0001)                 8.781353403174185E+10,      /* J = 20 */
(PID.TID 0000.0001)                 8.549360686467184E+10,      /* J = 21 */
(PID.TID 0000.0001)                 8.254500894890933E+10,      /* J = 22 */
(PID.TID 0000.0001)                 7.898934631434262E+10,      /* J = 23 */
(PID.TID 0000.0001)                 7.484854821844795E+10,      /* J = 24 */
(PID.TID 0000.0001)                 7.014205907742783E+10,      /* J = 25 */
(PID.TID 0000.0001)                 6.488320895111514E+10,      /* J = 26 */
(PID.TID 0000.0001)                 5.907428494299063E+10,      /* J = 27 */
(PID.TID 0000.0001)                 5.269930713599078E+10,      /* J = 28 */
(PID.TID 0000.0001)                 4.571243814190767E+10,      /* J = 29 */
(PID.TID 0000.0001)                 3.801790263325260E+10,      /* J = 30 */
(PID.TID 0000.0001)                 2.943712825251114E+10,      /* J = 31 */
(PID.TID 0000.0001)                 1.974052138509018E+10       /* J = 32 */
(PID.TID 0000.0001)     ;
(PID.TID 0000.0001) globalArea = /* Integrated horizontal Area (m^2) */
(PID.TID 0000.0001)                 3.638867375081598E+14
(PID.TID 0000.0001)     ;
(PID.TID 0000.0001) // =======================================================
(PID.TID 0000.0001) // End of Model config. summary
(PID.TID 0000.0001) // =======================================================
(PID.TID 0000.0001) 
(PID.TID 0000.0001) == Packages configuration : Check & print summary ==
(PID.TID 0000.0001) 
(PID.TID 0000.0001) GAD_CHECK: #define ALLOW_GENERIC_ADVDIFF
(PID.TID 0000.0001) GMREDI_CHECK: #define GMREDI
(PID.TID 0000.0001) GM_AdvForm =     /* if FALSE => use SkewFlux Form */
(PID.TID 0000.0001)                   F
(PID.TID 0000.0001)     ;
(PID.TID 0000.0001) GM_InMomAsStress = /* if TRUE => apply as Eddy Stress */
(PID.TID 0000.0001)                   F
(PID.TID 0000.0001)     ;
(PID.TID 0000.0001) GM_AdvSeparate = /* Calc Bolus & Euler Adv. separately */
(PID.TID 0000.0001)                   F
(PID.TID 0000.0001)     ;
(PID.TID 0000.0001) GM_ExtraDiag =   /* Tensor Extra Diag (line 1&2) non 0 */
(PID.TID 0000.0001)                   F
(PID.TID 0000.0001)     ;
(PID.TID 0000.0001) GM_isopycK =    /* Background Isopyc. Diffusivity [m^2/s] */
(PID.TID 0000.0001)                 1.000000000000000E+03
(PID.TID 0000.0001)     ;
(PID.TID 0000.0001) GM_skewflx*K =  /* Background GM_SkewFlx Diffusivity [m^2/s] */
(PID.TID 0000.0001)                 1.000000000000000E+03
(PID.TID 0000.0001)     ;
(PID.TID 0000.0001) GM_advec*K =    /* Backg. GM-Advec(=Bolus) Diffusivity [m^2/s]*/
(PID.TID 0000.0001)                 0.000000000000000E+00
(PID.TID 0000.0001)     ;
(PID.TID 0000.0001) GM_Kmin_horiz = /* Minimum Horizontal Diffusivity [m^2/s] */
(PID.TID 0000.0001)                 5.000000000000000E+01
(PID.TID 0000.0001)     ;
(PID.TID 0000.0001) GM_Visbeck_alpha = /* Visbeck alpha coeff. [-] */
(PID.TID 0000.0001)                 0.000000000000000E+00
(PID.TID 0000.0001)     ;
(PID.TID 0000.0001) GM_Small_Number =  /* epsilon used in slope calc */
(PID.TID 0000.0001)                 9.999999999999999E-21
(PID.TID 0000.0001)     ;
(PID.TID 0000.0001) GM_slopeSqCutoff = /* Slope^2 cut-off value */
(PID.TID 0000.0001)                 1.000000000000000E+08
(PID.TID 0000.0001)     ;
(PID.TID 0000.0001) GM_taper_scheme =  /* Type of Tapering/Clipping scheme */
(PID.TID 0000.0001)               'dm95                                    '
(PID.TID 0000.0001)     ;
(PID.TID 0000.0001) GM_maxSlope =  /* Maximum Slope (Tapering/Clipping) */
(PID.TID 0000.0001)                 1.000000000000000E-02
(PID.TID 0000.0001)     ;
(PID.TID 0000.0001) GM_facTrL2dz = /* Minimum Trans.Layer Thick. (factor of dz) */
(PID.TID 0000.0001)                 1.000000000000000E+00
(PID.TID 0000.0001)     ;
(PID.TID 0000.0001) GM_facTrL2ML = /* Max.Trans.Layer Thick. (factor of MxL Depth)*/
(PID.TID 0000.0001)                 5.000000000000000E+00
(PID.TID 0000.0001)     ;
(PID.TID 0000.0001) GM_maxTransLay = /* Maximum Transition Layer Thickness [m] */
(PID.TID 0000.0001)                 5.000000000000000E+02
(PID.TID 0000.0001)     ;
(PID.TID 0000.0001) CTRL_CHECK: ctrl package
(PID.TID 0000.0001) COST_CHECK: cost package
(PID.TID 0000.0001) GRDCHK_CHECK: grdchk package
(PID.TID 0000.0001) // =======================================================
(PID.TID 0000.0001) // CONFIG_CHECK : Normal End
(PID.TID 0000.0001) // =======================================================
(PID.TID 0000.0001) 
(PID.TID 0000.0001)  MDS_READ_FIELD: opening global file: bathy_Hmin50.bin
(PID.TID 0000.0001) // =======================================================
(PID.TID 0000.0001) // Field Model R_low (ini_masks_etc) at iteration          1
(PID.TID 0000.0001) // CMIN =         -5.200000000000000E+03
(PID.TID 0000.0001) // CMAX =         -5.000000000000000E+01
(PID.TID 0000.0001) // CINT =          1.907407407407407E+02
(PID.TID 0000.0001) // SYMBOLS (CMIN->CMAX): -abcdefghijklmnopqrstuvwxyz+
(PID.TID 0000.0001) //                  0.0: .
(PID.TID 0000.0001) // RANGE I (Lo:Hi:Step):(    -3:   196:     1)
(PID.TID 0000.0001) // RANGE J (Lo:Hi:Step):(    36:    -3:    -1)
(PID.TID 0000.0001) // RANGE K (Lo:Hi:Step):(   1:   1:   1)
(PID.TID 0000.0001) // =======================================================
(PID.TID 0000.0001) K =   1
(PID.TID 0000.0001) //                I=6       I=16      I=26      I=36      I=38      I=48      I=58      I=68      I=70      I=80      I=90      I=100     I=102     I=112     I=122     I=132     I=134     I=144     I=154     I=164     I=166     I=176     I=186     I=196
(PID.TID 0000.0001) // |--J--|321012345|789012345|789012345|789012345|901234567|901234567|901234567|901234567|123456789|123456789|123456789|123456789|345678901|345678901|345678901|345678901|567890123|567890123|567890123|567890123|789012345|789012345|789012345|789012345|
(PID.TID 0000.0001) //     36 cbbc-ddcbcdehkhhmn..++..................................................okn.skko--a-fc----bba-cp.............tfeecccbbdeecccbbdeddedcdcccdddcddffggghiggfffdeeffijlihjlica---a--cgffel.+edfgeedflcbahgfllcbahgfllfhdffhkfffca-aady...llnabdoa--a
(PID.TID 0000.0001) //     35 dcac--cbbeefjkfefw+..........zpu........................................kqnzrqqk--b-da----bbbbfu..............fdddccaadcddccaadcdddcbbbbcdddcccdffffghgffffddefflligfiljfba---aafddehy...pwvlhfffcbagfccfcbagfcceeffffjlkjgaa---bfvheeln-aesaaab
(PID.TID 0000.0001) //     34 d--ba-abcehjnldcclz+........spps.......................................vkqn+xnnncabbcbba--aabfu+..............hcbaaaaaccbaaaaaccdccbaaabbddddccdffffghfeeeeedeffjiffefilhfcaaaacgceei.......zomggfcaecbbgfcaecbbccddefilihecbaacbaajfega-aesfeed
(PID.TID 0000.0001) //     33 --abbbccceiomkfdbbc+.......+s..........................................xsrxzz+z.fdcddb-----adu+...............hcbaa--accbaa--accddba--bbbddddccdfffhhgfeeddcceddhfeddfgikhfffdfgccffw........zohhgebbaaahgebbaaaaaccdfhlhfefdcccaabjefbaaafoosso
(PID.TID 0000.0001) //     32 --bddefhhkqqlgfaakqz..v.+..+.........................................++..u+....zigfdba----adu+................kdcaaa-acccaaa-accdcb---bbbcdddddefffggfeeedcccccbccbbdcdfgghhiihcbeiw.........+ynjgebaaaajgebaaaa-aacccfikkhecccbbbaaabaadfklnqpp
(PID.TID 0000.0001) //     31 abbcffijnpnqneaaat..umrr+s.z.........................................+++++.ztsvdlifeb--dfdfu+................+lkdca--abcdca--abcccb---bbbbddddeffflhfeeeecbbbbaaba-abbacbcdceffbbfw+..........++ujfbaaa-ujfbaaa----aacffiljgfffcca--adfikkiihhhf
(PID.TID 0000.0001) //     30 --adgillkkkifcadcx.ymmqzqikvnnps.....................................+++++wmegt-jlifcacdlqx+++...............mligea---abgea---abbbb---abaaddddeedkmeddefdbbbaaaabc---b--aaaaabaabm..............+viba---+viba-------acdefinmlgiieb-chnnnmlmlgffc
(PID.TID 0000.0001) //     29 --cfiljigfjd--efdozy...+ximpnnuz......................................+++yqddhp-iljhcbbchz+......++.........+mmhffc----affc----aaba------acdddcbcineddgdbaaa----cdd--a------aa-bfz...............+qe---a.+qe---aa---aedeegknmlgiigcdfhpokkimlfdb
(PID.TID 0000.0001) //     28 -abgkhfcccea-bdei........t............................................++zwgfcfk-gknhccbbhwwy.....+++........+njfeed-----eed-----aa-------abddcabcnfddegcaaa-----hlf------------dk+................+ja---..+ja------bffdddehfd--bedaacfhpnligiihd
(PID.TID 0000.0001) //     27 -acghfbaaaa-achmy......................+.......+++....................++vnbbbclefkpkeeecflmqxy....++........+lhfeecc----eecc------------aaadcbabcfhddccba-------zqd-----------irw.................++e---..++e-----mhmijddda--------ahhfiokhedegg
(PID.TID 0000.0001) //     26 -adhfca-----bfiv.......................+.......++sy...................+tq-fdbblcjknqiheddefhiksz++++........zkhfdccb----dccb------------aabdcaaaacfddbca-------a+xfa-abb-----vvv...................+wa--...+wa---mlmkijhc----------cjjffiheb-aad
(PID.TID 0000.0001) //     25 -achfa------ch+..................w.......w.......njo+................+x-----bcgidiqqojfefiiiijmy.++.........zkhfdbaa----dbaa-------daa---acccaaaacccca--------ac.+udaabbb----tei...................++qde...++qdeqnghiljcaaaaidaa----beedeeca--bb
(PID.TID 0000.0001) //     24 aaeifa--acbcei...................w.......w.......likn+.....++.....++znpa----bbdi-fnlmnjhinlksssw............qhfeca------ca--------addc--aeffaaaaaaccb-a----a--bd.++udbbaba---ven....................++xy....++xywnfgllcbbabegkecba----ddddcaacdc
(PID.TID 0000.0001) //     23 abfida-aabchjk...................zz......zz.....nhhijz....tqq.....+ujgzgd---abci-cegklkkknols..xuu..........zgfdba------ba--------bcd---affaaadffabbb-----aa-bcc.+.+ufb-----l.gx...........s.........++z.....++zzkfilfccccoz..ulkcd---bccnfddddd
(PID.TID 0000.0001) //     22 -afhfaa---bfgi....................zz..rn..zz..rnjffggm...nlmn+....+sffzya--aabcieaaffdfhimrmp...yuu.++.......zudba------ba--------adc---dda-adffe-aa--------aaac....+ufc-baaqvhh..........dcfeeh......++......++zggqvifefhz......zobbaccfwuffeee
(PID.TID 0000.0001) //     21 babcgca----abe.....................ysstl...ysstlgeeeeoz..ijklt+....lfjzzf---adfcfdaadcehllotq....yy+++zzs.....+zcba-----cba-------cdd--aaa----df------------aaac.....+upjdcy.vohq.......+idcdfeeefwz....efwz....+hhn.vklox.........gdccfjwrigffh
(PID.TID 0000.0001) //     20 fbbbcgfcaa-aae+.......................lc......lcgfdddhq.+hiilnz++.+oquxyz--adgkfdcaabcfmtooyxz......+yuiiy....++gb------gb--------ddcca-a-----acbaa------bbaaaab........ywxy.lulo.lv...kcdgddffefffilyx+fffilyx+fffk.+xyyy.........mgeimvskjklll
(PID.TID 0000.0001) //     19 zmfeccdghfeegcbt......................aa......aafifccgnrzgghjry.+++sr+lq.--edfkkoxtkblwnnsp.vv......skhggt...+++t-------t---------bdaf---------edd-------adlaaaa+..........vnhzy.tllqiedccdhggfggffiiggfgffiiggfcbdgy..yz..........xigqophijkkii
(PID.TID 0000.0001) //     18 ..wifedfkhfegbbcivlqfoz..............jaa.....jaacfihggokeeffgt..++++..hhlfdeddkez..qcz+.zwxtsttz..ysrkhot++++++zig------ig--------b--f---------egqqqaa----frb---+........+kkrhw.vqmlnieddcdehgggffgigedbffgigedbaaceiy.............zilrddefikkhh
(PID.TID 0000.0001) //     17 ..+wfeefikhgcbbccaaacgn.............icaa....icaaccfihfoedddeedy..++...nnqwgfeekeyy.z++..+zsjjllllljllpjos+++.+zhhi-----ehi-----e-----ea--------foqqoqqo--hlwgea-.........+nk+..xiioonhfefddegihhghigfdbaghigfdbaaabdgx..............nheddefiklhg
(PID.TID 0000.0001) //     16 ....wiheddeccdfhfbabdfl............jdbad...jdbaddddgifkccccdccd+.++..++ynvz.tkkq.mu....++zyslllllkhggkmpy++...ihhi-----ehi-----ea---feb-----a-acnoohfghknvmwnuca..........qhu..hhhkojgffgeefghihhiieedbahiieedbaaabcdy..............ygddeghiljgf
(PID.TID 0000.0001) //     15 ......ylea--acfihebcbbes..........sfcbbn..sfcbbngfffigcaaabdbcac+.+++++zgmpx...y.mm....++..zslwz.yhhhhnz+++...rhgc----abgc----ab----ige----acaaalllkddfiy..yswxb..........thk.xgghiligfghfefhhhhiiheedcdiiheedcdbbabdmz.............zfdeghikkifd
(PID.TID 0000.0001) //     14 ........c---acgkhdcc--di..........ofddch..ofddchohffikaaaaabaaa-aw+.+ysnggox++...qrv..........yzzzzrjil+++....qhgd-----agd-----a-----i---cccdeabkklldinqssy..xxv...........+y.uhghikihgfghefgihhhgeeeeedhgeeeeeddbaadhw.............nedeghjjhfed
(PID.TID 0000.0001) //     13 .......+b----cfkhec---afz.........nhfdff..nhfdffholghkaaaaaba-a---flkkuswyy++++y+zr...........zzzzz++ry++......yd-------d--------------aeecdeidfkkqnqlmqquukqqmf..............iihiijjhfefgefhjihiffgggffiffgggffecaabelx...........zjecehijhfecc
(PID.TID 0000.0001) //     12 .......ec----chjhec---ag..........skiqdd..skiqddeiiiifaaabae--a---dd--iu+++.+++sxq++..........+z+++++.+++....++.s-------s------------a-ceccdejhlllkqlkklssiccdee.............wjkkkjjjigeefffgjiiighiiihhighiiihhhdaabdffghtxx......mfccehjiffdb-
(PID.TID 0000.0001) //     11 ......pdca--achlheba--ai..........nkn.fd..nkn.fdemijidaaaabi-------a--q+....++.ziis...........+++++..........+yyza----b-za----b-----a--ccccddkhieekkossssfbbbbcd............njjijhhihijhgggggjjjjijkkkkjjijkkkkjjhcaacddeegpy.....xfdccdhjgfdda-
(PID.TID 0000.0001) //     10 ......wfdb--achlhea---an.........uos..dc.uos..dcemikkfdcaabi-------equ+.........mk...........................zyvuq----ccuq----cc----a---dcfhkopqjeissrnpfbbcccde..........zslihhigghgijjihhhhkllkkkkkkjkkkkkkkjkkkedccdeeeeipz..zwhccbcdhgfddcam
(PID.TID 0000.0001) //      9 ......vgec---bfikca--cjl+.......+nnv.+cc+nnv.+ccffhkkiddaadha-----as++..........pvz++........................zxuuk------uk------a---a----djmqrrnlllsoiddcccccdjf.........+zjijhfgfggffhjkkkiillljihhghgijihhghgihighdeeffgghimnnjgecbbcdgfeccbas
(PID.TID 0000.0001) //      8 .....zleca---afjfca--hdfz.......vkky.jcevkky.jceddefijffdddhb--a-afv............nn..ss.........................+yku-----yku--------------ejnpqqnninnritqdccchkmf+.......wihgghgeffffeefhijkjkljiigeeffefigeeffefffhjhhikkklljklmhffeeeggfdcbaay.
(PID.TID 0000.0001) //      7 ...+zohec--abcfkhecbchbdx.......qiht.faaqiht.faaaabdgijgfededcdcb-f+............nn...pz.........................+zu-----+zu--------------edefqgqddsz+......+yuddmm+....tiggfggfeeeefeeefiiiijkiihhedddddhheddddddddjjllliijhfkmmkkjjhijgdcba--q.
(PID.TID 0000.0001) //      6 ..+yomfddcaabefkifdchaadt......uqdeisc--qdeisc----dfefgifffkklldc--v............up...pp.........................v.x-----v.x---------a----fbbpqgzenx+........zdbcmllkhhfffffffgfeeeeeeeefhhhhijihhffddcbbhffddcbbbbdhhiihedddb-cfhhhjjjieca----+.
(PID.TID 0000.0001) //      5 ..+nhgffkghccfhkhffgdaackz....uoibcimlaaibcimlaaacfbddfjjhijeehf-a-c............zs...su.........................qk.yi---qk.yi-------gha-fjddqs+xkrz.........q-bchikdccdeeeeeeedddedddddgghhhhjhhgffcbbaagffcbbaaaaddfegecca----dfeefhfgdb-----+.
(PID.TID 0000.0001) //      4 .+ujhgfllfhdffhkfffca-aady...llnabdopfcbabdopfcbdgdbcdehlihgfddc--ms............................................okn.zd--okn.zd---eciiiicfkeeqy.ysz..........n-aafgdcbbdeddedcdcccdddcddffggghiggfffdbaa-fffdbaa---acdcccba--abvfedeffdcca----b+.
(PID.TID 0000.0001) //      3 +vjggfcceeffffjlkjgaa---bfvheeln-aesphfd-aesphfdhgabddeflihhgfecbaaayq+++++.....................................kqnz.vtpkqnz.vtpkllgdccfkkkkk..++..........+g---fecaaadcdddcbbbbcdddcccdffffghgffffdcaa-fffdcaa----abcaaaa-acxxmecdjmdbba----r+.
(PID.TID 0000.0001) //      2 qifeecbbccddefilihecbaacbaajfega-aesqhff-aesqhffiea-cdeflkkljifeddcba---bry+...................................vkqn+.sghkqn+.sghfcbcbbbdgfdek.++++.........+l---caaaaaccdccbaaabbddddccdffffghfeeeeecba-eeeecba------baaaa-euwxqdbcdkud-----sy+.
(PID.TID 0000.0001) //      1 ebbbbaaaaaccdfhlhfefdcccaabjefbaaafonhglaafonhglid--adfgkkkklkhffddca-----s++++................................xsrxz.tedsrxz.tedcbbbbaaadddet.++++.........+l------a-accddba--bbbddddccdfffhhgfeeddccba-eddccba-------aaaabgns.qcbcchyzqngll++..
(PID.TID 0000.0001) //      0 -aaaaaaa-aacccfikkhecccbbbaaabaadfkllilmdfkllilmgebaadfijjiiikjhffdcba-----lllgn.............................++..u+..zmd.u+..zmdfbd---a-aeef.xx+..........+++s-------accdcb---bbbcdddddefffggfeeedcccbbaedcccbba----aa--alrwwy.kcbccc+...++++...
(PID.TID 0000.0001) //     -1 --aaaaa----aacffiljgfffcca--adfikkiikimikkiikimiiheccfurkiffhijjigfecb-----l----.............................+++++.z+.wq++.z+.wqgbf-------dgzpoy+........+ys+yrb--aa-abcccb---bbbbddddeffflhfeeeecbbcbbaecbbcbbaa----a--bdflm.yuibbcc.......+...
(PID.TID 0000.0001) //     -2 --aaa-------acdefinmlgiieb-chnnnmlmlfklkmlmlfklklkhednwwsheeghhijjgfdca----g---a.............................+++++wmu++y++wmu++ywn--------fwvmgy+........+r-.+++-abc--abbbb---abaaddddeedkmeddefdbbbdcbadbbbdcbaa-------ba-hv.susfbcc.......+...
(PID.TID 0000.0001) //     -3 a--a---aa---aedeegknmlgiigcdfhpokkimdkmkkkimdkmknoiedcfjvpddegghhhhgfdcbaa-n---a..............................+++yqd.++++yqd.+++zvq--dafz.lqnggw+........+b-....abcc---aaba------acdddcbcineddgdbaaaeedbbaaaeedbaa----------nysqssfcd...........
(PID.TID 0000.0001) // =======================================================
(PID.TID 0000.0001) // END OF FIELD                                          =
(PID.TID 0000.0001) // =======================================================
(PID.TID 0000.0001) 
(PID.TID 0000.0001) // =======================================================
(PID.TID 0000.0001) // Field Model Ro_surf (ini_masks_etc) at iteration          1
(PID.TID 0000.0001) // CMIN =         -7.105427357601002E-15
(PID.TID 0000.0001) // CMAX =         -7.105427357601002E-15
(PID.TID 0000.0001) // CINT =          0.000000000000000E+00
(PID.TID 0000.0001) // SYMBOLS (CMIN->CMAX): -abcdefghijklmnopqrstuvwxyz+
(PID.TID 0000.0001) //                  0.0: .
(PID.TID 0000.0001) // RANGE I (Lo:Hi:Step):(    -3:   196:     1)
(PID.TID 0000.0001) // RANGE J (Lo:Hi:Step):(    36:    -3:    -1)
(PID.TID 0000.0001) // RANGE K (Lo:Hi:Step):(   1:   1:   1)
(PID.TID 0000.0001) // =======================================================
(PID.TID 0000.0001) // =======================================================
(PID.TID 0000.0001) // END OF FIELD                                          =
(PID.TID 0000.0001) // =======================================================
(PID.TID 0000.0001) 
(PID.TID 0000.0001) // =======================================================
(PID.TID 0000.0001) // Field hFacC at iteration          1
(PID.TID 0000.0001) // CMIN =          1.000000000000000E+00
(PID.TID 0000.0001) // CMAX =          1.000000000000000E+00
(PID.TID 0000.0001) // CINT =          0.000000000000000E+00
(PID.TID 0000.0001) // SYMBOLS (CMIN->CMAX): -abcdefghijklmnopqrstuvwxyz+
(PID.TID 0000.0001) //                  0.0: .
(PID.TID 0000.0001) // RANGE I (Lo:Hi:Step):(    -3:   196:     1)
(PID.TID 0000.0001) // RANGE J (Lo:Hi:Step):(    36:    -3:    -1)
(PID.TID 0000.0001) // RANGE K (Lo:Hi:Step):(   1:   1:   1)
(PID.TID 0000.0001) // =======================================================
(PID.TID 0000.0001) // =======================================================
(PID.TID 0000.0001) // END OF FIELD                                          =
(PID.TID 0000.0001) // =======================================================
(PID.TID 0000.0001) 
(PID.TID 0000.0001) // =======================================================
(PID.TID 0000.0001) // Field hFacW at iteration          1
(PID.TID 0000.0001) // CMIN =          1.000000000000000E+00
(PID.TID 0000.0001) // CMAX =          1.000000000000000E+00
(PID.TID 0000.0001) // CINT =          0.000000000000000E+00
(PID.TID 0000.0001) // SYMBOLS (CMIN->CMAX): -abcdefghijklmnopqrstuvwxyz+
(PID.TID 0000.0001) //                  0.0: .
(PID.TID 0000.0001) // RANGE I (Lo:Hi:Step):(    -3:   196:     1)
(PID.TID 0000.0001) // RANGE J (Lo:Hi:Step):(    36:    -3:    -1)
(PID.TID 0000.0001) // RANGE K (Lo:Hi:Step):(   1:   1:   1)
(PID.TID 0000.0001) // =======================================================
(PID.TID 0000.0001) // =======================================================
(PID.TID 0000.0001) // END OF FIELD                                          =
(PID.TID 0000.0001) // =======================================================
(PID.TID 0000.0001) 
(PID.TID 0000.0001) // =======================================================
(PID.TID 0000.0001) // Field hFacS at iteration          1
(PID.TID 0000.0001) // CMIN =          1.000000000000000E+00
(PID.TID 0000.0001) // CMAX =          1.000000000000000E+00
(PID.TID 0000.0001) // CINT =          0.000000000000000E+00
(PID.TID 0000.0001) // SYMBOLS (CMIN->CMAX): -abcdefghijklmnopqrstuvwxyz+
(PID.TID 0000.0001) //                  0.0: .
(PID.TID 0000.0001) // RANGE I (Lo:Hi:Step):(    -3:   196:     1)
(PID.TID 0000.0001) // RANGE J (Lo:Hi:Step):(    36:    -3:    -1)
(PID.TID 0000.0001) // RANGE K (Lo:Hi:Step):(   1:   1:   1)
(PID.TID 0000.0001) // =======================================================
(PID.TID 0000.0001) // =======================================================
(PID.TID 0000.0001) // END OF FIELD                                          =
(PID.TID 0000.0001) // =======================================================
(PID.TID 0000.0001) 
(PID.TID 0000.0001) INI_CG2D: CG2D normalisation factor =  1.9156564154949553E-04
(PID.TID 0000.0001) INI_CG2D: cg2dTolerance = 5.809016360175293E-07 (Area=3.6388673751E+14)
(PID.TID 0000.0001) 
(PID.TID 0000.0001)  MDS_READ_META: opening file: pickup.0000072000.meta
(PID.TID 0000.0001)  nRecords = 123 ; filePrec =  64 ; fileIter =     72000
(PID.TID 0000.0001)     nDims =   2 , dims:
(PID.TID 0000.0001)    1: 192   1 192
(PID.TID 0000.0001)    2:  32   1  32
(PID.TID 0000.0001)     nFlds =  11 , nFl3D =   8 , fields:
(PID.TID 0000.0001)  >Uvel    < >GuNm1   < >Vvel    < >GvNm1   < >Theta   < >GtNm1   < >Salt    < >GsNm1   < >EtaN    < >dEtaHdt < >EtaH    <
(PID.TID 0000.0001)   nTimRec =   0 , timeList:
(PID.TID 0000.0001) READ_MFLDS_3D_RL: read field: "Uvel    ", #   1 in fldList, rec=   1
(PID.TID 0000.0001)  MDS_READ_FIELD: opening global file: pickup.0000072000
(PID.TID 0000.0001) READ_MFLDS_3D_RL: read field: "Vvel    ", #   3 in fldList, rec=   3
(PID.TID 0000.0001)  MDS_READ_FIELD: opening global file: pickup.0000072000
(PID.TID 0000.0001) READ_MFLDS_3D_RL: read field: "Theta   ", #   5 in fldList, rec=   5
(PID.TID 0000.0001)  MDS_READ_FIELD: opening global file: pickup.0000072000
(PID.TID 0000.0001) READ_MFLDS_3D_RL: read field: "Salt    ", #   7 in fldList, rec=   7
(PID.TID 0000.0001)  MDS_READ_FIELD: opening global file: pickup.0000072000
(PID.TID 0000.0001) READ_MFLDS_3D_RL: read field: "GuNm1   ", #   2 in fldList, rec=   2
(PID.TID 0000.0001)  MDS_READ_FIELD: opening global file: pickup.0000072000
(PID.TID 0000.0001) READ_MFLDS_3D_RL: field: "GuNm2   " missing in file: pickup.0000072000
(PID.TID 0000.0001) READ_MFLDS_3D_RL: read field: "GvNm1   ", #   4 in fldList, rec=   4
(PID.TID 0000.0001)  MDS_READ_FIELD: opening global file: pickup.0000072000
(PID.TID 0000.0001) READ_MFLDS_3D_RL: field: "GvNm2   " missing in file: pickup.0000072000
(PID.TID 0000.0001) READ_MFLDS_3D_RL: read field: "EtaN    ", #   9 in fldList, rec= 121
(PID.TID 0000.0001)  MDS_READ_FIELD: opening global file: pickup.0000072000
(PID.TID 0000.0001) READ_MFLDS_3D_RL: read field: "dEtaHdt ", #  10 in fldList, rec= 122
(PID.TID 0000.0001)  MDS_READ_FIELD: opening global file: pickup.0000072000
(PID.TID 0000.0001) READ_MFLDS_3D_RL: read field: "EtaH    ", #  11 in fldList, rec= 123
(PID.TID 0000.0001)  MDS_READ_FIELD: opening global file: pickup.0000072000
(PID.TID 0000.0001)  MDS_READ_FIELD: opening global file: trenberth_taux.bin
(PID.TID 0000.0001)  MDS_READ_FIELD: opening global file: trenberth_tauy.bin
(PID.TID 0000.0001)  MDS_READ_FIELD: opening global file: shiQnet_cs32.bin
(PID.TID 0000.0001)  MDS_READ_FIELD: opening global file: shiEmPR_cs32.bin
(PID.TID 0000.0001)  MDS_READ_FIELD: opening global file: lev_surfT_cs_12m.bin
(PID.TID 0000.0001)  MDS_READ_FIELD: opening global file: lev_surfS_cs_12m.bin
(PID.TID 0000.0001)  MDS_READ_FIELD: opening file: xx_theta.0000000000.001.001.data
(PID.TID 0000.0001)  MDS_READ_FIELD: opening file: xx_theta.0000000000.002.001.data
(PID.TID 0000.0001)  MDS_READ_FIELD: opening file: xx_theta.0000000000.003.001.data
(PID.TID 0000.0001)  MDS_READ_FIELD: opening file: xx_theta.0000000000.004.001.data
(PID.TID 0000.0001)  MDS_READ_FIELD: opening file: xx_theta.0000000000.005.001.data
(PID.TID 0000.0001)  MDS_READ_FIELD: opening file: xx_theta.0000000000.006.001.data
(PID.TID 0000.0001)  MDS_READ_FIELD: opening file: xx_salt.0000000000.001.001.data
(PID.TID 0000.0001)  MDS_READ_FIELD: opening file: xx_salt.0000000000.002.001.data
(PID.TID 0000.0001)  MDS_READ_FIELD: opening file: xx_salt.0000000000.003.001.data
(PID.TID 0000.0001)  MDS_READ_FIELD: opening file: xx_salt.0000000000.004.001.data
(PID.TID 0000.0001)  MDS_READ_FIELD: opening file: xx_salt.0000000000.005.001.data
(PID.TID 0000.0001)  MDS_READ_FIELD: opening file: xx_salt.0000000000.006.001.data
(PID.TID 0000.0001)  MDS_READ_FIELD: opening file: xx_diffkr.0000000000.001.001.data
(PID.TID 0000.0001)  MDS_READ_FIELD: opening file: xx_diffkr.0000000000.002.001.data
(PID.TID 0000.0001)  MDS_READ_FIELD: opening file: xx_diffkr.0000000000.003.001.data
(PID.TID 0000.0001)  MDS_READ_FIELD: opening file: xx_diffkr.0000000000.004.001.data
(PID.TID 0000.0001)  MDS_READ_FIELD: opening file: xx_diffkr.0000000000.005.001.data
(PID.TID 0000.0001)  MDS_READ_FIELD: opening file: xx_diffkr.0000000000.006.001.data
(PID.TID 0000.0001) // =======================================================
(PID.TID 0000.0001) // Begin MONITOR dynamic field statistics
(PID.TID 0000.0001) // =======================================================
(PID.TID 0000.0001) %MON time_tsnumber                =                 72000
(PID.TID 0000.0001) %MON time_secondsf                =   6.2208000000000E+09
(PID.TID 0000.0001) %MON dynstat_eta_max              =   9.2249308874653E-01
(PID.TID 0000.0001) %MON dynstat_eta_min              =  -1.6181619580030E+00
(PID.TID 0000.0001) %MON dynstat_eta_mean             =   1.4427566214562E-14
(PID.TID 0000.0001) %MON dynstat_eta_sd               =   5.9907976973986E-01
(PID.TID 0000.0001) %MON dynstat_eta_del2             =   7.8581345364806E-04
(PID.TID 0000.0001) %MON dynstat_uvel_max             =   1.8639442347386E-01
(PID.TID 0000.0001) %MON dynstat_uvel_min             =  -2.8803502100767E-01
(PID.TID 0000.0001) %MON dynstat_uvel_mean            =  -4.8914430325890E-04
(PID.TID 0000.0001) %MON dynstat_uvel_sd              =   1.2021379389426E-02
(PID.TID 0000.0001) %MON dynstat_uvel_del2            =   5.1214215649781E-05
(PID.TID 0000.0001) %MON dynstat_vvel_max             =   1.7346247050018E-01
(PID.TID 0000.0001) %MON dynstat_vvel_min             =  -2.2519444280963E-01
(PID.TID 0000.0001) %MON dynstat_vvel_mean            =  -4.0398186384005E-04
(PID.TID 0000.0001) %MON dynstat_vvel_sd              =   1.2638380334010E-02
(PID.TID 0000.0001) %MON dynstat_vvel_del2            =   5.0639130168720E-05
(PID.TID 0000.0001) %MON dynstat_wvel_max             =   1.0315419012187E-04
(PID.TID 0000.0001) %MON dynstat_wvel_min             =  -2.0412353696425E-04
(PID.TID 0000.0001) %MON dynstat_wvel_mean            =   6.6723357760052E-23
(PID.TID 0000.0001) %MON dynstat_wvel_sd              =   3.8379860233396E-06
(PID.TID 0000.0001) %MON dynstat_wvel_del2            =   2.6456681169339E-08
(PID.TID 0000.0001) %MON dynstat_theta_max            =   3.0925958904704E+01
(PID.TID 0000.0001) %MON dynstat_theta_min            =  -2.0000000000000E+00
(PID.TID 0000.0001) %MON dynstat_theta_mean           =   3.9091312053343E+00
(PID.TID 0000.0001) %MON dynstat_theta_sd             =   4.5711433204032E+00
(PID.TID 0000.0001) %MON dynstat_theta_del2           =   2.6589242567180E-03
(PID.TID 0000.0001) %MON dynstat_salt_max             =   4.1386265990462E+01
(PID.TID 0000.0001) %MON dynstat_salt_min             =   1.8383410676806E+01
(PID.TID 0000.0001) %MON dynstat_salt_mean            =   3.4772068623474E+01
(PID.TID 0000.0001) %MON dynstat_salt_sd              =   5.3145226117181E-01
(PID.TID 0000.0001) %MON dynstat_salt_del2            =   8.0693627005698E-04
(PID.TID 0000.0001) %MON forcing_qnet_max             =   4.6211611868841E+02
(PID.TID 0000.0001) %MON forcing_qnet_min             =  -2.0410376912710E+02
(PID.TID 0000.0001) %MON forcing_qnet_mean            =  -1.2329247921290E+01
(PID.TID 0000.0001) %MON forcing_qnet_sd              =   1.1327998988989E+02
(PID.TID 0000.0001) %MON forcing_qnet_del2            =   4.4323506322358E-01
(PID.TID 0000.0001) %MON forcing_qsw_max              =   0.0000000000000E+00
(PID.TID 0000.0001) %MON forcing_qsw_min              =   0.0000000000000E+00
(PID.TID 0000.0001) %MON forcing_qsw_mean             =   0.0000000000000E+00
(PID.TID 0000.0001) %MON forcing_qsw_sd               =   0.0000000000000E+00
(PID.TID 0000.0001) %MON forcing_qsw_del2             =   0.0000000000000E+00
(PID.TID 0000.0001) %MON forcing_empmr_max            =   0.0000000000000E+00
(PID.TID 0000.0001) %MON forcing_empmr_min            =   0.0000000000000E+00
(PID.TID 0000.0001) %MON forcing_empmr_mean           =   0.0000000000000E+00
(PID.TID 0000.0001) %MON forcing_empmr_sd             =   0.0000000000000E+00
(PID.TID 0000.0001) %MON forcing_empmr_del2           =   0.0000000000000E+00
(PID.TID 0000.0001) %MON forcing_fu_max               =   2.4892781143428E-01
(PID.TID 0000.0001) %MON forcing_fu_min               =  -2.5159107438040E-01
(PID.TID 0000.0001) %MON forcing_fu_mean              =  -3.8956966288612E-03
(PID.TID 0000.0001) %MON forcing_fu_sd                =   6.5480383395885E-02
(PID.TID 0000.0001) %MON forcing_fu_del2              =   2.3114393556995E-04
(PID.TID 0000.0001) %MON forcing_fv_max               =   2.9305960402537E-01
(PID.TID 0000.0001) %MON forcing_fv_min               =  -3.3950131228473E-01
(PID.TID 0000.0001) %MON forcing_fv_mean              =  -1.3743384707768E-02
(PID.TID 0000.0001) %MON forcing_fv_sd                =   7.6816469815204E-02
(PID.TID 0000.0001) %MON forcing_fv_del2              =   2.5671701728584E-04
(PID.TID 0000.0001) %MON advcfl_uvel_max              =   8.1692195603793E-02
(PID.TID 0000.0001) %MON advcfl_vvel_max              =   7.5609847114589E-02
(PID.TID 0000.0001) %MON advcfl_wvel_max              =   6.6551975825327E-02
(PID.TID 0000.0001) %MON advcfl_W_hf_max              =   7.3511900279873E-02
(PID.TID 0000.0001) %MON pe_b_mean                    =   4.7811655460464E-04
(PID.TID 0000.0001) %MON ke_max                       =   4.0700637549387E-02
(PID.TID 0000.0001) %MON ke_mean                      =   1.4067882101803E-04
(PID.TID 0000.0001) %MON ke_vol                       =   1.3398024453628E+18
(PID.TID 0000.0001) %MON vort_r_min                   =  -1.1843904755479E-06
(PID.TID 0000.0001) %MON vort_r_max                   =   1.2148454936551E-06
(PID.TID 0000.0001) %MON vort_a_mean                  =  -2.0493733748264E-05
(PID.TID 0000.0001) %MON vort_a_sd                    =   7.5053947910691E-05
(PID.TID 0000.0001) %MON vort_p_mean                  =  -2.4715773639925E-05
(PID.TID 0000.0001) %MON vort_p_sd                    =   1.2777078256013E-04
(PID.TID 0000.0001) %MON surfExpan_theta_mean         =   3.3855955095235E-08
(PID.TID 0000.0001) %MON surfExpan_salt_mean          =   1.3163665490079E-08
(PID.TID 0000.0001) // =======================================================
(PID.TID 0000.0001) // End MONITOR dynamic field statistics
(PID.TID 0000.0001) // =======================================================
S/R EXTERNAL_FIELDS_LOAD: Reading new data:   12    1     72000  6.220800000000E+09
(PID.TID 0000.0001)  MDS_READ_FIELD: opening global file: trenberth_taux.bin
(PID.TID 0000.0001)  MDS_READ_FIELD: opening global file: trenberth_taux.bin
(PID.TID 0000.0001)  MDS_READ_FIELD: opening global file: trenberth_tauy.bin
(PID.TID 0000.0001)  MDS_READ_FIELD: opening global file: trenberth_tauy.bin
(PID.TID 0000.0001)  MDS_READ_FIELD: opening global file: shiQnet_cs32.bin
(PID.TID 0000.0001)  MDS_READ_FIELD: opening global file: shiQnet_cs32.bin
(PID.TID 0000.0001)  MDS_READ_FIELD: opening global file: shiEmPR_cs32.bin
(PID.TID 0000.0001)  MDS_READ_FIELD: opening global file: shiEmPR_cs32.bin
(PID.TID 0000.0001)  MDS_READ_FIELD: opening global file: lev_surfT_cs_12m.bin
(PID.TID 0000.0001)  MDS_READ_FIELD: opening global file: lev_surfT_cs_12m.bin
(PID.TID 0000.0001)  MDS_READ_FIELD: opening global file: lev_surfS_cs_12m.bin
(PID.TID 0000.0001)  MDS_READ_FIELD: opening global file: lev_surfS_cs_12m.bin
(PID.TID 0000.0001)  MDS_READ_FIELD: opening file: xx_tauu.0000000000.001.001.data
(PID.TID 0000.0001)  MDS_READ_FIELD: opening file: xx_tauu.0000000000.002.001.data
(PID.TID 0000.0001)  MDS_READ_FIELD: opening file: xx_tauu.0000000000.003.001.data
(PID.TID 0000.0001)  MDS_READ_FIELD: opening file: xx_tauu.0000000000.004.001.data
(PID.TID 0000.0001)  MDS_READ_FIELD: opening file: xx_tauu.0000000000.005.001.data
(PID.TID 0000.0001)  MDS_READ_FIELD: opening file: xx_tauu.0000000000.006.001.data
(PID.TID 0000.0001)  MDS_READ_FIELD: opening file: xx_tauv.0000000000.001.001.data
(PID.TID 0000.0001)  MDS_READ_FIELD: opening file: xx_tauv.0000000000.002.001.data
(PID.TID 0000.0001)  MDS_READ_FIELD: opening file: xx_tauv.0000000000.003.001.data
(PID.TID 0000.0001)  MDS_READ_FIELD: opening file: xx_tauv.0000000000.004.001.data
(PID.TID 0000.0001)  MDS_READ_FIELD: opening file: xx_tauv.0000000000.005.001.data
(PID.TID 0000.0001)  MDS_READ_FIELD: opening file: xx_tauv.0000000000.006.001.data
(PID.TID 0000.0001)  MDS_READ_FIELD: opening file: xx_sfl.0000000000.001.001.data
(PID.TID 0000.0001)  MDS_READ_FIELD: opening file: xx_sfl.0000000000.002.001.data
(PID.TID 0000.0001)  MDS_READ_FIELD: opening file: xx_sfl.0000000000.003.001.data
(PID.TID 0000.0001)  MDS_READ_FIELD: opening file: xx_sfl.0000000000.004.001.data
(PID.TID 0000.0001)  MDS_READ_FIELD: opening file: xx_sfl.0000000000.005.001.data
(PID.TID 0000.0001)  MDS_READ_FIELD: opening file: xx_sfl.0000000000.006.001.data
(PID.TID 0000.0001)  MDS_READ_FIELD: opening file: xx_hfl.0000000000.001.001.data
(PID.TID 0000.0001)  MDS_READ_FIELD: opening file: xx_hfl.0000000000.002.001.data
(PID.TID 0000.0001)  MDS_READ_FIELD: opening file: xx_hfl.0000000000.003.001.data
(PID.TID 0000.0001)  MDS_READ_FIELD: opening file: xx_hfl.0000000000.004.001.data
(PID.TID 0000.0001)  MDS_READ_FIELD: opening file: xx_hfl.0000000000.005.001.data
(PID.TID 0000.0001)  MDS_READ_FIELD: opening file: xx_hfl.0000000000.006.001.data
(PID.TID 0000.0001) SOLVE_FOR_PRESSURE: putPmEinXvector =    F
 cg2d: Sum(rhs),rhsMax =  -9.74864633462857E-12  4.27829651258201E+00
(PID.TID 0000.0001)                    cg2d_init_res =    1.97996442300056E-01
(PID.TID 0000.0001)                       cg2d_iters =    62
(PID.TID 0000.0001)                         cg2d_res =    5.28010244411224E-07
(PID.TID 0000.0001) // =======================================================
(PID.TID 0000.0001) // Begin MONITOR dynamic field statistics
(PID.TID 0000.0001) // =======================================================
(PID.TID 0000.0001) %MON time_tsnumber                =                 72001
(PID.TID 0000.0001) %MON time_secondsf                =   6.2208864000000E+09
(PID.TID 0000.0001) %MON dynstat_eta_max              =   9.1995572046866E-01
(PID.TID 0000.0001) %MON dynstat_eta_min              =  -1.6208656660430E+00
(PID.TID 0000.0001) %MON dynstat_eta_mean             =   1.4152755429523E-14
(PID.TID 0000.0001) %MON dynstat_eta_sd               =   5.9887315476673E-01
(PID.TID 0000.0001) %MON dynstat_eta_del2             =   7.9094050873445E-04
(PID.TID 0000.0001) %MON dynstat_uvel_max             =   1.8679494007781E-01
(PID.TID 0000.0001) %MON dynstat_uvel_min             =  -2.8776754891783E-01
(PID.TID 0000.0001) %MON dynstat_uvel_mean            =  -4.8899237825530E-04
(PID.TID 0000.0001) %MON dynstat_uvel_sd              =   1.2021281622921E-02
(PID.TID 0000.0001) %MON dynstat_uvel_del2            =   5.1199702711979E-05
(PID.TID 0000.0001) %MON dynstat_vvel_max             =   1.7379352572600E-01
(PID.TID 0000.0001) %MON dynstat_vvel_min             =  -2.2518089168121E-01
(PID.TID 0000.0001) %MON dynstat_vvel_mean            =  -4.0402669134000E-04
(PID.TID 0000.0001) %MON dynstat_vvel_sd              =   1.2641361726340E-02
(PID.TID 0000.0001) %MON dynstat_vvel_del2            =   5.0605320446836E-05
(PID.TID 0000.0001) %MON dynstat_wvel_max             =   1.0316903234604E-04
(PID.TID 0000.0001) %MON dynstat_wvel_min             =  -2.0439123329301E-04
(PID.TID 0000.0001) %MON dynstat_wvel_mean            =   2.8552076608105E-10
(PID.TID 0000.0001) %MON dynstat_wvel_sd              =   3.8359890728016E-06
(PID.TID 0000.0001) %MON dynstat_wvel_del2            =   2.6453775023320E-08
(PID.TID 0000.0001) %MON dynstat_theta_max            =   3.0937518035946E+01
(PID.TID 0000.0001) %MON dynstat_theta_min            =  -2.0035156739040E+00
(PID.TID 0000.0001) %MON dynstat_theta_mean           =   3.9091888334654E+00
(PID.TID 0000.0001) %MON dynstat_theta_sd             =   4.5710990129545E+00
(PID.TID 0000.0001) %MON dynstat_theta_del2           =   2.6413752739588E-03
(PID.TID 0000.0001) %MON dynstat_salt_max             =   4.1386683836132E+01
(PID.TID 0000.0001) %MON dynstat_salt_min             =   1.8383742758696E+01
(PID.TID 0000.0001) %MON dynstat_salt_mean            =   3.4772069007215E+01
(PID.TID 0000.0001) %MON dynstat_salt_sd              =   5.3143499901719E-01
(PID.TID 0000.0001) %MON dynstat_salt_del2            =   8.0250298785216E-04
(PID.TID 0000.0001) %MON forcing_qnet_max             =   4.5344826813507E+02
(PID.TID 0000.0001) %MON forcing_qnet_min             =  -2.1502574251756E+02
(PID.TID 0000.0001) %MON forcing_qnet_mean            =  -1.2145822391644E+01
(PID.TID 0000.0001) %MON forcing_qnet_sd              =   1.1565376981455E+02
(PID.TID 0000.0001) %MON forcing_qnet_del2            =   4.1640148928199E-01
(PID.TID 0000.0001) %MON forcing_qsw_max              =   0.0000000000000E+00
(PID.TID 0000.0001) %MON forcing_qsw_min              =   0.0000000000000E+00
(PID.TID 0000.0001) %MON forcing_qsw_mean             =   0.0000000000000E+00
(PID.TID 0000.0001) %MON forcing_qsw_sd               =   0.0000000000000E+00
(PID.TID 0000.0001) %MON forcing_qsw_del2             =   0.0000000000000E+00
(PID.TID 0000.0001) %MON forcing_empmr_max            =   7.6494447208479E-05
(PID.TID 0000.0001) %MON forcing_empmr_min            =  -1.5362614137596E-04
(PID.TID 0000.0001) %MON forcing_empmr_mean           =   4.1932798010144E-22
(PID.TID 0000.0001) %MON forcing_empmr_sd             =   2.4051723601802E-05
(PID.TID 0000.0001) %MON forcing_empmr_del2           =   1.2276157049243E-07
(PID.TID 0000.0001) %MON forcing_fu_max               =   2.4760613571392E-01
(PID.TID 0000.0001) %MON forcing_fu_min               =  -2.0293190974520E-01
(PID.TID 0000.0001) %MON forcing_fu_mean              =  -4.5478806648627E-03
(PID.TID 0000.0001) %MON forcing_fu_sd                =   6.3937396831278E-02
(PID.TID 0000.0001) %MON forcing_fu_del2              =   2.0509729664672E-04
(PID.TID 0000.0001) %MON forcing_fv_max               =   2.5281098043587E-01
(PID.TID 0000.0001) %MON forcing_fv_min               =  -3.2691992401999E-01
(PID.TID 0000.0001) %MON forcing_fv_mean              =  -1.3684501518858E-02
(PID.TID 0000.0001) %MON forcing_fv_sd                =   7.5153512230531E-02
(PID.TID 0000.0001) %MON forcing_fv_del2              =   2.3373863441584E-04
(PID.TID 0000.0001) %MON advcfl_uvel_max              =   8.1616335445521E-02
(PID.TID 0000.0001) %MON advcfl_vvel_max              =   7.5754149423549E-02
(PID.TID 0000.0001) %MON advcfl_wvel_max              =   6.6639254930249E-02
(PID.TID 0000.0001) %MON advcfl_W_hf_max              =   7.3608320184015E-02
(PID.TID 0000.0001) %MON pe_b_mean                    =   4.7778681886976E-04
(PID.TID 0000.0001) %MON ke_max                       =   4.0599306491268E-02
(PID.TID 0000.0001) %MON ke_mean                      =   1.4071264753200E-04
(PID.TID 0000.0001) %MON ke_vol                       =   1.3398024453628E+18
(PID.TID 0000.0001) %MON vort_r_min                   =  -1.1880200923833E-06
(PID.TID 0000.0001) %MON vort_r_max                   =   1.2156200537852E-06
(PID.TID 0000.0001) %MON vort_a_mean                  =  -2.0493733748264E-05
(PID.TID 0000.0001) %MON vort_a_sd                    =   7.5053947739503E-05
(PID.TID 0000.0001) %MON vort_p_mean                  =  -2.4715773632851E-05
(PID.TID 0000.0001) %MON vort_p_sd                    =   1.2777077923654E-04
(PID.TID 0000.0001) %MON surfExpan_theta_mean         =   3.5393919876905E-08
(PID.TID 0000.0001) %MON surfExpan_salt_mean          =   1.3180613423555E-08
(PID.TID 0000.0001) // =======================================================
(PID.TID 0000.0001) // End MONITOR dynamic field statistics
(PID.TID 0000.0001) // =======================================================
 cg2d: Sum(rhs),rhsMax =  -9.15179043659009E-12  4.27316012257317E+00
(PID.TID 0000.0001)                    cg2d_init_res =    4.63532395027048E-01
(PID.TID 0000.0001)                       cg2d_iters =    63
(PID.TID 0000.0001)                         cg2d_res =    5.78166478551136E-07
(PID.TID 0000.0001) // =======================================================
(PID.TID 0000.0001) // Begin MONITOR dynamic field statistics
(PID.TID 0000.0001) // =======================================================
(PID.TID 0000.0001) %MON time_tsnumber                =                 72002
(PID.TID 0000.0001) %MON time_secondsf                =   6.2209728000000E+09
(PID.TID 0000.0001) %MON dynstat_eta_max              =   9.1814291631864E-01
(PID.TID 0000.0001) %MON dynstat_eta_min              =  -1.6199306806408E+00
(PID.TID 0000.0001) %MON dynstat_eta_mean             =   1.4455047293066E-14
(PID.TID 0000.0001) %MON dynstat_eta_sd               =   5.9860163336858E-01
(PID.TID 0000.0001) %MON dynstat_eta_del2             =   7.9058491752037E-04
(PID.TID 0000.0001) %MON dynstat_uvel_max             =   1.8714169126950E-01
(PID.TID 0000.0001) %MON dynstat_uvel_min             =  -2.8746956870658E-01
(PID.TID 0000.0001) %MON dynstat_uvel_mean            =  -4.8878638746680E-04
(PID.TID 0000.0001) %MON dynstat_uvel_sd              =   1.2021041694833E-02
(PID.TID 0000.0001) %MON dynstat_uvel_del2            =   5.1182503759542E-05
(PID.TID 0000.0001) %MON dynstat_vvel_max             =   1.7408597417715E-01
(PID.TID 0000.0001) %MON dynstat_vvel_min             =  -2.2515710936805E-01
(PID.TID 0000.0001) %MON dynstat_vvel_mean            =  -4.0388163983304E-04
(PID.TID 0000.0001) %MON dynstat_vvel_sd              =   1.2644505848494E-02
(PID.TID 0000.0001) %MON dynstat_vvel_del2            =   5.0571887547653E-05
(PID.TID 0000.0001) %MON dynstat_wvel_max             =   1.0332793864913E-04
(PID.TID 0000.0001) %MON dynstat_wvel_min             =  -2.0476688545908E-04
(PID.TID 0000.0001) %MON dynstat_wvel_mean            =   1.3577301497360E-10
(PID.TID 0000.0001) %MON dynstat_wvel_sd              =   3.8344552372719E-06
(PID.TID 0000.0001) %MON dynstat_wvel_del2            =   2.6461994046310E-08
(PID.TID 0000.0001) %MON dynstat_theta_max            =   3.0948578881897E+01
(PID.TID 0000.0001) %MON dynstat_theta_min            =  -2.0072107040576E+00
(PID.TID 0000.0001) %MON dynstat_theta_mean           =   3.9092463371369E+00
(PID.TID 0000.0001) %MON dynstat_theta_sd             =   4.5710616865238E+00
(PID.TID 0000.0001) %MON dynstat_theta_del2           =   2.6295615983208E-03
(PID.TID 0000.0001) %MON dynstat_salt_max             =   4.1387085216939E+01
(PID.TID 0000.0001) %MON dynstat_salt_min             =   1.8384081520087E+01
(PID.TID 0000.0001) %MON dynstat_salt_mean            =   3.4772069380716E+01
(PID.TID 0000.0001) %MON dynstat_salt_sd              =   5.3141695618965E-01
(PID.TID 0000.0001) %MON dynstat_salt_del2            =   7.9900350076909E-04
(PID.TID 0000.0001) %MON forcing_qnet_max             =   4.5335380716717E+02
(PID.TID 0000.0001) %MON forcing_qnet_min             =  -2.1405338853096E+02
(PID.TID 0000.0001) %MON forcing_qnet_mean            =  -1.2158050760287E+01
(PID.TID 0000.0001) %MON forcing_qnet_sd              =   1.1544877109799E+02
(PID.TID 0000.0001) %MON forcing_qnet_del2            =   4.1737635676168E-01
(PID.TID 0000.0001) %MON forcing_qsw_max              =   0.0000000000000E+00
(PID.TID 0000.0001) %MON forcing_qsw_min              =   0.0000000000000E+00
(PID.TID 0000.0001) %MON forcing_qsw_mean             =   0.0000000000000E+00
(PID.TID 0000.0001) %MON forcing_qsw_sd               =   0.0000000000000E+00
(PID.TID 0000.0001) %MON forcing_qsw_del2             =   0.0000000000000E+00
(PID.TID 0000.0001) %MON forcing_empmr_max            =   7.6494447208479E-05
(PID.TID 0000.0001) %MON forcing_empmr_min            =  -1.5362614137596E-04
(PID.TID 0000.0001) %MON forcing_empmr_mean           =   4.1932798010144E-22
(PID.TID 0000.0001) %MON forcing_empmr_sd             =   2.4051723601802E-05
(PID.TID 0000.0001) %MON forcing_empmr_del2           =   1.2276157049243E-07
(PID.TID 0000.0001) %MON forcing_fu_max               =   2.4755808644372E-01
(PID.TID 0000.0001) %MON forcing_fu_min               =  -2.0607770640355E-01
(PID.TID 0000.0001) %MON forcing_fu_mean              =  -4.5044017291293E-03
(PID.TID 0000.0001) %MON forcing_fu_sd                =   6.3947166868600E-02
(PID.TID 0000.0001) %MON forcing_fu_del2              =   2.0524826999043E-04
(PID.TID 0000.0001) %MON forcing_fv_max               =   2.5549422200851E-01
(PID.TID 0000.0001) %MON forcing_fv_min               =  -3.2770782795392E-01
(PID.TID 0000.0001) %MON forcing_fv_mean              =  -1.3688427064785E-02
(PID.TID 0000.0001) %MON forcing_fv_sd                =   7.5192943168452E-02
(PID.TID 0000.0001) %MON forcing_fv_del2              =   2.3392164091250E-04
(PID.TID 0000.0001) %MON advcfl_uvel_max              =   8.1531822605318E-02
(PID.TID 0000.0001) %MON advcfl_vvel_max              =   7.5881623583326E-02
(PID.TID 0000.0001) %MON advcfl_wvel_max              =   6.6761731711942E-02
(PID.TID 0000.0001) %MON advcfl_W_hf_max              =   7.3743578005427E-02
(PID.TID 0000.0001) %MON pe_b_mean                    =   4.7735367226690E-04
(PID.TID 0000.0001) %MON ke_max                       =   4.0494512204705E-02
(PID.TID 0000.0001) %MON ke_mean                      =   1.4074672836912E-04
(PID.TID 0000.0001) %MON ke_vol                       =   1.3398024453628E+18
(PID.TID 0000.0001) %MON vort_r_min                   =  -1.1919427519646E-06
(PID.TID 0000.0001) %MON vort_r_max                   =   1.2167734250902E-06
(PID.TID 0000.0001) %MON vort_a_mean                  =  -2.0493733748264E-05
(PID.TID 0000.0001) %MON vort_a_sd                    =   7.5053947591933E-05
(PID.TID 0000.0001) %MON vort_p_mean                  =  -2.4715773740884E-05
(PID.TID 0000.0001) %MON vort_p_sd                    =   1.2777077007306E-04
(PID.TID 0000.0001) %MON surfExpan_theta_mean         =   3.5563986750204E-08
(PID.TID 0000.0001) %MON surfExpan_salt_mean          =   1.3466213365079E-08
(PID.TID 0000.0001) // =======================================================
(PID.TID 0000.0001) // End MONITOR dynamic field statistics
(PID.TID 0000.0001) // =======================================================
 cg2d: Sum(rhs),rhsMax =  -9.91917659121100E-12  4.26762372416937E+00
(PID.TID 0000.0001)                    cg2d_init_res =    4.71784799841827E-01
(PID.TID 0000.0001)                       cg2d_iters =    64
(PID.TID 0000.0001)                         cg2d_res =    4.75200786107985E-07
(PID.TID 0000.0001) // =======================================================
(PID.TID 0000.0001) // Begin MONITOR dynamic field statistics
(PID.TID 0000.0001) // =======================================================
(PID.TID 0000.0001) %MON time_tsnumber                =                 72003
(PID.TID 0000.0001) %MON time_secondsf                =   6.2210592000000E+09
(PID.TID 0000.0001) %MON dynstat_eta_max              =   9.1644127680132E-01
(PID.TID 0000.0001) %MON dynstat_eta_min              =  -1.6189131802854E+00
(PID.TID 0000.0001) %MON dynstat_eta_mean             =   1.4317641900547E-14
(PID.TID 0000.0001) %MON dynstat_eta_sd               =   5.9835388912947E-01
(PID.TID 0000.0001) %MON dynstat_eta_del2             =   7.8960613812723E-04
(PID.TID 0000.0001) %MON dynstat_uvel_max             =   1.8743271164964E-01
(PID.TID 0000.0001) %MON dynstat_uvel_min             =  -2.8714372135755E-01
(PID.TID 0000.0001) %MON dynstat_uvel_mean            =  -4.8852263752917E-04
(PID.TID 0000.0001) %MON dynstat_uvel_sd              =   1.2020617978716E-02
(PID.TID 0000.0001) %MON dynstat_uvel_del2            =   5.1162819347722E-05
(PID.TID 0000.0001) %MON dynstat_vvel_max             =   1.7433145976359E-01
(PID.TID 0000.0001) %MON dynstat_vvel_min             =  -2.2512354676027E-01
(PID.TID 0000.0001) %MON dynstat_vvel_mean            =  -4.0358525564204E-04
(PID.TID 0000.0001) %MON dynstat_vvel_sd              =   1.2647712774792E-02
(PID.TID 0000.0001) %MON dynstat_vvel_del2            =   5.0538429864794E-05
(PID.TID 0000.0001) %MON dynstat_wvel_max             =   1.0357240696611E-04
(PID.TID 0000.0001) %MON dynstat_wvel_min             =  -2.0508203393347E-04
(PID.TID 0000.0001) %MON dynstat_wvel_mean            =   5.9810526025693E-11
(PID.TID 0000.0001) %MON dynstat_wvel_sd              =   3.8329848821168E-06
(PID.TID 0000.0001) %MON dynstat_wvel_del2            =   2.6474698119635E-08
(PID.TID 0000.0001) %MON dynstat_theta_max            =   3.0959162610137E+01
(PID.TID 0000.0001) %MON dynstat_theta_min            =  -2.0111100855701E+00
(PID.TID 0000.0001) %MON dynstat_theta_mean           =   3.9093039691952E+00
(PID.TID 0000.0001) %MON dynstat_theta_sd             =   4.5710316755671E+00
(PID.TID 0000.0001) %MON dynstat_theta_del2           =   2.6156947077068E-03
(PID.TID 0000.0001) %MON dynstat_salt_max             =   4.1387470491746E+01
(PID.TID 0000.0001) %MON dynstat_salt_min             =   1.8384426772679E+01
(PID.TID 0000.0001) %MON dynstat_salt_mean            =   3.4772069767638E+01
(PID.TID 0000.0001) %MON dynstat_salt_sd              =   5.3139832859369E-01
(PID.TID 0000.0001) %MON dynstat_salt_del2            =   7.9538484440545E-04
(PID.TID 0000.0001) %MON forcing_qnet_max             =   4.5325934619927E+02
(PID.TID 0000.0001) %MON forcing_qnet_min             =  -2.1308103454435E+02
(PID.TID 0000.0001) %MON forcing_qnet_mean            =  -1.2170279128930E+01
(PID.TID 0000.0001) %MON forcing_qnet_sd              =   1.1525031618572E+02
(PID.TID 0000.0001) %MON forcing_qnet_del2            =   4.1847271762860E-01
(PID.TID 0000.0001) %MON forcing_qsw_max              =   0.0000000000000E+00
(PID.TID 0000.0001) %MON forcing_qsw_min              =   0.0000000000000E+00
(PID.TID 0000.0001) %MON forcing_qsw_mean             =   0.0000000000000E+00
(PID.TID 0000.0001) %MON forcing_qsw_sd               =   0.0000000000000E+00
(PID.TID 0000.0001) %MON forcing_qsw_del2             =   0.0000000000000E+00
(PID.TID 0000.0001) %MON forcing_empmr_max            =   7.6494447208479E-05
(PID.TID 0000.0001) %MON forcing_empmr_min            =  -1.5362614137596E-04
(PID.TID 0000.0001) %MON forcing_empmr_mean           =   4.1932798010144E-22
(PID.TID 0000.0001) %MON forcing_empmr_sd             =   2.4051723601802E-05
(PID.TID 0000.0001) %MON forcing_empmr_del2           =   1.2276157049243E-07
(PID.TID 0000.0001) %MON forcing_fu_max               =   2.4751003717351E-01
(PID.TID 0000.0001) %MON forcing_fu_min               =  -2.0922350306190E-01
(PID.TID 0000.0001) %MON forcing_fu_mean              =  -4.4609227933959E-03
(PID.TID 0000.0001) %MON forcing_fu_sd                =   6.3970406478471E-02
(PID.TID 0000.0001) %MON forcing_fu_del2              =   2.0564087338622E-04
(PID.TID 0000.0001) %MON forcing_fv_max               =   2.5817746358114E-01
(PID.TID 0000.0001) %MON forcing_fv_min               =  -3.2849573188785E-01
(PID.TID 0000.0001) %MON forcing_fv_mean              =  -1.3692352610712E-02
(PID.TID 0000.0001) %MON forcing_fv_sd                =   7.5242720295677E-02
(PID.TID 0000.0001) %MON forcing_fv_del2              =   2.3430754301775E-04
(PID.TID 0000.0001) %MON advcfl_uvel_max              =   8.1439406116238E-02
(PID.TID 0000.0001) %MON advcfl_vvel_max              =   7.5988627292005E-02
(PID.TID 0000.0001) %MON advcfl_wvel_max              =   6.6864482006987E-02
(PID.TID 0000.0001) %MON advcfl_W_hf_max              =   7.3857090996007E-02
(PID.TID 0000.0001) %MON pe_b_mean                    =   4.7695862773923E-04
(PID.TID 0000.0001) %MON ke_max                       =   4.0386196198663E-02
(PID.TID 0000.0001) %MON ke_mean                      =   1.4077944649451E-04
(PID.TID 0000.0001) %MON ke_vol                       =   1.3398024453628E+18
(PID.TID 0000.0001) %MON vort_r_min                   =  -1.1961174879006E-06
(PID.TID 0000.0001) %MON vort_r_max                   =   1.2183806206252E-06
(PID.TID 0000.0001) %MON vort_a_mean                  =  -2.0493733748264E-05
(PID.TID 0000.0001) %MON vort_a_sd                    =   7.5053947450515E-05
(PID.TID 0000.0001) %MON vort_p_mean                  =  -2.4715773758039E-05
(PID.TID 0000.0001) %MON vort_p_sd                    =   1.2777076089225E-04
(PID.TID 0000.0001) %MON surfExpan_theta_mean         =   3.7892040341879E-08
(PID.TID 0000.0001) %MON surfExpan_salt_mean          =   1.3727449220857E-08
(PID.TID 0000.0001) // =======================================================
(PID.TID 0000.0001) // End MONITOR dynamic field statistics
(PID.TID 0000.0001) // =======================================================
 cg2d: Sum(rhs),rhsMax =  -9.63495949690696E-12  4.26250700388077E+00
(PID.TID 0000.0001)                    cg2d_init_res =    4.64057880568630E-01
(PID.TID 0000.0001)                       cg2d_iters =    64
(PID.TID 0000.0001)                         cg2d_res =    4.73678602603714E-07
(PID.TID 0000.0001) // =======================================================
(PID.TID 0000.0001) // Begin MONITOR dynamic field statistics
(PID.TID 0000.0001) // =======================================================
(PID.TID 0000.0001) %MON time_tsnumber                =                 72004
(PID.TID 0000.0001) %MON time_secondsf                =   6.2211456000000E+09
(PID.TID 0000.0001) %MON dynstat_eta_max              =   9.1468208773233E-01
(PID.TID 0000.0001) %MON dynstat_eta_min              =  -1.6181724098336E+00
(PID.TID 0000.0001) %MON dynstat_eta_mean             =   1.4592452685586E-14
(PID.TID 0000.0001) %MON dynstat_eta_sd               =   5.9815450388974E-01
(PID.TID 0000.0001) %MON dynstat_eta_del2             =   7.8869888605213E-04
(PID.TID 0000.0001) %MON dynstat_uvel_max             =   1.8766375016413E-01
(PID.TID 0000.0001) %MON dynstat_uvel_min             =  -2.8679232422544E-01
(PID.TID 0000.0001) %MON dynstat_uvel_mean            =  -4.8821265417235E-04
(PID.TID 0000.0001) %MON dynstat_uvel_sd              =   1.2020024198133E-02
(PID.TID 0000.0001) %MON dynstat_uvel_del2            =   5.1140823674560E-05
(PID.TID 0000.0001) %MON dynstat_vvel_max             =   1.7452664092852E-01
(PID.TID 0000.0001) %MON dynstat_vvel_min             =  -2.2508106571002E-01
(PID.TID 0000.0001) %MON dynstat_vvel_mean            =  -4.0317713967128E-04
(PID.TID 0000.0001) %MON dynstat_vvel_sd              =   1.2650879908442E-02
(PID.TID 0000.0001) %MON dynstat_vvel_del2            =   5.0504460619241E-05
(PID.TID 0000.0001) %MON dynstat_wvel_max             =   1.0389335805971E-04
(PID.TID 0000.0001) %MON dynstat_wvel_min             =  -2.0534191960403E-04
(PID.TID 0000.0001) %MON dynstat_wvel_mean            =   5.0465258147612E-11
(PID.TID 0000.0001) %MON dynstat_wvel_sd              =   3.8316452385491E-06
(PID.TID 0000.0001) %MON dynstat_wvel_del2            =   2.6493204777699E-08
(PID.TID 0000.0001) %MON dynstat_theta_max            =   3.0969289329149E+01
(PID.TID 0000.0001) %MON dynstat_theta_min            =  -2.0151811569499E+00
(PID.TID 0000.0001) %MON dynstat_theta_mean           =   3.9093619576162E+00
(PID.TID 0000.0001) %MON dynstat_theta_sd             =   4.5710089721169E+00
(PID.TID 0000.0001) %MON dynstat_theta_del2           =   2.6092028282186E-03
(PID.TID 0000.0001) %MON dynstat_salt_max             =   4.1387839317564E+01
(PID.TID 0000.0001) %MON dynstat_salt_min             =   1.8384778363786E+01
(PID.TID 0000.0001) %MON dynstat_salt_mean            =   3.4772070172675E+01
(PID.TID 0000.0001) %MON dynstat_salt_sd              =   5.3137961794051E-01
(PID.TID 0000.0001) %MON dynstat_salt_del2            =   7.9371216039174E-04
(PID.TID 0000.0001) %MON forcing_qnet_max             =   4.5316488523137E+02
(PID.TID 0000.0001) %MON forcing_qnet_min             =  -2.1210868055774E+02
(PID.TID 0000.0001) %MON forcing_qnet_mean            =  -1.2182507497573E+01
(PID.TID 0000.0001) %MON forcing_qnet_sd              =   1.1505843893838E+02
(PID.TID 0000.0001) %MON forcing_qnet_del2            =   4.1968961974738E-01
(PID.TID 0000.0001) %MON forcing_qsw_max              =   0.0000000000000E+00
(PID.TID 0000.0001) %MON forcing_qsw_min              =   0.0000000000000E+00
(PID.TID 0000.0001) %MON forcing_qsw_mean             =   0.0000000000000E+00
(PID.TID 0000.0001) %MON forcing_qsw_sd               =   0.0000000000000E+00
(PID.TID 0000.0001) %MON forcing_qsw_del2             =   0.0000000000000E+00
(PID.TID 0000.0001) %MON forcing_empmr_max            =   7.6494447208479E-05
(PID.TID 0000.0001) %MON forcing_empmr_min            =  -1.5362614137596E-04
(PID.TID 0000.0001) %MON forcing_empmr_mean           =   4.1932798010144E-22
(PID.TID 0000.0001) %MON forcing_empmr_sd             =   2.4051723601802E-05
(PID.TID 0000.0001) %MON forcing_empmr_del2           =   1.2276157049243E-07
(PID.TID 0000.0001) %MON forcing_fu_max               =   2.4746198790331E-01
(PID.TID 0000.0001) %MON forcing_fu_min               =  -2.1236929972025E-01
(PID.TID 0000.0001) %MON forcing_fu_mean              =  -4.4174438576624E-03
(PID.TID 0000.0001) %MON forcing_fu_sd                =   6.4007100989353E-02
(PID.TID 0000.0001) %MON forcing_fu_del2              =   2.0627372714610E-04
(PID.TID 0000.0001) %MON forcing_fv_max               =   2.6086070515377E-01
(PID.TID 0000.0001) %MON forcing_fv_min               =  -3.2928363582178E-01
(PID.TID 0000.0001) %MON forcing_fv_mean              =  -1.3696278156640E-02
(PID.TID 0000.0001) %MON forcing_fv_sd                =   7.5302823094907E-02
(PID.TID 0000.0001) %MON forcing_fv_del2              =   2.3489534074143E-04
(PID.TID 0000.0001) %MON advcfl_uvel_max              =   8.1339743224028E-02
(PID.TID 0000.0001) %MON advcfl_vvel_max              =   7.6073704012041E-02
(PID.TID 0000.0001) %MON advcfl_wvel_max              =   6.6949214542596E-02
(PID.TID 0000.0001) %MON advcfl_W_hf_max              =   7.3950714445323E-02
(PID.TID 0000.0001) %MON pe_b_mean                    =   4.7664081359092E-04
(PID.TID 0000.0001) %MON ke_max                       =   4.0274393070465E-02
(PID.TID 0000.0001) %MON ke_mean                      =   1.4080976941485E-04
(PID.TID 0000.0001) %MON ke_vol                       =   1.3398024453628E+18
(PID.TID 0000.0001) %MON vort_r_min                   =  -1.2005187139707E-06
(PID.TID 0000.0001) %MON vort_r_max                   =   1.2203710073807E-06
(PID.TID 0000.0001) %MON vort_a_mean                  =  -2.0493733748264E-05
(PID.TID 0000.0001) %MON vort_a_sd                    =   7.5053947314347E-05
(PID.TID 0000.0001) %MON vort_p_mean                  =  -2.4715773732941E-05
(PID.TID 0000.0001) %MON vort_p_sd                    =   1.2777075307854E-04
(PID.TID 0000.0001) %MON surfExpan_theta_mean         =   4.0287977681118E-08
(PID.TID 0000.0001) %MON surfExpan_salt_mean          =   1.3883637727686E-08
(PID.TID 0000.0001) // =======================================================
(PID.TID 0000.0001) // End MONITOR dynamic field statistics
(PID.TID 0000.0001) // =======================================================
 cg2d: Sum(rhs),rhsMax =  -9.43600753089413E-12  4.25770388694847E+00
(PID.TID 0000.0001)                    cg2d_init_res =    4.63540490759786E-01
(PID.TID 0000.0001)                       cg2d_iters =    64
(PID.TID 0000.0001)                         cg2d_res =    4.71239733811041E-07
(PID.TID 0000.0001) // =======================================================
(PID.TID 0000.0001) // Begin MONITOR dynamic field statistics
(PID.TID 0000.0001) // =======================================================
(PID.TID 0000.0001) %MON time_tsnumber                =                 72005
(PID.TID 0000.0001) %MON time_secondsf                =   6.2212320000000E+09
(PID.TID 0000.0001) %MON dynstat_eta_max              =   9.1288618571293E-01
(PID.TID 0000.0001) %MON dynstat_eta_min              =  -1.6176044944106E+00
(PID.TID 0000.0001) %MON dynstat_eta_mean             =   1.4537490528578E-14
(PID.TID 0000.0001) %MON dynstat_eta_sd               =   5.9799597228681E-01
(PID.TID 0000.0001) %MON dynstat_eta_del2             =   7.8790248406856E-04
(PID.TID 0000.0001) %MON dynstat_uvel_max             =   1.8783121839568E-01
(PID.TID 0000.0001) %MON dynstat_uvel_min             =  -2.8641765970966E-01
(PID.TID 0000.0001) %MON dynstat_uvel_mean            =  -4.8789602703551E-04
(PID.TID 0000.0001) %MON dynstat_uvel_sd              =   1.2019323850889E-02
(PID.TID 0000.0001) %MON dynstat_uvel_del2            =   5.1116631442351E-05
(PID.TID 0000.0001) %MON dynstat_vvel_max             =   1.7466590664040E-01
(PID.TID 0000.0001) %MON dynstat_vvel_min             =  -2.2503037114389E-01
(PID.TID 0000.0001) %MON dynstat_vvel_mean            =  -4.0272133982208E-04
(PID.TID 0000.0001) %MON dynstat_vvel_sd              =   1.2653941174020E-02
(PID.TID 0000.0001) %MON dynstat_vvel_del2            =   5.0470121662324E-05
(PID.TID 0000.0001) %MON dynstat_wvel_max             =   1.0429031438416E-04
(PID.TID 0000.0001) %MON dynstat_wvel_min             =  -2.0554556547467E-04
(PID.TID 0000.0001) %MON dynstat_wvel_mean            =   5.6727989847082E-11
(PID.TID 0000.0001) %MON dynstat_wvel_sd              =   3.8304971492661E-06
(PID.TID 0000.0001) %MON dynstat_wvel_del2            =   2.6517653294340E-08
(PID.TID 0000.0001) %MON dynstat_theta_max            =   3.0978978562277E+01
(PID.TID 0000.0001) %MON dynstat_theta_min            =  -2.0194064320612E+00
(PID.TID 0000.0001) %MON dynstat_theta_mean           =   3.9094201646557E+00
(PID.TID 0000.0001) %MON dynstat_theta_sd             =   4.5709972540484E+00
(PID.TID 0000.0001) %MON dynstat_theta_del2           =   2.5983887381109E-03
(PID.TID 0000.0001) %MON dynstat_salt_max             =   4.1388191312935E+01
(PID.TID 0000.0001) %MON dynstat_salt_min             =   1.8385136136753E+01
(PID.TID 0000.0001) %MON dynstat_salt_mean            =   3.4772070591186E+01
(PID.TID 0000.0001) %MON dynstat_salt_sd              =   5.3136292863132E-01
(PID.TID 0000.0001) %MON dynstat_salt_del2            =   7.9026448917789E-04
(PID.TID 0000.0001) %MON forcing_qnet_max             =   4.5307042426348E+02
(PID.TID 0000.0001) %MON forcing_qnet_min             =  -2.1113632657113E+02
(PID.TID 0000.0001) %MON forcing_qnet_mean            =  -1.2194735866216E+01
(PID.TID 0000.0001) %MON forcing_qnet_sd              =   1.1487317231679E+02
(PID.TID 0000.0001) %MON forcing_qnet_del2            =   4.2102601790904E-01
(PID.TID 0000.0001) %MON forcing_qsw_max              =   0.0000000000000E+00
(PID.TID 0000.0001) %MON forcing_qsw_min              =   0.0000000000000E+00
(PID.TID 0000.0001) %MON forcing_qsw_mean             =   0.0000000000000E+00
(PID.TID 0000.0001) %MON forcing_qsw_sd               =   0.0000000000000E+00
(PID.TID 0000.0001) %MON forcing_qsw_del2             =   0.0000000000000E+00
(PID.TID 0000.0001) %MON forcing_empmr_max            =   7.6494447208479E-05
(PID.TID 0000.0001) %MON forcing_empmr_min            =  -1.5362614137596E-04
(PID.TID 0000.0001) %MON forcing_empmr_mean           =   4.1932798010144E-22
(PID.TID 0000.0001) %MON forcing_empmr_sd             =   2.4051723601802E-05
(PID.TID 0000.0001) %MON forcing_empmr_del2           =   1.2276157049243E-07
(PID.TID 0000.0001) %MON forcing_fu_max               =   2.4741393863310E-01
(PID.TID 0000.0001) %MON forcing_fu_min               =  -2.1551509637860E-01
(PID.TID 0000.0001) %MON forcing_fu_mean              =  -4.3739649219290E-03
(PID.TID 0000.0001) %MON forcing_fu_sd                =   6.4057227278753E-02
(PID.TID 0000.0001) %MON forcing_fu_del2              =   2.0714462929353E-04
(PID.TID 0000.0001) %MON forcing_fv_max               =   2.6354394672640E-01
(PID.TID 0000.0001) %MON forcing_fv_min               =  -3.3007153975572E-01
(PID.TID 0000.0001) %MON forcing_fv_mean              =  -1.3700203702567E-02
(PID.TID 0000.0001) %MON forcing_fv_sd                =   7.5373226864996E-02
(PID.TID 0000.0001) %MON forcing_fv_del2              =   2.3568352349763E-04
(PID.TID 0000.0001) %MON advcfl_uvel_max              =   8.1233481260458E-02
(PID.TID 0000.0001) %MON advcfl_vvel_max              =   7.6134407973846E-02
(PID.TID 0000.0001) %MON advcfl_wvel_max              =   6.7015610781177E-02
(PID.TID 0000.0001) %MON advcfl_W_hf_max              =   7.4024090022018E-02
(PID.TID 0000.0001) %MON pe_b_mean                    =   4.7638819451557E-04
(PID.TID 0000.0001) %MON ke_max                       =   4.0159180721914E-02
(PID.TID 0000.0001) %MON ke_mean                      =   1.4083766402197E-04
(PID.TID 0000.0001) %MON ke_vol                       =   1.3398024453628E+18
(PID.TID 0000.0001) %MON vort_r_min                   =  -1.2051032546489E-06
(PID.TID 0000.0001) %MON vort_r_max                   =   1.2226666065819E-06
(PID.TID 0000.0001) %MON vort_a_mean                  =  -2.0493733748264E-05
(PID.TID 0000.0001) %MON vort_a_sd                    =   7.5053947177443E-05
(PID.TID 0000.0001) %MON vort_p_mean                  =  -2.4715773700647E-05
(PID.TID 0000.0001) %MON vort_p_sd                    =   1.2777074649146E-04
(PID.TID 0000.0001) %MON surfExpan_theta_mean         =   4.2280191562134E-08
(PID.TID 0000.0001) %MON surfExpan_salt_mean          =   1.3985010751217E-08
(PID.TID 0000.0001) // =======================================================
(PID.TID 0000.0001) // End MONITOR dynamic field statistics
(PID.TID 0000.0001) // =======================================================
 cg2d: Sum(rhs),rhsMax =  -9.52127265918534E-12  4.25319685033070E+00
(PID.TID 0000.0001)                    cg2d_init_res =    4.52616207414489E-01
(PID.TID 0000.0001)                       cg2d_iters =    64
(PID.TID 0000.0001)                         cg2d_res =    4.53532222099771E-07
(PID.TID 0000.0001) // =======================================================
(PID.TID 0000.0001) // Begin MONITOR dynamic field statistics
(PID.TID 0000.0001) // =======================================================
(PID.TID 0000.0001) %MON time_tsnumber                =                 72006
(PID.TID 0000.0001) %MON time_secondsf                =   6.2213184000000E+09
(PID.TID 0000.0001) %MON dynstat_eta_max              =   9.1113683372450E-01
(PID.TID 0000.0001) %MON dynstat_eta_min              =  -1.6171233970265E+00
(PID.TID 0000.0001) %MON dynstat_eta_mean             =   1.4455047293066E-14
(PID.TID 0000.0001) %MON dynstat_eta_sd               =   5.9786331886074E-01
(PID.TID 0000.0001) %MON dynstat_eta_del2             =   7.8718821549541E-04
(PID.TID 0000.0001) %MON dynstat_uvel_max             =   1.8793282661857E-01
(PID.TID 0000.0001) %MON dynstat_uvel_min             =  -2.8602183619030E-01
(PID.TID 0000.0001) %MON dynstat_uvel_mean            =  -4.8758675650202E-04
(PID.TID 0000.0001) %MON dynstat_uvel_sd              =   1.2018569497772E-02
(PID.TID 0000.0001) %MON dynstat_uvel_del2            =   5.1090746038440E-05
(PID.TID 0000.0001) %MON dynstat_vvel_max             =   1.7474692983727E-01
(PID.TID 0000.0001) %MON dynstat_vvel_min             =  -2.2497211333931E-01
(PID.TID 0000.0001) %MON dynstat_vvel_mean            =  -4.0228516554684E-04
(PID.TID 0000.0001) %MON dynstat_vvel_sd              =   1.2656812611456E-02
(PID.TID 0000.0001) %MON dynstat_vvel_del2            =   5.0435619820206E-05
(PID.TID 0000.0001) %MON dynstat_wvel_max             =   1.0474850459617E-04
(PID.TID 0000.0001) %MON dynstat_wvel_min             =  -2.0568876614350E-04
(PID.TID 0000.0001) %MON dynstat_wvel_mean            =   6.7880897237848E-11
(PID.TID 0000.0001) %MON dynstat_wvel_sd              =   3.8295886805191E-06
(PID.TID 0000.0001) %MON dynstat_wvel_del2            =   2.6548285324529E-08
(PID.TID 0000.0001) %MON dynstat_theta_max            =   3.0988249495099E+01
(PID.TID 0000.0001) %MON dynstat_theta_min            =  -2.0237664226442E+00
(PID.TID 0000.0001) %MON dynstat_theta_mean           =   3.9094786541797E+00
(PID.TID 0000.0001) %MON dynstat_theta_sd             =   4.5709927624012E+00
(PID.TID 0000.0001) %MON dynstat_theta_del2           =   2.5897802400894E-03
(PID.TID 0000.0001) %MON dynstat_salt_max             =   4.1388526298181E+01
(PID.TID 0000.0001) %MON dynstat_salt_min             =   1.8385499953100E+01
(PID.TID 0000.0001) %MON dynstat_salt_mean            =   3.4772071024178E+01
(PID.TID 0000.0001) %MON dynstat_salt_sd              =   5.3134607033832E-01
(PID.TID 0000.0001) %MON dynstat_salt_del2            =   7.8734103201168E-04
(PID.TID 0000.0001) %MON forcing_qnet_max             =   4.5297596329558E+02
(PID.TID 0000.0001) %MON forcing_qnet_min             =  -2.1016397258453E+02
(PID.TID 0000.0001) %MON forcing_qnet_mean            =  -1.2206964234860E+01
(PID.TID 0000.0001) %MON forcing_qnet_sd              =   1.1469454835547E+02
(PID.TID 0000.0001) %MON forcing_qnet_del2            =   4.2248077813955E-01
(PID.TID 0000.0001) %MON forcing_qsw_max              =   0.0000000000000E+00
(PID.TID 0000.0001) %MON forcing_qsw_min              =   0.0000000000000E+00
(PID.TID 0000.0001) %MON forcing_qsw_mean             =   0.0000000000000E+00
(PID.TID 0000.0001) %MON forcing_qsw_sd               =   0.0000000000000E+00
(PID.TID 0000.0001) %MON forcing_qsw_del2             =   0.0000000000000E+00
(PID.TID 0000.0001) %MON forcing_empmr_max            =   7.6494447208479E-05
(PID.TID 0000.0001) %MON forcing_empmr_min            =  -1.5362614137596E-04
(PID.TID 0000.0001) %MON forcing_empmr_mean           =   4.1932798010144E-22
(PID.TID 0000.0001) %MON forcing_empmr_sd             =   2.4051723601802E-05
(PID.TID 0000.0001) %MON forcing_empmr_del2           =   1.2276157049243E-07
(PID.TID 0000.0001) %MON forcing_fu_max               =   2.4736588936290E-01
(PID.TID 0000.0001) %MON forcing_fu_min               =  -2.1866089303695E-01
(PID.TID 0000.0001) %MON forcing_fu_mean              =  -4.3304859861956E-03
(PID.TID 0000.0001) %MON forcing_fu_sd                =   6.4120753845867E-02
(PID.TID 0000.0001) %MON forcing_fu_del2              =   2.0825059330114E-04
(PID.TID 0000.0001) %MON forcing_fv_max               =   2.6622718829904E-01
(PID.TID 0000.0001) %MON forcing_fv_min               =  -3.3085944368965E-01
(PID.TID 0000.0001) %MON forcing_fv_mean              =  -1.3704129248494E-02
(PID.TID 0000.0001) %MON forcing_fv_sd                =   7.5453902771370E-02
(PID.TID 0000.0001) %MON forcing_fv_del2              =   2.3667008926707E-04
(PID.TID 0000.0001) %MON advcfl_uvel_max              =   8.1121218202115E-02
(PID.TID 0000.0001) %MON advcfl_vvel_max              =   7.6169724843888E-02
(PID.TID 0000.0001) %MON advcfl_wvel_max              =   6.7062299603012E-02
(PID.TID 0000.0001) %MON advcfl_W_hf_max              =   7.4075697566092E-02
(PID.TID 0000.0001) %MON pe_b_mean                    =   4.7617686360415E-04
(PID.TID 0000.0001) %MON ke_max                       =   4.0040640247257E-02
(PID.TID 0000.0001) %MON ke_mean                      =   1.4086275526031E-04
(PID.TID 0000.0001) %MON ke_vol                       =   1.3398024453628E+18
(PID.TID 0000.0001) %MON vort_r_min                   =  -1.2098297308403E-06
(PID.TID 0000.0001) %MON vort_r_max                   =   1.2252105592412E-06
(PID.TID 0000.0001) %MON vort_a_mean                  =  -2.0493733748264E-05
(PID.TID 0000.0001) %MON vort_a_sd                    =   7.5053947032421E-05
(PID.TID 0000.0001) %MON vort_p_mean                  =  -2.4715773669213E-05
(PID.TID 0000.0001) %MON vort_p_sd                    =   1.2777074083612E-04
(PID.TID 0000.0001) %MON surfExpan_theta_mean         =   4.3917965431424E-08
(PID.TID 0000.0001) %MON surfExpan_salt_mean          =   1.4048698266060E-08
(PID.TID 0000.0001) // =======================================================
(PID.TID 0000.0001) // End MONITOR dynamic field statistics
(PID.TID 0000.0001) // =======================================================
 cg2d: Sum(rhs),rhsMax =  -9.46442924032453E-12  4.24900188029913E+00
(PID.TID 0000.0001)                    cg2d_init_res =    4.48217043017962E-01
(PID.TID 0000.0001)                       cg2d_iters =    63
(PID.TID 0000.0001)                         cg2d_res =    5.71174712175771E-07
(PID.TID 0000.0001) // =======================================================
(PID.TID 0000.0001) // Begin MONITOR dynamic field statistics
(PID.TID 0000.0001) // =======================================================
(PID.TID 0000.0001) %MON time_tsnumber                =                 72007
(PID.TID 0000.0001) %MON time_secondsf                =   6.2214048000000E+09
(PID.TID 0000.0001) %MON dynstat_eta_max              =   9.0951256967180E-01
(PID.TID 0000.0001) %MON dynstat_eta_min              =  -1.6166822118263E+00
(PID.TID 0000.0001) %MON dynstat_eta_mean             =   1.4592452685586E-14
(PID.TID 0000.0001) %MON dynstat_eta_sd               =   5.9774496526701E-01
(PID.TID 0000.0001) %MON dynstat_eta_del2             =   7.8655330859747E-04
(PID.TID 0000.0001) %MON dynstat_uvel_max             =   1.8796706498989E-01
(PID.TID 0000.0001) %MON dynstat_uvel_min             =  -2.8560670982847E-01
(PID.TID 0000.0001) %MON dynstat_uvel_mean            =  -4.8726979715810E-04
(PID.TID 0000.0001) %MON dynstat_uvel_sd              =   1.2017811041312E-02
(PID.TID 0000.0001) %MON dynstat_uvel_del2            =   5.1063432036691E-05
(PID.TID 0000.0001) %MON dynstat_vvel_max             =   1.7476927329614E-01
(PID.TID 0000.0001) %MON dynstat_vvel_min             =  -2.2490691668108E-01
(PID.TID 0000.0001) %MON dynstat_vvel_mean            =  -4.0190609542072E-04
(PID.TID 0000.0001) %MON dynstat_vvel_sd              =   1.2659412986651E-02
(PID.TID 0000.0001) %MON dynstat_vvel_del2            =   5.0401164542598E-05
(PID.TID 0000.0001) %MON dynstat_wvel_max             =   1.0525788111930E-04
(PID.TID 0000.0001) %MON dynstat_wvel_min             =  -2.0576848213951E-04
(PID.TID 0000.0001) %MON dynstat_wvel_mean            =   8.1968289523623E-11
(PID.TID 0000.0001) %MON dynstat_wvel_sd              =   3.8289636438576E-06
(PID.TID 0000.0001) %MON dynstat_wvel_del2            =   2.6584711559793E-08
(PID.TID 0000.0001) %MON dynstat_theta_max            =   3.0997121150188E+01
(PID.TID 0000.0001) %MON dynstat_theta_min            =  -2.0282440161484E+00
(PID.TID 0000.0001) %MON dynstat_theta_mean           =   3.9095373802613E+00
(PID.TID 0000.0001) %MON dynstat_theta_sd             =   4.5709954467397E+00
(PID.TID 0000.0001) %MON dynstat_theta_del2           =   2.5810590527736E-03
(PID.TID 0000.0001) %MON dynstat_salt_max             =   4.1388844256905E+01
(PID.TID 0000.0001) %MON dynstat_salt_min             =   1.8385869696399E+01
(PID.TID 0000.0001) %MON dynstat_salt_mean            =   3.4772071470256E+01
(PID.TID 0000.0001) %MON dynstat_salt_sd              =   5.3132875528589E-01
(PID.TID 0000.0001) %MON dynstat_salt_del2            =   7.8442594033379E-04
(PID.TID 0000.0001) %MON forcing_qnet_max             =   4.5288150232768E+02
(PID.TID 0000.0001) %MON forcing_qnet_min             =  -2.0919161859792E+02
(PID.TID 0000.0001) %MON forcing_qnet_mean            =  -1.2219192603503E+01
(PID.TID 0000.0001) %MON forcing_qnet_sd              =   1.1452259813662E+02
(PID.TID 0000.0001) %MON forcing_qnet_del2            =   4.2405268227766E-01
(PID.TID 0000.0001) %MON forcing_qsw_max              =   0.0000000000000E+00
(PID.TID 0000.0001) %MON forcing_qsw_min              =   0.0000000000000E+00
(PID.TID 0000.0001) %MON forcing_qsw_mean             =   0.0000000000000E+00
(PID.TID 0000.0001) %MON forcing_qsw_sd               =   0.0000000000000E+00
(PID.TID 0000.0001) %MON forcing_qsw_del2             =   0.0000000000000E+00
(PID.TID 0000.0001) %MON forcing_empmr_max            =   7.6494447208479E-05
(PID.TID 0000.0001) %MON forcing_empmr_min            =  -1.5362614137596E-04
(PID.TID 0000.0001) %MON forcing_empmr_mean           =   4.1932798010144E-22
(PID.TID 0000.0001) %MON forcing_empmr_sd             =   2.4051723601802E-05
(PID.TID 0000.0001) %MON forcing_empmr_del2           =   1.2276157049243E-07
(PID.TID 0000.0001) %MON forcing_fu_max               =   2.4731784009269E-01
(PID.TID 0000.0001) %MON forcing_fu_min               =  -2.2180668969530E-01
(PID.TID 0000.0001) %MON forcing_fu_mean              =  -4.2870070504621E-03
(PID.TID 0000.0001) %MON forcing_fu_sd                =   6.4197640910106E-02
(PID.TID 0000.0001) %MON forcing_fu_del2              =   2.0958789804308E-04
(PID.TID 0000.0001) %MON forcing_fv_max               =   2.6891042987167E-01
(PID.TID 0000.0001) %MON forcing_fv_min               =  -3.3164734762358E-01
(PID.TID 0000.0001) %MON forcing_fv_mean              =  -1.3708054794422E-02
(PID.TID 0000.0001) %MON forcing_fv_sd                =   7.5544817904543E-02
(PID.TID 0000.0001) %MON forcing_fv_del2              =   2.3785256950118E-04
(PID.TID 0000.0001) %MON advcfl_uvel_max              =   8.1003480491499E-02
(PID.TID 0000.0001) %MON advcfl_vvel_max              =   7.6179464042832E-02
(PID.TID 0000.0001) %MON advcfl_wvel_max              =   6.7088290025864E-02
(PID.TID 0000.0001) %MON advcfl_W_hf_max              =   7.4104439298083E-02
(PID.TID 0000.0001) %MON pe_b_mean                    =   4.7598835341122E-04
(PID.TID 0000.0001) %MON ke_max                       =   3.9918825977023E-02
(PID.TID 0000.0001) %MON ke_mean                      =   1.4088464557267E-04
(PID.TID 0000.0001) %MON ke_vol                       =   1.3398024453628E+18
(PID.TID 0000.0001) %MON vort_r_min                   =  -1.2146591421845E-06
(PID.TID 0000.0001) %MON vort_r_max                   =   1.2279540572124E-06
(PID.TID 0000.0001) %MON vort_a_mean                  =  -2.0493733748264E-05
(PID.TID 0000.0001) %MON vort_a_sd                    =   7.5053946877003E-05
(PID.TID 0000.0001) %MON vort_p_mean                  =  -2.4715773640580E-05
(PID.TID 0000.0001) %MON vort_p_sd                    =   1.2777073570664E-04
(PID.TID 0000.0001) %MON surfExpan_theta_mean         =   4.5286493471891E-08
(PID.TID 0000.0001) %MON surfExpan_salt_mean          =   1.4083216421871E-08
(PID.TID 0000.0001) // =======================================================
(PID.TID 0000.0001) // End MONITOR dynamic field statistics
(PID.TID 0000.0001) // =======================================================
 cg2d: Sum(rhs),rhsMax =  -9.26547727431171E-12  4.24513385460481E+00
(PID.TID 0000.0001)                    cg2d_init_res =    4.44922735524048E-01
(PID.TID 0000.0001)                       cg2d_iters =    63
(PID.TID 0000.0001)                         cg2d_res =    5.60855012218956E-07
(PID.TID 0000.0001) // =======================================================
(PID.TID 0000.0001) // Begin MONITOR dynamic field statistics
(PID.TID 0000.0001) // =======================================================
(PID.TID 0000.0001) %MON time_tsnumber                =                 72008
(PID.TID 0000.0001) %MON time_secondsf                =   6.2214912000000E+09
(PID.TID 0000.0001) %MON dynstat_eta_max              =   9.0798868515405E-01
(PID.TID 0000.0001) %MON dynstat_eta_min              =  -1.6162540977208E+00
(PID.TID 0000.0001) %MON dynstat_eta_mean             =   1.4262679743539E-14
(PID.TID 0000.0001) %MON dynstat_eta_sd               =   5.9763395943797E-01
(PID.TID 0000.0001) %MON dynstat_eta_del2             =   7.8597633689403E-04
(PID.TID 0000.0001) %MON dynstat_uvel_max             =   1.8793326649712E-01
(PID.TID 0000.0001) %MON dynstat_uvel_min             =  -2.8517385549092E-01
(PID.TID 0000.0001) %MON dynstat_uvel_mean            =  -4.8691861539209E-04
(PID.TID 0000.0001) %MON dynstat_uvel_sd              =   1.2017096637437E-02
(PID.TID 0000.0001) %MON dynstat_uvel_del2            =   5.1035091123591E-05
(PID.TID 0000.0001) %MON dynstat_vvel_max             =   1.7473389414898E-01
(PID.TID 0000.0001) %MON dynstat_vvel_min             =  -2.2483537976708E-01
(PID.TID 0000.0001) %MON dynstat_vvel_mean            =  -4.0159034313007E-04
(PID.TID 0000.0001) %MON dynstat_vvel_sd              =   1.2661668976111E-02
(PID.TID 0000.0001) %MON dynstat_vvel_del2            =   5.0366843123237E-05
(PID.TID 0000.0001) %MON dynstat_wvel_max             =   1.0582457086657E-04
(PID.TID 0000.0001) %MON dynstat_wvel_min             =  -2.0581346844637E-04
(PID.TID 0000.0001) %MON dynstat_wvel_mean            =   1.0198555005220E-10
(PID.TID 0000.0001) %MON dynstat_wvel_sd              =   3.8287357217391E-06
(PID.TID 0000.0001) %MON dynstat_wvel_del2            =   2.6627844624129E-08
(PID.TID 0000.0001) %MON dynstat_theta_max            =   3.1005612480540E+01
(PID.TID 0000.0001) %MON dynstat_theta_min            =  -2.0328236557504E+00
(PID.TID 0000.0001) %MON dynstat_theta_mean           =   3.9095964548271E+00
(PID.TID 0000.0001) %MON dynstat_theta_sd             =   4.5710061902258E+00
(PID.TID 0000.0001) %MON dynstat_theta_del2           =   2.5722855068384E-03
(PID.TID 0000.0001) %MON dynstat_salt_max             =   4.1389145261654E+01
(PID.TID 0000.0001) %MON dynstat_salt_min             =   1.8386245271683E+01
(PID.TID 0000.0001) %MON dynstat_salt_mean            =   3.4772071933045E+01
(PID.TID 0000.0001) %MON dynstat_salt_sd              =   5.3131170993609E-01
(PID.TID 0000.0001) %MON dynstat_salt_del2            =   7.8150138903324E-04
(PID.TID 0000.0001) %MON forcing_qnet_max             =   4.5278704135979E+02
(PID.TID 0000.0001) %MON forcing_qnet_min             =  -2.0821926461131E+02
(PID.TID 0000.0001) %MON forcing_qnet_mean            =  -1.2231420972146E+01
(PID.TID 0000.0001) %MON forcing_qnet_sd              =   1.1435735176461E+02
(PID.TID 0000.0001) %MON forcing_qnet_del2            =   4.2574043278125E-01
(PID.TID 0000.0001) %MON forcing_qsw_max              =   0.0000000000000E+00
(PID.TID 0000.0001) %MON forcing_qsw_min              =   0.0000000000000E+00
(PID.TID 0000.0001) %MON forcing_qsw_mean             =   0.0000000000000E+00
(PID.TID 0000.0001) %MON forcing_qsw_sd               =   0.0000000000000E+00
(PID.TID 0000.0001) %MON forcing_qsw_del2             =   0.0000000000000E+00
(PID.TID 0000.0001) %MON forcing_empmr_max            =   7.6494447208479E-05
(PID.TID 0000.0001) %MON forcing_empmr_min            =  -1.5362614137596E-04
(PID.TID 0000.0001) %MON forcing_empmr_mean           =   0.0000000000000E+00
(PID.TID 0000.0001) %MON forcing_empmr_sd             =   2.4051723601802E-05
(PID.TID 0000.0001) %MON forcing_empmr_del2           =   1.2276157049243E-07
(PID.TID 0000.0001) %MON forcing_fu_max               =   2.4726979082249E-01
(PID.TID 0000.0001) %MON forcing_fu_min               =  -2.2495248635365E-01
(PID.TID 0000.0001) %MON forcing_fu_mean              =  -4.2435281147287E-03
(PID.TID 0000.0001) %MON forcing_fu_sd                =   6.4287840534767E-02
(PID.TID 0000.0001) %MON forcing_fu_del2              =   2.1115214806548E-04
(PID.TID 0000.0001) %MON forcing_fv_max               =   2.7159367144430E-01
(PID.TID 0000.0001) %MON forcing_fv_min               =  -3.3243525155752E-01
(PID.TID 0000.0001) %MON forcing_fv_mean              =  -1.3711980340349E-02
(PID.TID 0000.0001) %MON forcing_fv_sd                =   7.5645935346452E-02
(PID.TID 0000.0001) %MON forcing_fv_del2              =   2.3922805906111E-04
(PID.TID 0000.0001) %MON advcfl_uvel_max              =   8.0880714790692E-02
(PID.TID 0000.0001) %MON advcfl_vvel_max              =   7.6164042771012E-02
(PID.TID 0000.0001) %MON advcfl_wvel_max              =   6.7102957259495E-02
(PID.TID 0000.0001) %MON advcfl_W_hf_max              =   7.4120669675463E-02
(PID.TID 0000.0001) %MON pe_b_mean                    =   4.7581158044385E-04
(PID.TID 0000.0001) %MON ke_max                       =   3.9793761837226E-02
(PID.TID 0000.0001) %MON ke_mean                      =   1.4090299350221E-04
(PID.TID 0000.0001) %MON ke_vol                       =   1.3398024453628E+18
(PID.TID 0000.0001) %MON vort_r_min                   =  -1.2195556522406E-06
(PID.TID 0000.0001) %MON vort_r_max                   =   1.2308442486909E-06
(PID.TID 0000.0001) %MON vort_a_mean                  =  -2.0493733748264E-05
(PID.TID 0000.0001) %MON vort_a_sd                    =   7.5053946712657E-05
(PID.TID 0000.0001) %MON vort_p_mean                  =  -2.4715773615945E-05
(PID.TID 0000.0001) %MON vort_p_sd                    =   1.2777073075735E-04
(PID.TID 0000.0001) %MON surfExpan_theta_mean         =   4.6496995048223E-08
(PID.TID 0000.0001) %MON surfExpan_salt_mean          =   1.4098603439224E-08
(PID.TID 0000.0001) // =======================================================
(PID.TID 0000.0001) // End MONITOR dynamic field statistics
(PID.TID 0000.0001) // =======================================================
 cg2d: Sum(rhs),rhsMax =  -9.74864633462857E-12  4.24159888286032E+00
(PID.TID 0000.0001)                    cg2d_init_res =    4.41698810649508E-01
(PID.TID 0000.0001)                       cg2d_iters =    63
(PID.TID 0000.0001)                         cg2d_res =    5.49234770342481E-07
(PID.TID 0000.0001) // =======================================================
(PID.TID 0000.0001) // Begin MONITOR dynamic field statistics
(PID.TID 0000.0001) // =======================================================
(PID.TID 0000.0001) %MON time_tsnumber                =                 72009
(PID.TID 0000.0001) %MON time_secondsf                =   6.2215776000000E+09
(PID.TID 0000.0001) %MON dynstat_eta_max              =   9.0655172250325E-01
(PID.TID 0000.0001) %MON dynstat_eta_min              =  -1.6158162583785E+00
(PID.TID 0000.0001) %MON dynstat_eta_mean             =   1.4097793272515E-14
(PID.TID 0000.0001) %MON dynstat_eta_sd               =   5.9752707560561E-01
(PID.TID 0000.0001) %MON dynstat_eta_del2             =   7.8545405996265E-04
(PID.TID 0000.0001) %MON dynstat_uvel_max             =   1.8783165831858E-01
(PID.TID 0000.0001) %MON dynstat_uvel_min             =  -2.8472461988630E-01
(PID.TID 0000.0001) %MON dynstat_uvel_mean            =  -4.8650545107994E-04
(PID.TID 0000.0001) %MON dynstat_uvel_sd              =   1.2016466354790E-02
(PID.TID 0000.0001) %MON dynstat_uvel_del2            =   5.1006129465565E-05
(PID.TID 0000.0001) %MON dynstat_vvel_max             =   1.7464281968633E-01
(PID.TID 0000.0001) %MON dynstat_vvel_min             =  -2.2475804818709E-01
(PID.TID 0000.0001) %MON dynstat_vvel_mean            =  -4.0132324808687E-04
(PID.TID 0000.0001) %MON dynstat_vvel_sd              =   1.2663515116967E-02
(PID.TID 0000.0001) %MON dynstat_vvel_del2            =   5.0332635594337E-05
(PID.TID 0000.0001) %MON dynstat_wvel_max             =   1.0642149647515E-04
(PID.TID 0000.0001) %MON dynstat_wvel_min             =  -2.0579215873828E-04
(PID.TID 0000.0001) %MON dynstat_wvel_mean            =   1.2716729484265E-10
(PID.TID 0000.0001) %MON dynstat_wvel_sd              =   3.8288341235534E-06
(PID.TID 0000.0001) %MON dynstat_wvel_del2            =   2.6675248256218E-08
(PID.TID 0000.0001) %MON dynstat_theta_max            =   3.1013742413343E+01
(PID.TID 0000.0001) %MON dynstat_theta_min            =  -2.0374915207182E+00
(PID.TID 0000.0001) %MON dynstat_theta_mean           =   3.9096557959285E+00
(PID.TID 0000.0001) %MON dynstat_theta_sd             =   4.5710229713478E+00
(PID.TID 0000.0001) %MON dynstat_theta_del2           =   2.5651864894110E-03
(PID.TID 0000.0001) %MON dynstat_salt_max             =   4.1389429301206E+01
(PID.TID 0000.0001) %MON dynstat_salt_min             =   1.8386626602993E+01
(PID.TID 0000.0001) %MON dynstat_salt_mean            =   3.4772072410379E+01
(PID.TID 0000.0001) %MON dynstat_salt_sd              =   5.3129430490127E-01
(PID.TID 0000.0001) %MON dynstat_salt_del2            =   7.7942695406694E-04
(PID.TID 0000.0001) %MON forcing_qnet_max             =   4.5269258039189E+02
(PID.TID 0000.0001) %MON forcing_qnet_min             =  -2.0724691062470E+02
(PID.TID 0000.0001) %MON forcing_qnet_mean            =  -1.2243649340789E+01
(PID.TID 0000.0001) %MON forcing_qnet_sd              =   1.1419883834096E+02
(PID.TID 0000.0001) %MON forcing_qnet_del2            =   4.2754265772092E-01
(PID.TID 0000.0001) %MON forcing_qsw_max              =   0.0000000000000E+00
(PID.TID 0000.0001) %MON forcing_qsw_min              =   0.0000000000000E+00
(PID.TID 0000.0001) %MON forcing_qsw_mean             =   0.0000000000000E+00
(PID.TID 0000.0001) %MON forcing_qsw_sd               =   0.0000000000000E+00
(PID.TID 0000.0001) %MON forcing_qsw_del2             =   0.0000000000000E+00
(PID.TID 0000.0001) %MON forcing_empmr_max            =   7.6494447208479E-05
(PID.TID 0000.0001) %MON forcing_empmr_min            =  -1.5362614137596E-04
(PID.TID 0000.0001) %MON forcing_empmr_mean           =   0.0000000000000E+00
(PID.TID 0000.0001) %MON forcing_empmr_sd             =   2.4051723601802E-05
(PID.TID 0000.0001) %MON forcing_empmr_del2           =   1.2276157049243E-07
(PID.TID 0000.0001) %MON forcing_fu_max               =   2.4722174155228E-01
(PID.TID 0000.0001) %MON forcing_fu_min               =  -2.2809828301201E-01
(PID.TID 0000.0001) %MON forcing_fu_mean              =  -4.2000491789953E-03
(PID.TID 0000.0001) %MON forcing_fu_sd                =   6.4391296774987E-02
(PID.TID 0000.0001) %MON forcing_fu_del2              =   2.1293834199113E-04
(PID.TID 0000.0001) %MON forcing_fv_max               =   2.7427691301694E-01
(PID.TID 0000.0001) %MON forcing_fv_min               =  -3.3322315549145E-01
(PID.TID 0000.0001) %MON forcing_fv_mean              =  -1.3715905886277E-02
(PID.TID 0000.0001) %MON forcing_fv_sd                =   7.5757214244312E-02
(PID.TID 0000.0001) %MON forcing_fv_del2              =   2.4079325037298E-04
(PID.TID 0000.0001) %MON advcfl_uvel_max              =   8.0753303051814E-02
(PID.TID 0000.0001) %MON advcfl_vvel_max              =   7.6124344695822E-02
(PID.TID 0000.0001) %MON advcfl_wvel_max              =   6.7096009490517E-02
(PID.TID 0000.0001) %MON advcfl_W_hf_max              =   7.4113036959453E-02
(PID.TID 0000.0001) %MON pe_b_mean                    =   4.7564140263962E-04
(PID.TID 0000.0001) %MON ke_max                       =   3.9665461991080E-02
(PID.TID 0000.0001) %MON ke_mean                      =   1.4091745192101E-04
(PID.TID 0000.0001) %MON ke_vol                       =   1.3398024453628E+18
(PID.TID 0000.0001) %MON vort_r_min                   =  -1.2244864079578E-06
(PID.TID 0000.0001) %MON vort_r_max                   =   1.2338256436042E-06
(PID.TID 0000.0001) %MON vort_a_mean                  =  -2.0493733748264E-05
(PID.TID 0000.0001) %MON vort_a_sd                    =   7.5053946544476E-05
(PID.TID 0000.0001) %MON vort_p_mean                  =  -2.4715773598078E-05
(PID.TID 0000.0001) %MON vort_p_sd                    =   1.2777072578426E-04
(PID.TID 0000.0001) %MON surfExpan_theta_mean         =   4.7573065878727E-08
(PID.TID 0000.0001) %MON surfExpan_salt_mean          =   1.4098817062891E-08
(PID.TID 0000.0001) // =======================================================
(PID.TID 0000.0001) // End MONITOR dynamic field statistics
(PID.TID 0000.0001) // =======================================================
 cg2d: Sum(rhs),rhsMax =  -9.77706804405898E-12  4.23840118673925E+00
(PID.TID 0000.0001)                    cg2d_init_res =    4.39396877334132E-01
(PID.TID 0000.0001)                       cg2d_iters =    63
(PID.TID 0000.0001)                         cg2d_res =    5.44070549747320E-07
(PID.TID 0000.0001) // =======================================================
(PID.TID 0000.0001) // Begin MONITOR dynamic field statistics
(PID.TID 0000.0001) // =======================================================
(PID.TID 0000.0001) %MON time_tsnumber                =                 72010
(PID.TID 0000.0001) %MON time_secondsf                =   6.2216640000000E+09
(PID.TID 0000.0001) %MON dynstat_eta_max              =   9.0518192489033E-01
(PID.TID 0000.0001) %MON dynstat_eta_min              =  -1.6153539008519E+00
(PID.TID 0000.0001) %MON dynstat_eta_mean             =   1.4207717586531E-14
(PID.TID 0000.0001) %MON dynstat_eta_sd               =   5.9742344393472E-01
(PID.TID 0000.0001) %MON dynstat_eta_del2             =   7.8500708571948E-04
(PID.TID 0000.0001) %MON dynstat_uvel_max             =   1.8766338452361E-01
(PID.TID 0000.0001) %MON dynstat_uvel_min             =  -2.8426018501581E-01
(PID.TID 0000.0001) %MON dynstat_uvel_mean            =  -4.8601342217037E-04
(PID.TID 0000.0001) %MON dynstat_uvel_sd              =   1.2015949388952E-02
(PID.TID 0000.0001) %MON dynstat_uvel_del2            =   5.0976805444377E-05
(PID.TID 0000.0001) %MON dynstat_vvel_max             =   1.7449893042406E-01
(PID.TID 0000.0001) %MON dynstat_vvel_min             =  -2.2467539736523E-01
(PID.TID 0000.0001) %MON dynstat_vvel_mean            =  -4.0107979793217E-04
(PID.TID 0000.0001) %MON dynstat_vvel_sd              =   1.2664900671851E-02
(PID.TID 0000.0001) %MON dynstat_vvel_del2            =   5.0298601624113E-05
(PID.TID 0000.0001) %MON dynstat_wvel_max             =   1.0703542482621E-04
(PID.TID 0000.0001) %MON dynstat_wvel_min             =  -2.0570060420177E-04
(PID.TID 0000.0001) %MON dynstat_wvel_mean            =   1.5208441576271E-10
(PID.TID 0000.0001) %MON dynstat_wvel_sd              =   3.8292195649083E-06
(PID.TID 0000.0001) %MON dynstat_wvel_del2            =   2.6725101307577E-08
(PID.TID 0000.0001) %MON dynstat_theta_max            =   3.1021529847015E+01
(PID.TID 0000.0001) %MON dynstat_theta_min            =  -2.0422353488081E+00
(PID.TID 0000.0001) %MON dynstat_theta_mean           =   3.9097153933018E+00
(PID.TID 0000.0001) %MON dynstat_theta_sd             =   4.5710475285090E+00
(PID.TID 0000.0001) %MON dynstat_theta_del2           =   2.5569205643736E-03
(PID.TID 0000.0001) %MON dynstat_salt_max             =   4.1389696016582E+01
(PID.TID 0000.0001) %MON dynstat_salt_min             =   1.8387013631242E+01
(PID.TID 0000.0001) %MON dynstat_salt_mean            =   3.4772072901376E+01
(PID.TID 0000.0001) %MON dynstat_salt_sd              =   5.3127679464304E-01
(PID.TID 0000.0001) %MON dynstat_salt_del2            =   7.7683004215912E-04
(PID.TID 0000.0001) %MON forcing_qnet_max             =   4.5259811942399E+02
(PID.TID 0000.0001) %MON forcing_qnet_min             =  -2.0627455663810E+02
(PID.TID 0000.0001) %MON forcing_qnet_mean            =  -1.2255877709432E+01
(PID.TID 0000.0001) %MON forcing_qnet_sd              =   1.1404708593992E+02
(PID.TID 0000.0001) %MON forcing_qnet_del2            =   4.2945791591934E-01
(PID.TID 0000.0001) %MON forcing_qsw_max              =   0.0000000000000E+00
(PID.TID 0000.0001) %MON forcing_qsw_min              =   0.0000000000000E+00
(PID.TID 0000.0001) %MON forcing_qsw_mean             =   0.0000000000000E+00
(PID.TID 0000.0001) %MON forcing_qsw_sd               =   0.0000000000000E+00
(PID.TID 0000.0001) %MON forcing_qsw_del2             =   0.0000000000000E+00
(PID.TID 0000.0001) %MON forcing_empmr_max            =   7.6494447208479E-05
(PID.TID 0000.0001) %MON forcing_empmr_min            =  -1.5362614137596E-04
(PID.TID 0000.0001) %MON forcing_empmr_mean           =   4.1932798010144E-22
(PID.TID 0000.0001) %MON forcing_empmr_sd             =   2.4051723601802E-05
(PID.TID 0000.0001) %MON forcing_empmr_del2           =   1.2276157049243E-07
(PID.TID 0000.0001) %MON forcing_fu_max               =   2.4734156444157E-01
(PID.TID 0000.0001) %MON forcing_fu_min               =  -2.3124407967036E-01
(PID.TID 0000.0001) %MON forcing_fu_mean              =  -4.1565702432618E-03
(PID.TID 0000.0001) %MON forcing_fu_sd                =   6.4507945848906E-02
(PID.TID 0000.0001) %MON forcing_fu_del2              =   2.1494094672237E-04
(PID.TID 0000.0001) %MON forcing_fv_max               =   2.7696015458957E-01
(PID.TID 0000.0001) %MON forcing_fv_min               =  -3.3401105942538E-01
(PID.TID 0000.0001) %MON forcing_fv_mean              =  -1.3719831432204E-02
(PID.TID 0000.0001) %MON forcing_fv_sd                =   7.5878609891640E-02
(PID.TID 0000.0001) %MON forcing_fv_del2              =   2.4254447090673E-04
(PID.TID 0000.0001) %MON advcfl_uvel_max              =   8.0621580512823E-02
(PID.TID 0000.0001) %MON advcfl_vvel_max              =   7.6061625393542E-02
(PID.TID 0000.0001) %MON advcfl_wvel_max              =   6.7066159256729E-02
(PID.TID 0000.0001) %MON advcfl_W_hf_max              =   7.4080089460456E-02
(PID.TID 0000.0001) %MON pe_b_mean                    =   4.7547643190976E-04
(PID.TID 0000.0001) %MON ke_max                       =   3.9533951570564E-02
(PID.TID 0000.0001) %MON ke_mean                      =   1.4092772759785E-04
(PID.TID 0000.0001) %MON ke_vol                       =   1.3398024453628E+18
(PID.TID 0000.0001) %MON vort_r_min                   =  -1.2294209888913E-06
(PID.TID 0000.0001) %MON vort_r_max                   =   1.2368419697004E-06
(PID.TID 0000.0001) %MON vort_a_mean                  =  -2.0493733748264E-05
(PID.TID 0000.0001) %MON vort_a_sd                    =   7.5053946378990E-05
(PID.TID 0000.0001) %MON vort_p_mean                  =  -2.4715773588626E-05
(PID.TID 0000.0001) %MON vort_p_sd                    =   1.2777072069856E-04
(PID.TID 0000.0001) %MON surfExpan_theta_mean         =   4.8484943878122E-08
(PID.TID 0000.0001) %MON surfExpan_salt_mean          =   1.4094716433931E-08
(PID.TID 0000.0001) // =======================================================
(PID.TID 0000.0001) // End MONITOR dynamic field statistics
(PID.TID 0000.0001) // =======================================================
 cg2d: Sum(rhs),rhsMax =  -9.69180291576777E-12  4.23553911170086E+00
(PID.TID 0000.0001)                    cg2d_init_res =    4.36201489359920E-01
(PID.TID 0000.0001)                       cg2d_iters =    63
(PID.TID 0000.0001)                         cg2d_res =    5.41732709962053E-07
(PID.TID 0000.0001) // =======================================================
(PID.TID 0000.0001) // Begin MONITOR dynamic field statistics
(PID.TID 0000.0001) // =======================================================
(PID.TID 0000.0001) %MON time_tsnumber                =                 72011
(PID.TID 0000.0001) %MON time_secondsf                =   6.2217504000000E+09
(PID.TID 0000.0001) %MON dynstat_eta_max              =   9.0385582779996E-01
(PID.TID 0000.0001) %MON dynstat_eta_min              =  -1.6148611883141E+00
(PID.TID 0000.0001) %MON dynstat_eta_mean             =   1.4152755429523E-14
(PID.TID 0000.0001) %MON dynstat_eta_sd               =   5.9732323562528E-01
(PID.TID 0000.0001) %MON dynstat_eta_del2             =   7.8460705991201E-04
(PID.TID 0000.0001) %MON dynstat_uvel_max             =   1.8743051004801E-01
(PID.TID 0000.0001) %MON dynstat_uvel_min             =  -2.8378160698143E-01
(PID.TID 0000.0001) %MON dynstat_uvel_mean            =  -4.8544146468304E-04
(PID.TID 0000.0001) %MON dynstat_uvel_sd              =   1.2015565704497E-02
(PID.TID 0000.0001) %MON dynstat_uvel_del2            =   5.0947603432829E-05
(PID.TID 0000.0001) %MON dynstat_vvel_max             =   1.7430566028217E-01
(PID.TID 0000.0001) %MON dynstat_vvel_min             =  -2.2458783822462E-01
(PID.TID 0000.0001) %MON dynstat_vvel_mean            =  -4.0083382828562E-04
(PID.TID 0000.0001) %MON dynstat_vvel_sd              =   1.2665788084133E-02
(PID.TID 0000.0001) %MON dynstat_vvel_del2            =   5.0264734879213E-05
(PID.TID 0000.0001) %MON dynstat_wvel_max             =   1.0765402824173E-04
(PID.TID 0000.0001) %MON dynstat_wvel_min             =  -2.0553727275366E-04
(PID.TID 0000.0001) %MON dynstat_wvel_mean            =   1.7194435269546E-10
(PID.TID 0000.0001) %MON dynstat_wvel_sd              =   3.8298622213936E-06
(PID.TID 0000.0001) %MON dynstat_wvel_del2            =   2.6776843188148E-08
(PID.TID 0000.0001) %MON dynstat_theta_max            =   3.1028993581970E+01
(PID.TID 0000.0001) %MON dynstat_theta_min            =  -2.0470443231468E+00
(PID.TID 0000.0001) %MON dynstat_theta_mean           =   3.9097753514976E+00
(PID.TID 0000.0001) %MON dynstat_theta_sd             =   4.5710793660230E+00
(PID.TID 0000.0001) %MON dynstat_theta_del2           =   2.5489141224199E-03
(PID.TID 0000.0001) %MON dynstat_salt_max             =   4.1389945595581E+01
(PID.TID 0000.0001) %MON dynstat_salt_min             =   1.8387406313175E+01
(PID.TID 0000.0001) %MON dynstat_salt_mean            =   3.4772073408753E+01
(PID.TID 0000.0001) %MON dynstat_salt_sd              =   5.3125952615842E-01
(PID.TID 0000.0001) %MON dynstat_salt_del2            =   7.7426887932779E-04
(PID.TID 0000.0001) %MON forcing_qnet_max             =   4.5250365845610E+02
(PID.TID 0000.0001) %MON forcing_qnet_min             =  -2.0572520854632E+02
(PID.TID 0000.0001) %MON forcing_qnet_mean            =  -1.2268106078075E+01
(PID.TID 0000.0001) %MON forcing_qnet_sd              =   1.1390212158476E+02
(PID.TID 0000.0001) %MON forcing_qnet_del2            =   4.3148470219571E-01
(PID.TID 0000.0001) %MON forcing_qsw_max              =   0.0000000000000E+00
(PID.TID 0000.0001) %MON forcing_qsw_min              =   0.0000000000000E+00
(PID.TID 0000.0001) %MON forcing_qsw_mean             =   0.0000000000000E+00
(PID.TID 0000.0001) %MON forcing_qsw_sd               =   0.0000000000000E+00
(PID.TID 0000.0001) %MON forcing_qsw_del2             =   0.0000000000000E+00
(PID.TID 0000.0001) %MON forcing_empmr_max            =   7.6494447208479E-05
(PID.TID 0000.0001) %MON forcing_empmr_min            =  -1.5362614137596E-04
(PID.TID 0000.0001) %MON forcing_empmr_mean           =   4.1932798010144E-22
(PID.TID 0000.0001) %MON forcing_empmr_sd             =   2.4051723601802E-05
(PID.TID 0000.0001) %MON forcing_empmr_del2           =   1.2276157049243E-07
(PID.TID 0000.0001) %MON forcing_fu_max               =   2.4760593894036E-01
(PID.TID 0000.0001) %MON forcing_fu_min               =  -2.3438987632871E-01
(PID.TID 0000.0001) %MON forcing_fu_mean              =  -4.1130913075284E-03
(PID.TID 0000.0001) %MON forcing_fu_sd                =   6.4637716330841E-02
(PID.TID 0000.0001) %MON forcing_fu_del2              =   2.1715397508819E-04
(PID.TID 0000.0001) %MON forcing_fv_max               =   2.7964339616220E-01
(PID.TID 0000.0001) %MON forcing_fv_min               =  -3.3479896335931E-01
(PID.TID 0000.0001) %MON forcing_fv_mean              =  -1.3723756978131E-02
(PID.TID 0000.0001) %MON forcing_fv_sd                =   7.6010073816084E-02
(PID.TID 0000.0001) %MON forcing_fv_del2              =   2.4447772305236E-04
(PID.TID 0000.0001) %MON advcfl_uvel_max              =   8.0485846704275E-02
(PID.TID 0000.0001) %MON advcfl_vvel_max              =   7.5977381661522E-02
(PID.TID 0000.0001) %MON advcfl_wvel_max              =   6.7012907041194E-02
(PID.TID 0000.0001) %MON advcfl_W_hf_max              =   7.4021288172729E-02
(PID.TID 0000.0001) %MON pe_b_mean                    =   4.7531693802343E-04
(PID.TID 0000.0001) %MON ke_max                       =   3.9399277748092E-02
(PID.TID 0000.0001) %MON ke_mean                      =   1.4093358727548E-04
(PID.TID 0000.0001) %MON ke_vol                       =   1.3398024453628E+18
(PID.TID 0000.0001) %MON vort_r_min                   =  -1.2343308844062E-06
(PID.TID 0000.0001) %MON vort_r_max                   =   1.2398368543121E-06
(PID.TID 0000.0001) %MON vort_a_mean                  =  -2.0493733748264E-05
(PID.TID 0000.0001) %MON vort_a_sd                    =   7.5053946222411E-05
(PID.TID 0000.0001) %MON vort_p_mean                  =  -2.4715773587879E-05
(PID.TID 0000.0001) %MON vort_p_sd                    =   1.2777071552624E-04
(PID.TID 0000.0001) %MON surfExpan_theta_mean         =   4.9196816887804E-08
(PID.TID 0000.0001) %MON surfExpan_salt_mean          =   1.4095218772051E-08
(PID.TID 0000.0001) // =======================================================
(PID.TID 0000.0001) // End MONITOR dynamic field statistics
(PID.TID 0000.0001) // =======================================================
 cg2d: Sum(rhs),rhsMax =  -9.91917659121100E-12  4.23300290462224E+00
(PID.TID 0000.0001)                    cg2d_init_res =    4.34086613195797E-01
(PID.TID 0000.0001)                       cg2d_iters =    63
(PID.TID 0000.0001)                         cg2d_res =    5.43207468210365E-07
(PID.TID 0000.0001) // =======================================================
(PID.TID 0000.0001) // Begin MONITOR dynamic field statistics
(PID.TID 0000.0001) // =======================================================
(PID.TID 0000.0001) %MON time_tsnumber                =                 72012
(PID.TID 0000.0001) %MON time_secondsf                =   6.2218368000000E+09
(PID.TID 0000.0001) %MON dynstat_eta_max              =   9.0256013400141E-01
(PID.TID 0000.0001) %MON dynstat_eta_min              =  -1.6143397405142E+00
(PID.TID 0000.0001) %MON dynstat_eta_mean             =   1.4372604057554E-14
(PID.TID 0000.0001) %MON dynstat_eta_sd               =   5.9722697956828E-01
(PID.TID 0000.0001) %MON dynstat_eta_del2             =   7.8426723658805E-04
(PID.TID 0000.0001) %MON dynstat_uvel_max             =   1.8713599652382E-01
(PID.TID 0000.0001) %MON dynstat_uvel_min             =  -2.8328982995623E-01
(PID.TID 0000.0001) %MON dynstat_uvel_mean            =  -4.8479982119839E-04
(PID.TID 0000.0001) %MON dynstat_uvel_sd              =   1.2015321203143E-02
(PID.TID 0000.0001) %MON dynstat_uvel_del2            =   5.0918839605248E-05
(PID.TID 0000.0001) %MON dynstat_vvel_max             =   1.7406677669394E-01
(PID.TID 0000.0001) %MON dynstat_vvel_min             =  -2.2449573008699E-01
(PID.TID 0000.0001) %MON dynstat_vvel_mean            =  -4.0056338334607E-04
(PID.TID 0000.0001) %MON dynstat_vvel_sd              =   1.2666155714524E-02
(PID.TID 0000.0001) %MON dynstat_vvel_del2            =   5.0231048349019E-05
(PID.TID 0000.0001) %MON dynstat_wvel_max             =   1.0826480143762E-04
(PID.TID 0000.0001) %MON dynstat_wvel_min             =  -2.0530164511023E-04
(PID.TID 0000.0001) %MON dynstat_wvel_mean            =   1.8346777922563E-10
(PID.TID 0000.0001) %MON dynstat_wvel_sd              =   3.8306986808756E-06
(PID.TID 0000.0001) %MON dynstat_wvel_del2            =   2.6828911927680E-08
(PID.TID 0000.0001) %MON dynstat_theta_max            =   3.1036152232689E+01
(PID.TID 0000.0001) %MON dynstat_theta_min            =  -2.0519087675843E+00
(PID.TID 0000.0001) %MON dynstat_theta_mean           =   3.9098355783294E+00
(PID.TID 0000.0001) %MON dynstat_theta_sd             =   4.5711182408549E+00
(PID.TID 0000.0001) %MON dynstat_theta_del2           =   2.5401260055910E-03
(PID.TID 0000.0001) %MON dynstat_salt_max             =   4.1390178179074E+01
(PID.TID 0000.0001) %MON dynstat_salt_min             =   1.8387804621298E+01
(PID.TID 0000.0001) %MON dynstat_salt_mean            =   3.4772073931072E+01
(PID.TID 0000.0001) %MON dynstat_salt_sd              =   5.3124213109545E-01
(PID.TID 0000.0001) %MON dynstat_salt_del2            =   7.7151047360873E-04
(PID.TID 0000.0001) %MON forcing_qnet_max             =   4.5240919748820E+02
(PID.TID 0000.0001) %MON forcing_qnet_min             =  -2.0540092066247E+02
(PID.TID 0000.0001) %MON forcing_qnet_mean            =  -1.2280334446718E+01
(PID.TID 0000.0001) %MON forcing_qnet_sd              =   1.1376397122458E+02
(PID.TID 0000.0001) %MON forcing_qnet_del2            =   4.3362145267556E-01
(PID.TID 0000.0001) %MON forcing_qsw_max              =   0.0000000000000E+00
(PID.TID 0000.0001) %MON forcing_qsw_min              =   0.0000000000000E+00
(PID.TID 0000.0001) %MON forcing_qsw_mean             =   0.0000000000000E+00
(PID.TID 0000.0001) %MON forcing_qsw_sd               =   0.0000000000000E+00
(PID.TID 0000.0001) %MON forcing_qsw_del2             =   0.0000000000000E+00
(PID.TID 0000.0001) %MON forcing_empmr_max            =   7.6494447208479E-05
(PID.TID 0000.0001) %MON forcing_empmr_min            =  -1.5362614137596E-04
(PID.TID 0000.0001) %MON forcing_empmr_mean           =   4.1932798010144E-22
(PID.TID 0000.0001) %MON forcing_empmr_sd             =   2.4051723601802E-05
(PID.TID 0000.0001) %MON forcing_empmr_del2           =   1.2276157049243E-07
(PID.TID 0000.0001) %MON forcing_fu_max               =   2.4787031343914E-01
(PID.TID 0000.0001) %MON forcing_fu_min               =  -2.3765894517478E-01
(PID.TID 0000.0001) %MON forcing_fu_mean              =  -4.0696123717949E-03
(PID.TID 0000.0001) %MON forcing_fu_sd                =   6.4780529365136E-02
(PID.TID 0000.0001) %MON forcing_fu_del2              =   2.1957106468296E-04
(PID.TID 0000.0001) %MON forcing_fv_max               =   2.8232663773484E-01
(PID.TID 0000.0001) %MON forcing_fv_min               =  -3.3558686729325E-01
(PID.TID 0000.0001) %MON forcing_fv_mean              =  -1.3727682524059E-02
(PID.TID 0000.0001) %MON forcing_fv_sd                =   7.6151553873676E-02
(PID.TID 0000.0001) %MON forcing_fv_del2              =   2.4658872547121E-04
(PID.TID 0000.0001) %MON advcfl_uvel_max              =   8.0346369411565E-02
(PID.TID 0000.0001) %MON advcfl_vvel_max              =   7.5873255670855E-02
(PID.TID 0000.0001) %MON advcfl_wvel_max              =   6.6936083537825E-02
(PID.TID 0000.0001) %MON advcfl_W_hf_max              =   7.3936449581009E-02
(PID.TID 0000.0001) %MON pe_b_mean                    =   4.7516375982720E-04
(PID.TID 0000.0001) %MON ke_max                       =   3.9261511595467E-02
(PID.TID 0000.0001) %MON ke_mean                      =   1.4093483666080E-04
(PID.TID 0000.0001) %MON ke_vol                       =   1.3398024453628E+18
(PID.TID 0000.0001) %MON vort_r_min                   =  -1.2391892299554E-06
(PID.TID 0000.0001) %MON vort_r_max                   =   1.2427547594512E-06
(PID.TID 0000.0001) %MON vort_a_mean                  =  -2.0493733748264E-05
(PID.TID 0000.0001) %MON vort_a_sd                    =   7.5053946079404E-05
(PID.TID 0000.0001) %MON vort_p_mean                  =  -2.4715773593991E-05
(PID.TID 0000.0001) %MON vort_p_sd                    =   1.2777071033750E-04
(PID.TID 0000.0001) %MON surfExpan_theta_mean         =   4.9698835407934E-08
(PID.TID 0000.0001) %MON surfExpan_salt_mean          =   1.4106332971848E-08
(PID.TID 0000.0001) // =======================================================
(PID.TID 0000.0001) // End MONITOR dynamic field statistics
(PID.TID 0000.0001) // =======================================================
 cg2d: Sum(rhs),rhsMax =  -9.86233317235019E-12  4.23077337950540E+00
(PID.TID 0000.0001)                    cg2d_init_res =    4.32569087906112E-01
(PID.TID 0000.0001)                       cg2d_iters =    63
(PID.TID 0000.0001)                         cg2d_res =    5.46507040186315E-07
(PID.TID 0000.0001) // =======================================================
(PID.TID 0000.0001) // Begin MONITOR dynamic field statistics
(PID.TID 0000.0001) // =======================================================
(PID.TID 0000.0001) %MON time_tsnumber                =                 72013
(PID.TID 0000.0001) %MON time_secondsf                =   6.2219232000000E+09
(PID.TID 0000.0001) %MON dynstat_eta_max              =   9.0129131138181E-01
(PID.TID 0000.0001) %MON dynstat_eta_min              =  -1.6137948869440E+00
(PID.TID 0000.0001) %MON dynstat_eta_mean             =   1.4372604057554E-14
(PID.TID 0000.0001) %MON dynstat_eta_sd               =   5.9713470713988E-01
(PID.TID 0000.0001) %MON dynstat_eta_del2             =   7.8397452740209E-04
(PID.TID 0000.0001) %MON dynstat_uvel_max             =   1.8678365440424E-01
(PID.TID 0000.0001) %MON dynstat_uvel_min             =  -2.8278567840733E-01
(PID.TID 0000.0001) %MON dynstat_uvel_mean            =  -4.8410968521959E-04
(PID.TID 0000.0001) %MON dynstat_uvel_sd              =   1.2015209504332E-02
(PID.TID 0000.0001) %MON dynstat_uvel_del2            =   5.0890870972954E-05
(PID.TID 0000.0001) %MON dynstat_vvel_max             =   1.7378619299065E-01
(PID.TID 0000.0001) %MON dynstat_vvel_min             =  -2.2439941073436E-01
(PID.TID 0000.0001) %MON dynstat_vvel_mean            =  -4.0025450188849E-04
(PID.TID 0000.0001) %MON dynstat_vvel_sd              =   1.2665997727241E-02
(PID.TID 0000.0001) %MON dynstat_vvel_del2            =   5.0197545833602E-05
(PID.TID 0000.0001) %MON dynstat_wvel_max             =   1.0885503624360E-04
(PID.TID 0000.0001) %MON dynstat_wvel_min             =  -2.0499453144446E-04
(PID.TID 0000.0001) %MON dynstat_wvel_mean            =   1.8637441187553E-10
(PID.TID 0000.0001) %MON dynstat_wvel_sd              =   3.8316575955967E-06
(PID.TID 0000.0001) %MON dynstat_wvel_del2            =   2.6879801097004E-08
(PID.TID 0000.0001) %MON dynstat_theta_max            =   3.1043023998267E+01
(PID.TID 0000.0001) %MON dynstat_theta_min            =  -2.0568199178648E+00
(PID.TID 0000.0001) %MON dynstat_theta_mean           =   3.9098960766044E+00
(PID.TID 0000.0001) %MON dynstat_theta_sd             =   4.5711600181039E+00
(PID.TID 0000.0001) %MON dynstat_theta_del2           =   2.5346120518116E-03
(PID.TID 0000.0001) %MON dynstat_salt_max             =   4.1390393835531E+01
(PID.TID 0000.0001) %MON dynstat_salt_min             =   1.8388208545741E+01
(PID.TID 0000.0001) %MON dynstat_salt_mean            =   3.4772074467810E+01
(PID.TID 0000.0001) %MON dynstat_salt_sd              =   5.3122336582862E-01
(PID.TID 0000.0001) %MON dynstat_salt_del2            =   7.6960214082025E-04
(PID.TID 0000.0001) %MON forcing_qnet_max             =   4.5231473652030E+02
(PID.TID 0000.0001) %MON forcing_qnet_min             =  -2.0507663277863E+02
(PID.TID 0000.0001) %MON forcing_qnet_mean            =  -1.2292562815361E+01
(PID.TID 0000.0001) %MON forcing_qnet_sd              =   1.1363265971198E+02
(PID.TID 0000.0001) %MON forcing_qnet_del2            =   4.3586655012794E-01
(PID.TID 0000.0001) %MON forcing_qsw_max              =   0.0000000000000E+00
(PID.TID 0000.0001) %MON forcing_qsw_min              =   0.0000000000000E+00
(PID.TID 0000.0001) %MON forcing_qsw_mean             =   0.0000000000000E+00
(PID.TID 0000.0001) %MON forcing_qsw_sd               =   0.0000000000000E+00
(PID.TID 0000.0001) %MON forcing_qsw_del2             =   0.0000000000000E+00
(PID.TID 0000.0001) %MON forcing_empmr_max            =   7.6494447208479E-05
(PID.TID 0000.0001) %MON forcing_empmr_min            =  -1.5362614137596E-04
(PID.TID 0000.0001) %MON forcing_empmr_mean           =   4.1932798010144E-22
(PID.TID 0000.0001) %MON forcing_empmr_sd             =   2.4051723601802E-05
(PID.TID 0000.0001) %MON forcing_empmr_del2           =   1.2276157049243E-07
(PID.TID 0000.0001) %MON forcing_fu_max               =   2.4813468793793E-01
(PID.TID 0000.0001) %MON forcing_fu_min               =  -2.4114197747619E-01
(PID.TID 0000.0001) %MON forcing_fu_mean              =  -4.0261334360615E-03
(PID.TID 0000.0001) %MON forcing_fu_sd                =   6.4936298899217E-02
(PID.TID 0000.0001) %MON forcing_fu_del2              =   2.2218555584494E-04
(PID.TID 0000.0001) %MON forcing_fv_max               =   2.8500987930747E-01
(PID.TID 0000.0001) %MON forcing_fv_min               =  -3.3637477122718E-01
(PID.TID 0000.0001) %MON forcing_fv_mean              =  -1.3731608069986E-02
(PID.TID 0000.0001) %MON forcing_fv_sd                =   7.6302994349070E-02
(PID.TID 0000.0001) %MON forcing_fv_del2              =   2.4887295503804E-04
(PID.TID 0000.0001) %MON advcfl_uvel_max              =   8.0203382469204E-02
(PID.TID 0000.0001) %MON advcfl_vvel_max              =   7.5750953187515E-02
(PID.TID 0000.0001) %MON advcfl_wvel_max              =   6.6835952893589E-02
(PID.TID 0000.0001) %MON advcfl_W_hf_max              =   7.3825866819444E-02
(PID.TID 0000.0001) %MON pe_b_mean                    =   4.7501694419935E-04
(PID.TID 0000.0001) %MON ke_max                       =   3.9120741974918E-02
(PID.TID 0000.0001) %MON ke_mean                      =   1.4093134025238E-04
(PID.TID 0000.0001) %MON ke_vol                       =   1.3398024453628E+18
(PID.TID 0000.0001) %MON vort_r_min                   =  -1.2439707629761E-06
(PID.TID 0000.0001) %MON vort_r_max                   =   1.2455418614613E-06
(PID.TID 0000.0001) %MON vort_a_mean                  =  -2.0493733748264E-05
(PID.TID 0000.0001) %MON vort_a_sd                    =   7.5053945952344E-05
(PID.TID 0000.0001) %MON vort_p_mean                  =  -2.4715773604943E-05
(PID.TID 0000.0001) %MON vort_p_sd                    =   1.2777070520739E-04
(PID.TID 0000.0001) %MON surfExpan_theta_mean         =   4.9970191958400E-08
(PID.TID 0000.0001) %MON surfExpan_salt_mean          =   1.4124049924982E-08
(PID.TID 0000.0001) // =======================================================
(PID.TID 0000.0001) // End MONITOR dynamic field statistics
(PID.TID 0000.0001) // =======================================================
 cg2d: Sum(rhs),rhsMax =  -9.74864633462857E-12  4.22882246149889E+00
(PID.TID 0000.0001)                    cg2d_init_res =    4.31328493843038E-01
(PID.TID 0000.0001)                       cg2d_iters =    63
(PID.TID 0000.0001)                         cg2d_res =    5.45096701481481E-07
(PID.TID 0000.0001) // =======================================================
(PID.TID 0000.0001) // Begin MONITOR dynamic field statistics
(PID.TID 0000.0001) // =======================================================
(PID.TID 0000.0001) %MON time_tsnumber                =                 72014
(PID.TID 0000.0001) %MON time_secondsf                =   6.2220096000000E+09
(PID.TID 0000.0001) %MON dynstat_eta_max              =   9.0004791303428E-01
(PID.TID 0000.0001) %MON dynstat_eta_min              =  -1.6132320561274E+00
(PID.TID 0000.0001) %MON dynstat_eta_mean             =   1.4207717586531E-14
(PID.TID 0000.0001) %MON dynstat_eta_sd               =   5.9704631903067E-01
(PID.TID 0000.0001) %MON dynstat_eta_del2             =   7.8381008313672E-04
(PID.TID 0000.0001) %MON dynstat_uvel_max             =   1.8637807449157E-01
(PID.TID 0000.0001) %MON dynstat_uvel_min             =  -2.8226983883808E-01
(PID.TID 0000.0001) %MON dynstat_uvel_mean            =  -4.8339453838321E-04
(PID.TID 0000.0001) %MON dynstat_uvel_sd              =   1.2015213078128E-02
(PID.TID 0000.0001) %MON dynstat_uvel_del2            =   5.0864046312494E-05
(PID.TID 0000.0001) %MON dynstat_vvel_max             =   1.7346774407770E-01
(PID.TID 0000.0001) %MON dynstat_vvel_min             =  -2.2429921688494E-01
(PID.TID 0000.0001) %MON dynstat_vvel_mean            =  -3.9990252626361E-04
(PID.TID 0000.0001) %MON dynstat_vvel_sd              =   1.2665325953224E-02
(PID.TID 0000.0001) %MON dynstat_vvel_del2            =   5.0164297754100E-05
(PID.TID 0000.0001) %MON dynstat_wvel_max             =   1.0941274474078E-04
(PID.TID 0000.0001) %MON dynstat_wvel_min             =  -2.0461772618663E-04
(PID.TID 0000.0001) %MON dynstat_wvel_mean            =   1.7867549920178E-10
(PID.TID 0000.0001) %MON dynstat_wvel_sd              =   3.8326787241339E-06
(PID.TID 0000.0001) %MON dynstat_wvel_del2            =   2.6928506681927E-08
(PID.TID 0000.0001) %MON dynstat_theta_max            =   3.1049626395314E+01
(PID.TID 0000.0001) %MON dynstat_theta_min            =  -2.0617696899101E+00
(PID.TID 0000.0001) %MON dynstat_theta_mean           =   3.9099568223676E+00
(PID.TID 0000.0001) %MON dynstat_theta_sd             =   4.5712110594405E+00
(PID.TID 0000.0001) %MON dynstat_theta_del2           =   2.5276789422591E-03
(PID.TID 0000.0001) %MON dynstat_salt_max             =   4.1390592598983E+01
(PID.TID 0000.0001) %MON dynstat_salt_min             =   1.8388618096583E+01
(PID.TID 0000.0001) %MON dynstat_salt_mean            =   3.4772075019425E+01
(PID.TID 0000.0001) %MON dynstat_salt_sd              =   5.3120516083616E-01
(PID.TID 0000.0001) %MON dynstat_salt_del2            =   7.6748105915558E-04
(PID.TID 0000.0001) %MON forcing_qnet_max             =   4.5222027555240E+02
(PID.TID 0000.0001) %MON forcing_qnet_min             =  -2.0475234489479E+02
(PID.TID 0000.0001) %MON forcing_qnet_mean            =  -1.2304791184004E+01
(PID.TID 0000.0001) %MON forcing_qnet_sd              =   1.1350821078146E+02
(PID.TID 0000.0001) %MON forcing_qnet_del2            =   4.3821832929352E-01
(PID.TID 0000.0001) %MON forcing_qsw_max              =   0.0000000000000E+00
(PID.TID 0000.0001) %MON forcing_qsw_min              =   0.0000000000000E+00
(PID.TID 0000.0001) %MON forcing_qsw_mean             =   0.0000000000000E+00
(PID.TID 0000.0001) %MON forcing_qsw_sd               =   0.0000000000000E+00
(PID.TID 0000.0001) %MON forcing_qsw_del2             =   0.0000000000000E+00
(PID.TID 0000.0001) %MON forcing_empmr_max            =   7.6494447208479E-05
(PID.TID 0000.0001) %MON forcing_empmr_min            =  -1.5362614137596E-04
(PID.TID 0000.0001) %MON forcing_empmr_mean           =   4.1932798010144E-22
(PID.TID 0000.0001) %MON forcing_empmr_sd             =   2.4051723601802E-05
(PID.TID 0000.0001) %MON forcing_empmr_del2           =   1.2276157049243E-07
(PID.TID 0000.0001) %MON forcing_fu_max               =   2.4839906243671E-01
(PID.TID 0000.0001) %MON forcing_fu_min               =  -2.4462500977759E-01
(PID.TID 0000.0001) %MON forcing_fu_mean              =  -3.9826545003281E-03
(PID.TID 0000.0001) %MON forcing_fu_sd                =   6.5104931934298E-02
(PID.TID 0000.0001) %MON forcing_fu_del2              =   2.2499056699550E-04
(PID.TID 0000.0001) %MON forcing_fv_max               =   2.8769312088010E-01
(PID.TID 0000.0001) %MON forcing_fv_min               =  -3.3716267516111E-01
(PID.TID 0000.0001) %MON forcing_fv_mean              =  -1.3735533615913E-02
(PID.TID 0000.0001) %MON forcing_fv_sd                =   7.6464336061349E-02
(PID.TID 0000.0001) %MON forcing_fv_del2              =   2.5132568855654E-04
(PID.TID 0000.0001) %MON advcfl_uvel_max              =   8.0057080582564E-02
(PID.TID 0000.0001) %MON advcfl_vvel_max              =   7.5612145792734E-02
(PID.TID 0000.0001) %MON advcfl_wvel_max              =   6.6713100160471E-02
(PID.TID 0000.0001) %MON advcfl_W_hf_max              =   7.3690186919850E-02
(PID.TID 0000.0001) %MON pe_b_mean                    =   4.7487633022512E-04
(PID.TID 0000.0001) %MON ke_max                       =   3.8977065426357E-02
(PID.TID 0000.0001) %MON ke_mean                      =   1.4092305252963E-04
(PID.TID 0000.0001) %MON ke_vol                       =   1.3398024453628E+18
(PID.TID 0000.0001) %MON vort_r_min                   =  -1.2486519157619E-06
(PID.TID 0000.0001) %MON vort_r_max                   =   1.2481462737503E-06
(PID.TID 0000.0001) %MON vort_a_mean                  =  -2.0493733748264E-05
(PID.TID 0000.0001) %MON vort_a_sd                    =   7.5053945842052E-05
(PID.TID 0000.0001) %MON vort_p_mean                  =  -2.4715773618146E-05
(PID.TID 0000.0001) %MON vort_p_sd                    =   1.2777070019200E-04
(PID.TID 0000.0001) %MON surfExpan_theta_mean         =   5.0012907675167E-08
(PID.TID 0000.0001) %MON surfExpan_salt_mean          =   1.4144835312648E-08
(PID.TID 0000.0001) // =======================================================
(PID.TID 0000.0001) // End MONITOR dynamic field statistics
(PID.TID 0000.0001) // =======================================================
 cg2d: Sum(rhs),rhsMax =  -9.09494701772928E-12  4.22711470393527E+00
(PID.TID 0000.0001)                    cg2d_init_res =    4.30037123220773E-01
(PID.TID 0000.0001)                       cg2d_iters =    63
(PID.TID 0000.0001)                         cg2d_res =    5.43886546935460E-07
(PID.TID 0000.0001) // =======================================================
(PID.TID 0000.0001) // Begin MONITOR dynamic field statistics
(PID.TID 0000.0001) // =======================================================
(PID.TID 0000.0001) %MON time_tsnumber                =                 72015
(PID.TID 0000.0001) %MON time_secondsf                =   6.2220960000000E+09
(PID.TID 0000.0001) %MON dynstat_eta_max              =   8.9883807446149E-01
(PID.TID 0000.0001) %MON dynstat_eta_min              =  -1.6126552263312E+00
(PID.TID 0000.0001) %MON dynstat_eta_mean             =   1.4867263470625E-14
(PID.TID 0000.0001) %MON dynstat_eta_sd               =   5.9696131821334E-01
(PID.TID 0000.0001) %MON dynstat_eta_del2             =   7.8363864195772E-04
(PID.TID 0000.0001) %MON dynstat_uvel_max             =   1.8592454176435E-01
(PID.TID 0000.0001) %MON dynstat_uvel_min             =  -2.8174285574207E-01
(PID.TID 0000.0001) %MON dynstat_uvel_mean            =  -4.8266274001029E-04
(PID.TID 0000.0001) %MON dynstat_uvel_sd              =   1.2015301192730E-02
(PID.TID 0000.0001) %MON dynstat_uvel_del2            =   5.0838467630092E-05
(PID.TID 0000.0001) %MON dynstat_vvel_max             =   1.7311505711804E-01
(PID.TID 0000.0001) %MON dynstat_vvel_min             =  -2.2419548313634E-01
(PID.TID 0000.0001) %MON dynstat_vvel_mean            =  -3.9950939623795E-04
(PID.TID 0000.0001) %MON dynstat_vvel_sd              =   1.2664164448498E-02
(PID.TID 0000.0001) %MON dynstat_vvel_del2            =   5.0131320988773E-05
(PID.TID 0000.0001) %MON dynstat_wvel_max             =   1.0992774364087E-04
(PID.TID 0000.0001) %MON dynstat_wvel_min             =  -2.0417583046992E-04
(PID.TID 0000.0001) %MON dynstat_wvel_mean            =   1.6508144366271E-10
(PID.TID 0000.0001) %MON dynstat_wvel_sd              =   3.8336412709459E-06
(PID.TID 0000.0001) %MON dynstat_wvel_del2            =   2.6972554452574E-08
(PID.TID 0000.0001) %MON dynstat_theta_max            =   3.1055975979593E+01
(PID.TID 0000.0001) %MON dynstat_theta_min            =  -2.0667498585036E+00
(PID.TID 0000.0001) %MON dynstat_theta_mean           =   3.9100178403582E+00
(PID.TID 0000.0001) %MON dynstat_theta_sd             =   4.5712685781027E+00
(PID.TID 0000.0001) %MON dynstat_theta_del2           =   2.5230699004134E-03
(PID.TID 0000.0001) %MON dynstat_salt_max             =   4.1390774516762E+01
(PID.TID 0000.0001) %MON dynstat_salt_min             =   1.8389033306699E+01
(PID.TID 0000.0001) %MON dynstat_salt_mean            =   3.4772075587698E+01
(PID.TID 0000.0001) %MON dynstat_salt_sd              =   5.3118663790712E-01
(PID.TID 0000.0001) %MON dynstat_salt_del2            =   7.6574735194505E-04
(PID.TID 0000.0001) %MON forcing_qnet_max             =   4.5655909646370E+02
(PID.TID 0000.0001) %MON forcing_qnet_min             =  -2.0442805701094E+02
(PID.TID 0000.0001) %MON forcing_qnet_mean            =  -1.2317019552647E+01
(PID.TID 0000.0001) %MON forcing_qnet_sd              =   1.1339064702855E+02
(PID.TID 0000.0001) %MON forcing_qnet_del2            =   4.4067508217007E-01
(PID.TID 0000.0001) %MON forcing_qsw_max              =   0.0000000000000E+00
(PID.TID 0000.0001) %MON forcing_qsw_min              =   0.0000000000000E+00
(PID.TID 0000.0001) %MON forcing_qsw_mean             =   0.0000000000000E+00
(PID.TID 0000.0001) %MON forcing_qsw_sd               =   0.0000000000000E+00
(PID.TID 0000.0001) %MON forcing_qsw_del2             =   0.0000000000000E+00
(PID.TID 0000.0001) %MON forcing_empmr_max            =   7.6494447208479E-05
(PID.TID 0000.0001) %MON forcing_empmr_min            =  -1.5362614137596E-04
(PID.TID 0000.0001) %MON forcing_empmr_mean           =   4.1932798010144E-22
(PID.TID 0000.0001) %MON forcing_empmr_sd             =   2.4051723601802E-05
(PID.TID 0000.0001) %MON forcing_empmr_del2           =   1.2276157049243E-07
(PID.TID 0000.0001) %MON forcing_fu_max               =   2.4866343693550E-01
(PID.TID 0000.0001) %MON forcing_fu_min               =  -2.4810804207900E-01
(PID.TID 0000.0001) %MON forcing_fu_mean              =  -3.9391755645946E-03
(PID.TID 0000.0001) %MON forcing_fu_sd                =   6.5286328792105E-02
(PID.TID 0000.0001) %MON forcing_fu_del2              =   2.2797906587778E-04
(PID.TID 0000.0001) %MON forcing_fv_max               =   2.9037636245273E-01
(PID.TID 0000.0001) %MON forcing_fv_min               =  -3.3795057909504E-01
(PID.TID 0000.0001) %MON forcing_fv_mean              =  -1.3739459161841E-02
(PID.TID 0000.0001) %MON forcing_fv_sd                =   7.6635516474945E-02
(PID.TID 0000.0001) %MON forcing_fv_del2              =   2.5394204351914E-04
(PID.TID 0000.0001) %MON advcfl_uvel_max              =   7.9907618180358E-02
(PID.TID 0000.0001) %MON advcfl_vvel_max              =   7.5458414515748E-02
(PID.TID 0000.0001) %MON advcfl_wvel_max              =   6.6569025481512E-02
(PID.TID 0000.0001) %MON advcfl_W_hf_max              =   7.3531065983500E-02
(PID.TID 0000.0001) %MON pe_b_mean                    =   4.7474112462528E-04
(PID.TID 0000.0001) %MON ke_max                       =   3.8830580128603E-02
(PID.TID 0000.0001) %MON ke_mean                      =   1.4090992203549E-04
(PID.TID 0000.0001) %MON ke_vol                       =   1.3398024453628E+18
(PID.TID 0000.0001) %MON vort_r_min                   =  -1.2532109725343E-06
(PID.TID 0000.0001) %MON vort_r_max                   =   1.2505186872424E-06
(PID.TID 0000.0001) %MON vort_a_mean                  =  -2.0493733748264E-05
(PID.TID 0000.0001) %MON vort_a_sd                    =   7.5053945746353E-05
(PID.TID 0000.0001) %MON vort_p_mean                  =  -2.4715773629649E-05
(PID.TID 0000.0001) %MON vort_p_sd                    =   1.2777069535678E-04
(PID.TID 0000.0001) %MON surfExpan_theta_mean         =   4.9863995392115E-08
(PID.TID 0000.0001) %MON surfExpan_salt_mean          =   1.4172130820904E-08
(PID.TID 0000.0001) // =======================================================
(PID.TID 0000.0001) // End MONITOR dynamic field statistics
(PID.TID 0000.0001) // =======================================================
S/R EXTERNAL_FIELDS_LOAD: Reading new data:    1    2     72015  6.222096000000E+09
(PID.TID 0000.0001)  MDS_READ_FIELD: opening global file: trenberth_taux.bin
(PID.TID 0000.0001)  MDS_READ_FIELD: opening global file: trenberth_taux.bin
(PID.TID 0000.0001)  MDS_READ_FIELD: opening global file: trenberth_tauy.bin
(PID.TID 0000.0001)  MDS_READ_FIELD: opening global file: trenberth_tauy.bin
(PID.TID 0000.0001)  MDS_READ_FIELD: opening global file: shiQnet_cs32.bin
(PID.TID 0000.0001)  MDS_READ_FIELD: opening global file: shiQnet_cs32.bin
(PID.TID 0000.0001)  MDS_READ_FIELD: opening global file: shiEmPR_cs32.bin
(PID.TID 0000.0001)  MDS_READ_FIELD: opening global file: shiEmPR_cs32.bin
(PID.TID 0000.0001)  MDS_READ_FIELD: opening global file: lev_surfT_cs_12m.bin
(PID.TID 0000.0001)  MDS_READ_FIELD: opening global file: lev_surfT_cs_12m.bin
(PID.TID 0000.0001)  MDS_READ_FIELD: opening global file: lev_surfS_cs_12m.bin
(PID.TID 0000.0001)  MDS_READ_FIELD: opening global file: lev_surfS_cs_12m.bin
 cg2d: Sum(rhs),rhsMax =  -9.74864633462857E-12  4.22560897639536E+00
(PID.TID 0000.0001)                    cg2d_init_res =    4.29573142138437E-01
(PID.TID 0000.0001)                       cg2d_iters =    63
(PID.TID 0000.0001)                         cg2d_res =    5.47383316216214E-07
(PID.TID 0000.0001) // =======================================================
(PID.TID 0000.0001) // Begin MONITOR dynamic field statistics
(PID.TID 0000.0001) // =======================================================
(PID.TID 0000.0001) %MON time_tsnumber                =                 72016
(PID.TID 0000.0001) %MON time_secondsf                =   6.2221824000000E+09
(PID.TID 0000.0001) %MON dynstat_eta_max              =   8.9765437043454E-01
(PID.TID 0000.0001) %MON dynstat_eta_min              =  -1.6120670108601E+00
(PID.TID 0000.0001) %MON dynstat_eta_mean             =   1.4125274351019E-14
(PID.TID 0000.0001) %MON dynstat_eta_sd               =   5.9687899917684E-01
(PID.TID 0000.0001) %MON dynstat_eta_del2             =   7.8349722891474E-04
(PID.TID 0000.0001) %MON dynstat_uvel_max             =   1.8542893984765E-01
(PID.TID 0000.0001) %MON dynstat_uvel_min             =  -2.8120513423031E-01
(PID.TID 0000.0001) %MON dynstat_uvel_mean            =  -4.8192611300053E-04
(PID.TID 0000.0001) %MON dynstat_uvel_sd              =   1.2015433399200E-02
(PID.TID 0000.0001) %MON dynstat_uvel_del2            =   5.0814288251184E-05
(PID.TID 0000.0001) %MON dynstat_vvel_max             =   1.7273141795550E-01
(PID.TID 0000.0001) %MON dynstat_vvel_min             =  -2.2408853483674E-01
(PID.TID 0000.0001) %MON dynstat_vvel_mean            =  -3.9908188034080E-04
(PID.TID 0000.0001) %MON dynstat_vvel_sd              =   1.2662553517683E-02
(PID.TID 0000.0001) %MON dynstat_vvel_del2            =   5.0098566071346E-05
(PID.TID 0000.0001) %MON dynstat_wvel_max             =   1.1039331179738E-04
(PID.TID 0000.0001) %MON dynstat_wvel_min             =  -2.0367423321350E-04
(PID.TID 0000.0001) %MON dynstat_wvel_mean            =   1.4511019330800E-10
(PID.TID 0000.0001) %MON dynstat_wvel_sd              =   3.8345112318739E-06
(PID.TID 0000.0001) %MON dynstat_wvel_del2            =   2.7012742491055E-08
(PID.TID 0000.0001) %MON dynstat_theta_max            =   3.1062088041713E+01
(PID.TID 0000.0001) %MON dynstat_theta_min            =  -2.0717523453303E+00
(PID.TID 0000.0001) %MON dynstat_theta_mean           =   3.9100790485293E+00
(PID.TID 0000.0001) %MON dynstat_theta_sd             =   4.5713345077754E+00
(PID.TID 0000.0001) %MON dynstat_theta_del2           =   2.5170810221824E-03
(PID.TID 0000.0001) %MON dynstat_salt_max             =   4.1390939656971E+01
(PID.TID 0000.0001) %MON dynstat_salt_min             =   1.8389454234993E+01
(PID.TID 0000.0001) %MON dynstat_salt_mean            =   3.4772076170779E+01
(PID.TID 0000.0001) %MON dynstat_salt_sd              =   5.3116866490362E-01
(PID.TID 0000.0001) %MON dynstat_salt_del2            =   7.6328388705509E-04
(PID.TID 0000.0001) %MON forcing_qnet_max             =   4.6211611868841E+02
(PID.TID 0000.0001) %MON forcing_qnet_min             =  -2.0410376912710E+02
(PID.TID 0000.0001) %MON forcing_qnet_mean            =  -1.2329247921290E+01
(PID.TID 0000.0001) %MON forcing_qnet_sd              =   1.1327998988989E+02
(PID.TID 0000.0001) %MON forcing_qnet_del2            =   4.4323506322358E-01
(PID.TID 0000.0001) %MON forcing_qsw_max              =   0.0000000000000E+00
(PID.TID 0000.0001) %MON forcing_qsw_min              =   0.0000000000000E+00
(PID.TID 0000.0001) %MON forcing_qsw_mean             =   0.0000000000000E+00
(PID.TID 0000.0001) %MON forcing_qsw_sd               =   0.0000000000000E+00
(PID.TID 0000.0001) %MON forcing_qsw_del2             =   0.0000000000000E+00
(PID.TID 0000.0001) %MON forcing_empmr_max            =   7.6494447208479E-05
(PID.TID 0000.0001) %MON forcing_empmr_min            =  -1.5362614137596E-04
(PID.TID 0000.0001) %MON forcing_empmr_mean           =   4.1932798010144E-22
(PID.TID 0000.0001) %MON forcing_empmr_sd             =   2.4051723601802E-05
(PID.TID 0000.0001) %MON forcing_empmr_del2           =   1.2276157049243E-07
(PID.TID 0000.0001) %MON forcing_fu_max               =   2.4892781143428E-01
(PID.TID 0000.0001) %MON forcing_fu_min               =  -2.5159107438040E-01
(PID.TID 0000.0001) %MON forcing_fu_mean              =  -3.8956966288612E-03
(PID.TID 0000.0001) %MON forcing_fu_sd                =   6.5480383395885E-02
(PID.TID 0000.0001) %MON forcing_fu_del2              =   2.3114393556995E-04
(PID.TID 0000.0001) %MON forcing_fv_max               =   2.9305960402537E-01
(PID.TID 0000.0001) %MON forcing_fv_min               =  -3.3950131228473E-01
(PID.TID 0000.0001) %MON forcing_fv_mean              =  -1.3743384707768E-02
(PID.TID 0000.0001) %MON forcing_fv_sd                =   7.6816469815204E-02
(PID.TID 0000.0001) %MON forcing_fv_del2              =   2.5671701728584E-04
(PID.TID 0000.0001) %MON advcfl_uvel_max              =   7.9755110159754E-02
(PID.TID 0000.0001) %MON advcfl_vvel_max              =   7.5291191609587E-02
(PID.TID 0000.0001) %MON advcfl_wvel_max              =   6.6405485847723E-02
(PID.TID 0000.0001) %MON advcfl_W_hf_max              =   7.3350447001570E-02
(PID.TID 0000.0001) %MON pe_b_mean                    =   4.7461020311914E-04
(PID.TID 0000.0001) %MON ke_max                       =   3.8681380845025E-02
(PID.TID 0000.0001) %MON ke_mean                      =   1.4089198499035E-04
(PID.TID 0000.0001) %MON ke_vol                       =   1.3398024453628E+18
(PID.TID 0000.0001) %MON vort_r_min                   =  -1.2576282309838E-06
(PID.TID 0000.0001) %MON vort_r_max                   =   1.2526121302698E-06
(PID.TID 0000.0001) %MON vort_a_mean                  =  -2.0493733748264E-05
(PID.TID 0000.0001) %MON vort_a_sd                    =   7.5053945663118E-05
(PID.TID 0000.0001) %MON vort_p_mean                  =  -2.4715773638600E-05
(PID.TID 0000.0001) %MON vort_p_sd                    =   1.2777069064887E-04
(PID.TID 0000.0001) %MON surfExpan_theta_mean         =   4.9533670926888E-08
(PID.TID 0000.0001) %MON surfExpan_salt_mean          =   1.4196980787385E-08
(PID.TID 0000.0001) // =======================================================
(PID.TID 0000.0001) // End MONITOR dynamic field statistics
(PID.TID 0000.0001) // =======================================================
 cg2d: Sum(rhs),rhsMax =  -9.43600753089413E-12  4.22414668943850E+00
(PID.TID 0000.0001)                    cg2d_init_res =    4.26130642654548E-01
(PID.TID 0000.0001)                       cg2d_iters =    63
(PID.TID 0000.0001)                         cg2d_res =    5.32268535211714E-07
(PID.TID 0000.0001) // =======================================================
(PID.TID 0000.0001) // Begin MONITOR dynamic field statistics
(PID.TID 0000.0001) // =======================================================
(PID.TID 0000.0001) %MON time_tsnumber                =                 72017
(PID.TID 0000.0001) %MON time_secondsf                =   6.2222688000000E+09
(PID.TID 0000.0001) %MON dynstat_eta_max              =   8.9652544030750E-01
(PID.TID 0000.0001) %MON dynstat_eta_min              =  -1.6114006368941E+00
(PID.TID 0000.0001) %MON dynstat_eta_mean             =   1.4207717586531E-14
(PID.TID 0000.0001) %MON dynstat_eta_sd               =   5.9679487064409E-01
(PID.TID 0000.0001) %MON dynstat_eta_del2             =   7.8336913904105E-04
(PID.TID 0000.0001) %MON dynstat_uvel_max             =   1.8537042343215E-01
(PID.TID 0000.0001) %MON dynstat_uvel_min             =  -2.8066220529157E-01
(PID.TID 0000.0001) %MON dynstat_uvel_mean            =  -4.8123014973433E-04
(PID.TID 0000.0001) %MON dynstat_uvel_sd              =   1.2015600400077E-02
(PID.TID 0000.0001) %MON dynstat_uvel_del2            =   5.0790184138389E-05
(PID.TID 0000.0001) %MON dynstat_vvel_max             =   1.7231939606524E-01
(PID.TID 0000.0001) %MON dynstat_vvel_min             =  -2.2397009842357E-01
(PID.TID 0000.0001) %MON dynstat_vvel_mean            =  -3.9864925362875E-04
(PID.TID 0000.0001) %MON dynstat_vvel_sd              =   1.2659979134476E-02
(PID.TID 0000.0001) %MON dynstat_vvel_del2            =   5.0065991339825E-05
(PID.TID 0000.0001) %MON dynstat_wvel_max             =   1.1079838220352E-04
(PID.TID 0000.0001) %MON dynstat_wvel_min             =  -2.0310547880926E-04
(PID.TID 0000.0001) %MON dynstat_wvel_mean            =   1.0679649075986E-10
(PID.TID 0000.0001) %MON dynstat_wvel_sd              =   3.8351594351803E-06
(PID.TID 0000.0001) %MON dynstat_wvel_del2            =   2.7047355934907E-08
(PID.TID 0000.0001) %MON dynstat_theta_max            =   3.1067783645989E+01
(PID.TID 0000.0001) %MON dynstat_theta_min            =  -2.0767998182763E+00
(PID.TID 0000.0001) %MON dynstat_theta_mean           =   3.9101410006065E+00
(PID.TID 0000.0001) %MON dynstat_theta_sd             =   4.5714099386443E+00
(PID.TID 0000.0001) %MON dynstat_theta_del2           =   2.5102695878123E-03
(PID.TID 0000.0001) %MON dynstat_salt_max             =   4.1391103549908E+01
(PID.TID 0000.0001) %MON dynstat_salt_min             =   1.8389876146771E+01
(PID.TID 0000.0001) %MON dynstat_salt_mean            =   3.4772076768659E+01
(PID.TID 0000.0001) %MON dynstat_salt_sd              =   5.3114978567288E-01
(PID.TID 0000.0001) %MON dynstat_salt_del2            =   7.6136013121768E-04
(PID.TID 0000.0001) %MON forcing_qnet_max             =   4.5753071201305E+02
(PID.TID 0000.0001) %MON forcing_qnet_min             =  -2.0101909770688E+02
(PID.TID 0000.0001) %MON forcing_qnet_mean            =  -1.2374912456645E+01
(PID.TID 0000.0001) %MON forcing_qnet_sd              =   1.1223184124370E+02
(PID.TID 0000.0001) %MON forcing_qnet_del2            =   4.4119059898150E-01
(PID.TID 0000.0001) %MON forcing_qsw_max              =   0.0000000000000E+00
(PID.TID 0000.0001) %MON forcing_qsw_min              =   0.0000000000000E+00
(PID.TID 0000.0001) %MON forcing_qsw_mean             =   0.0000000000000E+00
(PID.TID 0000.0001) %MON forcing_qsw_sd               =   0.0000000000000E+00
(PID.TID 0000.0001) %MON forcing_qsw_del2             =   0.0000000000000E+00
(PID.TID 0000.0001) %MON forcing_empmr_max            =   7.6494447208479E-05
(PID.TID 0000.0001) %MON forcing_empmr_min            =  -1.5362614137596E-04
(PID.TID 0000.0001) %MON forcing_empmr_mean           =   0.0000000000000E+00
(PID.TID 0000.0001) %MON forcing_empmr_sd             =   2.4051723601802E-05
(PID.TID 0000.0001) %MON forcing_empmr_del2           =   1.2276157049243E-07
(PID.TID 0000.0001) %MON forcing_fu_max               =   2.4586080052368E-01
(PID.TID 0000.0001) %MON forcing_fu_min               =  -2.4690104382675E-01
(PID.TID 0000.0001) %MON forcing_fu_mean              =  -3.9278253198990E-03
(PID.TID 0000.0001) %MON forcing_fu_sd                =   6.5282090105345E-02
(PID.TID 0000.0001) %MON forcing_fu_del2              =   2.2765741152947E-04
(PID.TID 0000.0001) %MON forcing_fv_max               =   2.9225622243089E-01
(PID.TID 0000.0001) %MON forcing_fv_min               =  -3.3606226010595E-01
(PID.TID 0000.0001) %MON forcing_fv_mean              =  -1.3741594714266E-02
(PID.TID 0000.0001) %MON forcing_fv_sd                =   7.6550053729987E-02
(PID.TID 0000.0001) %MON forcing_fv_del2              =   2.5418174123344E-04
(PID.TID 0000.0001) %MON advcfl_uvel_max              =   7.9601125214080E-02
(PID.TID 0000.0001) %MON advcfl_vvel_max              =   7.5111597072275E-02
(PID.TID 0000.0001) %MON advcfl_wvel_max              =   6.6220050449509E-02
(PID.TID 0000.0001) %MON advcfl_W_hf_max              =   7.3145643934458E-02
(PID.TID 0000.0001) %MON pe_b_mean                    =   4.7447642241590E-04
(PID.TID 0000.0001) %MON ke_max                       =   3.8532655180750E-02
(PID.TID 0000.0001) %MON ke_mean                      =   1.4086313285978E-04
(PID.TID 0000.0001) %MON ke_vol                       =   1.3398024453628E+18
(PID.TID 0000.0001) %MON vort_r_min                   =  -1.2616794368921E-06
(PID.TID 0000.0001) %MON vort_r_max                   =   1.2541566396707E-06
(PID.TID 0000.0001) %MON vort_a_mean                  =  -2.0493733748264E-05
(PID.TID 0000.0001) %MON vort_a_sd                    =   7.5053945589763E-05
(PID.TID 0000.0001) %MON vort_p_mean                  =  -2.4715773642557E-05
(PID.TID 0000.0001) %MON vort_p_sd                    =   1.2777068612506E-04
(PID.TID 0000.0001) %MON surfExpan_theta_mean         =   4.8983321736436E-08
(PID.TID 0000.0001) %MON surfExpan_salt_mean          =   1.4243722534743E-08
(PID.TID 0000.0001) // =======================================================
(PID.TID 0000.0001) // End MONITOR dynamic field statistics
(PID.TID 0000.0001) // =======================================================
 cg2d: Sum(rhs),rhsMax =  -1.01465502666542E-11  4.22297627211644E+00
(PID.TID 0000.0001)                    cg2d_init_res =    4.27672050002767E-01
(PID.TID 0000.0001)                       cg2d_iters =    63
(PID.TID 0000.0001)                         cg2d_res =    5.27700131366301E-07
(PID.TID 0000.0001) // =======================================================
(PID.TID 0000.0001) // Begin MONITOR dynamic field statistics
(PID.TID 0000.0001) // =======================================================
(PID.TID 0000.0001) %MON time_tsnumber                =                 72018
(PID.TID 0000.0001) %MON time_secondsf                =   6.2223552000000E+09
(PID.TID 0000.0001) %MON dynstat_eta_max              =   8.9542258094803E-01
(PID.TID 0000.0001) %MON dynstat_eta_min              =  -1.6107558920021E+00
(PID.TID 0000.0001) %MON dynstat_eta_mean             =   1.4537490528578E-14
(PID.TID 0000.0001) %MON dynstat_eta_sd               =   5.9671497240164E-01
(PID.TID 0000.0001) %MON dynstat_eta_del2             =   7.8331960610111E-04
(PID.TID 0000.0001) %MON dynstat_uvel_max             =   1.8535645056443E-01
(PID.TID 0000.0001) %MON dynstat_uvel_min             =  -2.8011068047398E-01
(PID.TID 0000.0001) %MON dynstat_uvel_mean            =  -4.8056130517937E-04
(PID.TID 0000.0001) %MON dynstat_uvel_sd              =   1.2015689028997E-02
(PID.TID 0000.0001) %MON dynstat_uvel_del2            =   5.0766923003423E-05
(PID.TID 0000.0001) %MON dynstat_vvel_max             =   1.7188166150922E-01
(PID.TID 0000.0001) %MON dynstat_vvel_min             =  -2.2384659029452E-01
(PID.TID 0000.0001) %MON dynstat_vvel_mean            =  -3.9820989382600E-04
(PID.TID 0000.0001) %MON dynstat_vvel_sd              =   1.2656828780091E-02
(PID.TID 0000.0001) %MON dynstat_vvel_del2            =   5.0033141033700E-05
(PID.TID 0000.0001) %MON dynstat_wvel_max             =   1.1112781299517E-04
(PID.TID 0000.0001) %MON dynstat_wvel_min             =  -2.0247726219141E-04
(PID.TID 0000.0001) %MON dynstat_wvel_mean            =   7.7199811325092E-11
(PID.TID 0000.0001) %MON dynstat_wvel_sd              =   3.8355053077049E-06
(PID.TID 0000.0001) %MON dynstat_wvel_del2            =   2.7077686557106E-08
(PID.TID 0000.0001) %MON dynstat_theta_max            =   3.1073067946974E+01
(PID.TID 0000.0001) %MON dynstat_theta_min            =  -2.0818894798625E+00
(PID.TID 0000.0001) %MON dynstat_theta_mean           =   3.9102036140859E+00
(PID.TID 0000.0001) %MON dynstat_theta_sd             =   4.5714985793914E+00
(PID.TID 0000.0001) %MON dynstat_theta_del2           =   2.5090490602000E-03
(PID.TID 0000.0001) %MON dynstat_salt_max             =   4.1391268101752E+01
(PID.TID 0000.0001) %MON dynstat_salt_min             =   1.8390298787233E+01
(PID.TID 0000.0001) %MON dynstat_salt_mean            =   3.4772077381637E+01
(PID.TID 0000.0001) %MON dynstat_salt_sd              =   5.3113162507177E-01
(PID.TID 0000.0001) %MON dynstat_salt_del2            =   7.5987990650394E-04
(PID.TID 0000.0001) %MON forcing_qnet_max             =   4.5294530533769E+02
(PID.TID 0000.0001) %MON forcing_qnet_min             =  -1.9793442628666E+02
(PID.TID 0000.0001) %MON forcing_qnet_mean            =  -1.2420576992001E+01
(PID.TID 0000.0001) %MON forcing_qnet_sd              =   1.1119236898197E+02
(PID.TID 0000.0001) %MON forcing_qnet_del2            =   4.3924090499131E-01
(PID.TID 0000.0001) %MON forcing_qsw_max              =   0.0000000000000E+00
(PID.TID 0000.0001) %MON forcing_qsw_min              =   0.0000000000000E+00
(PID.TID 0000.0001) %MON forcing_qsw_mean             =   0.0000000000000E+00
(PID.TID 0000.0001) %MON forcing_qsw_sd               =   0.0000000000000E+00
(PID.TID 0000.0001) %MON forcing_qsw_del2             =   0.0000000000000E+00
(PID.TID 0000.0001) %MON forcing_empmr_max            =   7.6494447208479E-05
(PID.TID 0000.0001) %MON forcing_empmr_min            =  -1.5362614137596E-04
(PID.TID 0000.0001) %MON forcing_empmr_mean           =   8.3865596020288E-22
(PID.TID 0000.0001) %MON forcing_empmr_sd             =   2.4051723601802E-05
(PID.TID 0000.0001) %MON forcing_empmr_del2           =   1.2276157049243E-07
(PID.TID 0000.0001) %MON forcing_fu_max               =   2.4279378961307E-01
(PID.TID 0000.0001) %MON forcing_fu_min               =  -2.4221101327311E-01
(PID.TID 0000.0001) %MON forcing_fu_mean              =  -3.9599540109368E-03
(PID.TID 0000.0001) %MON forcing_fu_sd                =   6.5097565012911E-02
(PID.TID 0000.0001) %MON forcing_fu_del2              =   2.2436904772887E-04
(PID.TID 0000.0001) %MON forcing_fv_max               =   2.9145284083641E-01
(PID.TID 0000.0001) %MON forcing_fv_min               =  -3.3262320792717E-01
(PID.TID 0000.0001) %MON forcing_fv_mean              =  -1.3739804720763E-02
(PID.TID 0000.0001) %MON forcing_fv_sd                =   7.6299912613877E-02
(PID.TID 0000.0001) %MON forcing_fv_del2              =   2.5181803534899E-04
(PID.TID 0000.0001) %MON advcfl_uvel_max              =   7.9444702314107E-02
(PID.TID 0000.0001) %MON advcfl_vvel_max              =   7.4920794746206E-02
(PID.TID 0000.0001) %MON advcfl_wvel_max              =   6.6015228125803E-02
(PID.TID 0000.0001) %MON advcfl_W_hf_max              =   7.2919429605325E-02
(PID.TID 0000.0001) %MON pe_b_mean                    =   4.7434938615458E-04
(PID.TID 0000.0001) %MON ke_max                       =   3.8382303935736E-02
(PID.TID 0000.0001) %MON ke_mean                      =   1.4082666751505E-04
(PID.TID 0000.0001) %MON ke_vol                       =   1.3398024453628E+18
(PID.TID 0000.0001) %MON vort_r_min                   =  -1.2655021561907E-06
(PID.TID 0000.0001) %MON vort_r_max                   =   1.2553044307141E-06
(PID.TID 0000.0001) %MON vort_a_mean                  =  -2.0493733748264E-05
(PID.TID 0000.0001) %MON vort_a_sd                    =   7.5053945529797E-05
(PID.TID 0000.0001) %MON vort_p_mean                  =  -2.4715773638880E-05
(PID.TID 0000.0001) %MON vort_p_sd                    =   1.2777068175764E-04
(PID.TID 0000.0001) %MON surfExpan_theta_mean         =   4.8399193271585E-08
(PID.TID 0000.0001) %MON surfExpan_salt_mean          =   1.4331838756629E-08
(PID.TID 0000.0001) // =======================================================
(PID.TID 0000.0001) // End MONITOR dynamic field statistics
(PID.TID 0000.0001) // =======================================================
 cg2d: Sum(rhs),rhsMax =  -9.46442924032453E-12  4.22179769310647E+00
(PID.TID 0000.0001)                    cg2d_init_res =    4.24205335367224E-01
(PID.TID 0000.0001)                       cg2d_iters =    63
(PID.TID 0000.0001)                         cg2d_res =    5.27589679772790E-07
(PID.TID 0000.0001) // =======================================================
(PID.TID 0000.0001) // Begin MONITOR dynamic field statistics
(PID.TID 0000.0001) // =======================================================
(PID.TID 0000.0001) %MON time_tsnumber                =                 72019
(PID.TID 0000.0001) %MON time_secondsf                =   6.2224416000000E+09
(PID.TID 0000.0001) %MON dynstat_eta_max              =   8.9434005823157E-01
(PID.TID 0000.0001) %MON dynstat_eta_min              =  -1.6101098971326E+00
(PID.TID 0000.0001) %MON dynstat_eta_mean             =   1.3932906801492E-14
(PID.TID 0000.0001) %MON dynstat_eta_sd               =   5.9663816501617E-01
(PID.TID 0000.0001) %MON dynstat_eta_del2             =   7.8328917331704E-04
(PID.TID 0000.0001) %MON dynstat_uvel_max             =   1.8527591218444E-01
(PID.TID 0000.0001) %MON dynstat_uvel_min             =  -2.7955162462952E-01
(PID.TID 0000.0001) %MON dynstat_uvel_mean            =  -4.7993337099108E-04
(PID.TID 0000.0001) %MON dynstat_uvel_sd              =   1.2015676728818E-02
(PID.TID 0000.0001) %MON dynstat_uvel_del2            =   5.0744355269302E-05
(PID.TID 0000.0001) %MON dynstat_vvel_max             =   1.7142067971650E-01
(PID.TID 0000.0001) %MON dynstat_vvel_min             =  -2.2371651088497E-01
(PID.TID 0000.0001) %MON dynstat_vvel_mean            =  -3.9775296946220E-04
(PID.TID 0000.0001) %MON dynstat_vvel_sd              =   1.2653113579646E-02
(PID.TID 0000.0001) %MON dynstat_vvel_del2            =   5.0000073463809E-05
(PID.TID 0000.0001) %MON dynstat_wvel_max             =   1.1138119711248E-04
(PID.TID 0000.0001) %MON dynstat_wvel_min             =  -2.0179529768129E-04
(PID.TID 0000.0001) %MON dynstat_wvel_mean            =   4.6054376111939E-11
(PID.TID 0000.0001) %MON dynstat_wvel_sd              =   3.8355322720258E-06
(PID.TID 0000.0001) %MON dynstat_wvel_del2            =   2.7104212513637E-08
(PID.TID 0000.0001) %MON dynstat_theta_max            =   3.1077942556973E+01
(PID.TID 0000.0001) %MON dynstat_theta_min            =  -2.0870267655088E+00
(PID.TID 0000.0001) %MON dynstat_theta_mean           =   3.9102668873090E+00
(PID.TID 0000.0001) %MON dynstat_theta_sd             =   4.5715972370736E+00
(PID.TID 0000.0001) %MON dynstat_theta_del2           =   2.5031482316362E-03
(PID.TID 0000.0001) %MON dynstat_salt_max             =   4.1391433209050E+01
(PID.TID 0000.0001) %MON dynstat_salt_min             =   1.8390721657620E+01
(PID.TID 0000.0001) %MON dynstat_salt_mean            =   3.4772078006955E+01
(PID.TID 0000.0001) %MON dynstat_salt_sd              =   5.3111296656201E-01
(PID.TID 0000.0001) %MON dynstat_salt_del2            =   7.5839171262219E-04
(PID.TID 0000.0001) %MON forcing_qnet_max             =   4.4835989866233E+02
(PID.TID 0000.0001) %MON forcing_qnet_min             =  -1.9586302274640E+02
(PID.TID 0000.0001) %MON forcing_qnet_mean            =  -1.2466241527356E+01
(PID.TID 0000.0001) %MON forcing_qnet_sd              =   1.1016181871259E+02
(PID.TID 0000.0001) %MON forcing_qnet_del2            =   4.3738724859626E-01
(PID.TID 0000.0001) %MON forcing_qsw_max              =   0.0000000000000E+00
(PID.TID 0000.0001) %MON forcing_qsw_min              =   0.0000000000000E+00
(PID.TID 0000.0001) %MON forcing_qsw_mean             =   0.0000000000000E+00
(PID.TID 0000.0001) %MON forcing_qsw_sd               =   0.0000000000000E+00
(PID.TID 0000.0001) %MON forcing_qsw_del2             =   0.0000000000000E+00
(PID.TID 0000.0001) %MON forcing_empmr_max            =   7.6494447208479E-05
(PID.TID 0000.0001) %MON forcing_empmr_min            =  -1.5362614137596E-04
(PID.TID 0000.0001) %MON forcing_empmr_mean           =   0.0000000000000E+00
(PID.TID 0000.0001) %MON forcing_empmr_sd             =   2.4051723601802E-05
(PID.TID 0000.0001) %MON forcing_empmr_del2           =   1.2276157049243E-07
(PID.TID 0000.0001) %MON forcing_fu_max               =   2.3972677870247E-01
(PID.TID 0000.0001) %MON forcing_fu_min               =  -2.3770170012775E-01
(PID.TID 0000.0001) %MON forcing_fu_mean              =  -3.9920827019745E-03
(PID.TID 0000.0001) %MON forcing_fu_sd                =   6.4926925508109E-02
(PID.TID 0000.0001) %MON forcing_fu_del2              =   2.2128767840564E-04
(PID.TID 0000.0001) %MON forcing_fv_max               =   2.9064945924193E-01
(PID.TID 0000.0001) %MON forcing_fv_min               =  -3.2918415574839E-01
(PID.TID 0000.0001) %MON forcing_fv_mean              =  -1.3738014727260E-02
(PID.TID 0000.0001) %MON forcing_fv_sd                =   7.6066207026079E-02
(PID.TID 0000.0001) %MON forcing_fv_del2              =   2.4963077337507E-04
(PID.TID 0000.0001) %MON advcfl_uvel_max              =   7.9286143472065E-02
(PID.TID 0000.0001) %MON advcfl_vvel_max              =   7.4719859277172E-02
(PID.TID 0000.0001) %MON advcfl_wvel_max              =   6.5792881960993E-02
(PID.TID 0000.0001) %MON advcfl_W_hf_max              =   7.2673858097521E-02
(PID.TID 0000.0001) %MON pe_b_mean                    =   4.7422728031502E-04
(PID.TID 0000.0001) %MON ke_max                       =   3.8231026134228E-02
(PID.TID 0000.0001) %MON ke_mean                      =   1.4078247720169E-04
(PID.TID 0000.0001) %MON ke_vol                       =   1.3398024453628E+18
(PID.TID 0000.0001) %MON vort_r_min                   =  -1.2690381538339E-06
(PID.TID 0000.0001) %MON vort_r_max                   =   1.2559614380007E-06
(PID.TID 0000.0001) %MON vort_a_mean                  =  -2.0493733748264E-05
(PID.TID 0000.0001) %MON vort_a_sd                    =   7.5053945480788E-05
(PID.TID 0000.0001) %MON vort_p_mean                  =  -2.4715773622422E-05
(PID.TID 0000.0001) %MON vort_p_sd                    =   1.2777067750493E-04
(PID.TID 0000.0001) %MON surfExpan_theta_mean         =   4.7846765644860E-08
(PID.TID 0000.0001) %MON surfExpan_salt_mean          =   1.4453912849178E-08
(PID.TID 0000.0001) // =======================================================
(PID.TID 0000.0001) // End MONITOR dynamic field statistics
(PID.TID 0000.0001) // =======================================================
 cg2d: Sum(rhs),rhsMax =  -9.52127265918534E-12  4.22066224732181E+00
(PID.TID 0000.0001)                    cg2d_init_res =    4.20173383748347E-01
(PID.TID 0000.0001)                       cg2d_iters =    63
(PID.TID 0000.0001)                         cg2d_res =    5.06195603695455E-07
(PID.TID 0000.0001) // =======================================================
(PID.TID 0000.0001) // Begin MONITOR dynamic field statistics
(PID.TID 0000.0001) // =======================================================
(PID.TID 0000.0001) %MON time_tsnumber                =                 72020
(PID.TID 0000.0001) %MON time_secondsf                =   6.2225280000000E+09
(PID.TID 0000.0001) %MON dynstat_eta_max              =   8.9327778885115E-01
(PID.TID 0000.0001) %MON dynstat_eta_min              =  -1.6094663177207E+00
(PID.TID 0000.0001) %MON dynstat_eta_mean             =   1.4372604057554E-14
(PID.TID 0000.0001) %MON dynstat_eta_sd               =   5.9656505999455E-01
(PID.TID 0000.0001) %MON dynstat_eta_del2             =   7.8330695418782E-04
(PID.TID 0000.0001) %MON dynstat_uvel_max             =   1.8512569733516E-01
(PID.TID 0000.0001) %MON dynstat_uvel_min             =  -2.7898504596551E-01
(PID.TID 0000.0001) %MON dynstat_uvel_mean            =  -4.7934264658090E-04
(PID.TID 0000.0001) %MON dynstat_uvel_sd              =   1.2015507963543E-02
(PID.TID 0000.0001) %MON dynstat_uvel_del2            =   5.0722468783835E-05
(PID.TID 0000.0001) %MON dynstat_vvel_max             =   1.7093878715338E-01
(PID.TID 0000.0001) %MON dynstat_vvel_min             =  -2.2358019420559E-01
(PID.TID 0000.0001) %MON dynstat_vvel_mean            =  -3.9728998926744E-04
(PID.TID 0000.0001) %MON dynstat_vvel_sd              =   1.2648883490964E-02
(PID.TID 0000.0001) %MON dynstat_vvel_del2            =   4.9966720688828E-05
(PID.TID 0000.0001) %MON dynstat_wvel_max             =   1.1154492436635E-04
(PID.TID 0000.0001) %MON dynstat_wvel_min             =  -2.0106353366514E-04
(PID.TID 0000.0001) %MON dynstat_wvel_mean            =   1.5719125193068E-11
(PID.TID 0000.0001) %MON dynstat_wvel_sd              =   3.8351407390987E-06
(PID.TID 0000.0001) %MON dynstat_wvel_del2            =   2.7126683157967E-08
(PID.TID 0000.0001) %MON dynstat_theta_max            =   3.1082408067250E+01
(PID.TID 0000.0001) %MON dynstat_theta_min            =  -2.0922148763615E+00
(PID.TID 0000.0001) %MON dynstat_theta_mean           =   3.9103306906778E+00
(PID.TID 0000.0001) %MON dynstat_theta_sd             =   4.5717062263961E+00
(PID.TID 0000.0001) %MON dynstat_theta_del2           =   2.4986162432511E-03
(PID.TID 0000.0001) %MON dynstat_salt_max             =   4.1391598962009E+01
(PID.TID 0000.0001) %MON dynstat_salt_min             =   1.8391144314924E+01
(PID.TID 0000.0001) %MON dynstat_salt_mean            =   3.4772078643772E+01
(PID.TID 0000.0001) %MON dynstat_salt_sd              =   5.3109446974580E-01
(PID.TID 0000.0001) %MON dynstat_salt_del2            =   7.5654509351882E-04
(PID.TID 0000.0001) %MON forcing_qnet_max             =   4.4486238709081E+02
(PID.TID 0000.0001) %MON forcing_qnet_min             =  -1.9564239975390E+02
(PID.TID 0000.0001) %MON forcing_qnet_mean            =  -1.2511906062711E+01
(PID.TID 0000.0001) %MON forcing_qnet_sd              =   1.0914044317154E+02
(PID.TID 0000.0001) %MON forcing_qnet_del2            =   4.3563085574914E-01
(PID.TID 0000.0001) %MON forcing_qsw_max              =   0.0000000000000E+00
(PID.TID 0000.0001) %MON forcing_qsw_min              =   0.0000000000000E+00
(PID.TID 0000.0001) %MON forcing_qsw_mean             =   0.0000000000000E+00
(PID.TID 0000.0001) %MON forcing_qsw_sd               =   0.0000000000000E+00
(PID.TID 0000.0001) %MON forcing_qsw_del2             =   0.0000000000000E+00
(PID.TID 0000.0001) %MON forcing_empmr_max            =   7.6494447208479E-05
(PID.TID 0000.0001) %MON forcing_empmr_min            =  -1.5362614137596E-04
(PID.TID 0000.0001) %MON forcing_empmr_mean           =  -4.1932798010144E-22
(PID.TID 0000.0001) %MON forcing_empmr_sd             =   2.4051723601802E-05
(PID.TID 0000.0001) %MON forcing_empmr_del2           =   1.2276157049243E-07
(PID.TID 0000.0001) %MON forcing_fu_max               =   2.3665976779186E-01
(PID.TID 0000.0001) %MON forcing_fu_min               =  -2.3356264696351E-01
(PID.TID 0000.0001) %MON forcing_fu_mean              =  -4.0242113930123E-03
(PID.TID 0000.0001) %MON forcing_fu_sd                =   6.4770281337189E-02
(PID.TID 0000.0001) %MON forcing_fu_del2              =   2.1842206420252E-04
(PID.TID 0000.0001) %MON forcing_fv_max               =   2.8984607764745E-01
(PID.TID 0000.0001) %MON forcing_fv_min               =  -3.2574510356961E-01
(PID.TID 0000.0001) %MON forcing_fv_mean              =  -1.3736224733758E-02
(PID.TID 0000.0001) %MON forcing_fv_sd                =   7.5849088889787E-02
(PID.TID 0000.0001) %MON forcing_fv_del2              =   2.4762463092934E-04
(PID.TID 0000.0001) %MON advcfl_uvel_max              =   7.9125451015698E-02
(PID.TID 0000.0001) %MON advcfl_vvel_max              =   7.4509809097912E-02
(PID.TID 0000.0001) %MON advcfl_wvel_max              =   6.5554299277992E-02
(PID.TID 0000.0001) %MON advcfl_W_hf_max              =   7.2410354704127E-02
(PID.TID 0000.0001) %MON pe_b_mean                    =   4.7411107497087E-04
(PID.TID 0000.0001) %MON ke_max                       =   3.8078859872079E-02
(PID.TID 0000.0001) %MON ke_mean                      =   1.4073054360575E-04
(PID.TID 0000.0001) %MON ke_vol                       =   1.3398024453628E+18
(PID.TID 0000.0001) %MON vort_r_min                   =  -1.2722809389114E-06
(PID.TID 0000.0001) %MON vort_r_max                   =   1.2561156619260E-06
(PID.TID 0000.0001) %MON vort_a_mean                  =  -2.0493733748264E-05
(PID.TID 0000.0001) %MON vort_a_sd                    =   7.5053945440461E-05
(PID.TID 0000.0001) %MON vort_p_mean                  =  -2.4715773594280E-05
(PID.TID 0000.0001) %MON vort_p_sd                    =   1.2777067322267E-04
(PID.TID 0000.0001) %MON surfExpan_theta_mean         =   4.7351849016272E-08
(PID.TID 0000.0001) %MON surfExpan_salt_mean          =   1.4607790245225E-08
(PID.TID 0000.0001) // =======================================================
(PID.TID 0000.0001) // End MONITOR dynamic field statistics
(PID.TID 0000.0001) // =======================================================
(PID.TID 0000.0001) %CHECKPOINT     72020 0000072020
(PID.TID 0000.0001)  MDS_READ_FIELD: opening global file: lev_T_cs_15k.bin
 --> objf_test(bi,bj)   =  0.213716440732379E+05
 --> objf_tracer(bi,bj) =  0.000000000000000E+00
 --> objf_atl(bi,bj)    =  0.000000000000000E+00
 --> objf_test(bi,bj)   =  0.114870711256328E+05
 --> objf_tracer(bi,bj) =  0.000000000000000E+00
 --> objf_atl(bi,bj)    =  0.000000000000000E+00
 --> objf_test(bi,bj)   =  0.181705170177981E+05
 --> objf_tracer(bi,bj) =  0.000000000000000E+00
 --> objf_atl(bi,bj)    =  0.000000000000000E+00
 --> objf_test(bi,bj)   =  0.231600599827603E+05
 --> objf_tracer(bi,bj) =  0.000000000000000E+00
 --> objf_atl(bi,bj)    =  0.000000000000000E+00
 --> objf_test(bi,bj)   =  0.145354701751238E+05
 --> objf_tracer(bi,bj) =  0.000000000000000E+00
 --> objf_atl(bi,bj)    =  0.000000000000000E+00
 --> objf_test(bi,bj)   =  0.124705013041734E+05
 --> objf_tracer(bi,bj) =  0.000000000000000E+00
 --> objf_atl(bi,bj)    =  0.000000000000000E+00
  local fc =  0.101195263678726E+06
 global fc =  0.101195263678726E+06
(PID.TID 0000.0001)  MDS_READ_FIELD: opening global file: lev_T_cs_15k.bin
S/R EXTERNAL_FIELDS_LOAD: Reading new data:   12    1     72000  6.220800000000E+09
(PID.TID 0000.0001)  MDS_READ_FIELD: opening global file: trenberth_taux.bin
(PID.TID 0000.0001)  MDS_READ_FIELD: opening global file: trenberth_taux.bin
(PID.TID 0000.0001)  MDS_READ_FIELD: opening global file: trenberth_tauy.bin
(PID.TID 0000.0001)  MDS_READ_FIELD: opening global file: trenberth_tauy.bin
(PID.TID 0000.0001)  MDS_READ_FIELD: opening global file: shiQnet_cs32.bin
(PID.TID 0000.0001)  MDS_READ_FIELD: opening global file: shiQnet_cs32.bin
(PID.TID 0000.0001)  MDS_READ_FIELD: opening global file: shiEmPR_cs32.bin
(PID.TID 0000.0001)  MDS_READ_FIELD: opening global file: shiEmPR_cs32.bin
(PID.TID 0000.0001)  MDS_READ_FIELD: opening global file: lev_surfT_cs_12m.bin
(PID.TID 0000.0001)  MDS_READ_FIELD: opening global file: lev_surfT_cs_12m.bin
(PID.TID 0000.0001)  MDS_READ_FIELD: opening global file: lev_surfS_cs_12m.bin
(PID.TID 0000.0001)  MDS_READ_FIELD: opening global file: lev_surfS_cs_12m.bin
(PID.TID 0000.0001)  MDS_READ_FIELD: opening file: xx_tauu.0000000000.001.001.data
(PID.TID 0000.0001)  MDS_READ_FIELD: opening file: xx_tauu.0000000000.002.001.data
(PID.TID 0000.0001)  MDS_READ_FIELD: opening file: xx_tauu.0000000000.003.001.data
(PID.TID 0000.0001)  MDS_READ_FIELD: opening file: xx_tauu.0000000000.004.001.data
(PID.TID 0000.0001)  MDS_READ_FIELD: opening file: xx_tauu.0000000000.005.001.data
(PID.TID 0000.0001)  MDS_READ_FIELD: opening file: xx_tauu.0000000000.006.001.data
(PID.TID 0000.0001)  MDS_READ_FIELD: opening file: xx_tauv.0000000000.001.001.data
(PID.TID 0000.0001)  MDS_READ_FIELD: opening file: xx_tauv.0000000000.002.001.data
(PID.TID 0000.0001)  MDS_READ_FIELD: opening file: xx_tauv.0000000000.003.001.data
(PID.TID 0000.0001)  MDS_READ_FIELD: opening file: xx_tauv.0000000000.004.001.data
(PID.TID 0000.0001)  MDS_READ_FIELD: opening file: xx_tauv.0000000000.005.001.data
(PID.TID 0000.0001)  MDS_READ_FIELD: opening file: xx_tauv.0000000000.006.001.data
(PID.TID 0000.0001)  MDS_READ_FIELD: opening file: xx_sfl.0000000000.001.001.data
(PID.TID 0000.0001)  MDS_READ_FIELD: opening file: xx_sfl.0000000000.002.001.data
(PID.TID 0000.0001)  MDS_READ_FIELD: opening file: xx_sfl.0000000000.003.001.data
(PID.TID 0000.0001)  MDS_READ_FIELD: opening file: xx_sfl.0000000000.004.001.data
(PID.TID 0000.0001)  MDS_READ_FIELD: opening file: xx_sfl.0000000000.005.001.data
(PID.TID 0000.0001)  MDS_READ_FIELD: opening file: xx_sfl.0000000000.006.001.data
(PID.TID 0000.0001)  MDS_READ_FIELD: opening file: xx_hfl.0000000000.001.001.data
(PID.TID 0000.0001)  MDS_READ_FIELD: opening file: xx_hfl.0000000000.002.001.data
(PID.TID 0000.0001)  MDS_READ_FIELD: opening file: xx_hfl.0000000000.003.001.data
(PID.TID 0000.0001)  MDS_READ_FIELD: opening file: xx_hfl.0000000000.004.001.data
(PID.TID 0000.0001)  MDS_READ_FIELD: opening file: xx_hfl.0000000000.005.001.data
(PID.TID 0000.0001)  MDS_READ_FIELD: opening file: xx_hfl.0000000000.006.001.data
(PID.TID 0000.0001) SOLVE_FOR_PRESSURE: putPmEinXvector =    F
 cg2d: Sum(rhs),rhsMax =  -9.74864633462857E-12  4.27829651258201E+00
 cg2d: Sum(rhs),rhsMax =  -9.15179043659009E-12  4.27316012257317E+00
 cg2d: Sum(rhs),rhsMax =  -9.91917659121100E-12  4.26762372416937E+00
 cg2d: Sum(rhs),rhsMax =  -9.63495949690696E-12  4.26250700388077E+00
 cg2d: Sum(rhs),rhsMax =  -9.43600753089413E-12  4.25770388694847E+00
 cg2d: Sum(rhs),rhsMax =  -9.52127265918534E-12  4.25319685033070E+00
 cg2d: Sum(rhs),rhsMax =  -9.46442924032453E-12  4.24900188029913E+00
 cg2d: Sum(rhs),rhsMax =  -9.26547727431171E-12  4.24513385460481E+00
 cg2d: Sum(rhs),rhsMax =  -9.74864633462857E-12  4.24159888286032E+00
 cg2d: Sum(rhs),rhsMax =  -9.77706804405898E-12  4.23840118673925E+00
 cg2d: Sum(rhs),rhsMax =  -9.69180291576777E-12  4.23553911170086E+00
 cg2d: Sum(rhs),rhsMax =  -9.91917659121100E-12  4.23300290462224E+00
 cg2d: Sum(rhs),rhsMax =  -9.86233317235019E-12  4.23077337950540E+00
 cg2d: Sum(rhs),rhsMax =  -9.74864633462857E-12  4.22882246149889E+00
 cg2d: Sum(rhs),rhsMax =  -9.09494701772928E-12  4.22711470393527E+00
S/R EXTERNAL_FIELDS_LOAD: Reading new data:    1    2     72015  6.222096000000E+09
(PID.TID 0000.0001)  MDS_READ_FIELD: opening global file: trenberth_taux.bin
(PID.TID 0000.0001)  MDS_READ_FIELD: opening global file: trenberth_taux.bin
(PID.TID 0000.0001)  MDS_READ_FIELD: opening global file: trenberth_tauy.bin
(PID.TID 0000.0001)  MDS_READ_FIELD: opening global file: trenberth_tauy.bin
(PID.TID 0000.0001)  MDS_READ_FIELD: opening global file: shiQnet_cs32.bin
(PID.TID 0000.0001)  MDS_READ_FIELD: opening global file: shiQnet_cs32.bin
(PID.TID 0000.0001)  MDS_READ_FIELD: opening global file: shiEmPR_cs32.bin
(PID.TID 0000.0001)  MDS_READ_FIELD: opening global file: shiEmPR_cs32.bin
(PID.TID 0000.0001)  MDS_READ_FIELD: opening global file: lev_surfT_cs_12m.bin
(PID.TID 0000.0001)  MDS_READ_FIELD: opening global file: lev_surfT_cs_12m.bin
(PID.TID 0000.0001)  MDS_READ_FIELD: opening global file: lev_surfS_cs_12m.bin
(PID.TID 0000.0001)  MDS_READ_FIELD: opening global file: lev_surfS_cs_12m.bin
 cg2d: Sum(rhs),rhsMax =  -9.74864633462857E-12  4.22560897639536E+00
 cg2d: Sum(rhs),rhsMax =  -9.43600753089413E-12  4.22414668943850E+00
 cg2d: Sum(rhs),rhsMax =  -1.01465502666542E-11  4.22297627211644E+00
 cg2d: Sum(rhs),rhsMax =  -9.46442924032453E-12  4.22179769310647E+00
 cg2d: Sum(rhs),rhsMax =  -9.52127265918534E-12  4.22066224732181E+00
(PID.TID 0000.0001) Did not write pickup because writePickupAtEnd = FALSE
 cg2d: Sum(rhs),rhsMax =  -9.46442924032453E-12  4.22179769310647E+00
 cg2d: Sum(rhs),rhsMax =  -9.52127265918534E-12  4.22066224732181E+00
(PID.TID 0000.0001) Did not write pickup because writePickupAtEnd = FALSE
 cg2d: Sum(rhs),rhsMax =  -9.52127265918534E-12  4.22066224732181E+00
(PID.TID 0000.0001) Did not write pickup because writePickupAtEnd = FALSE
(PID.TID 0000.0001) // =======================================================
(PID.TID 0000.0001) // Begin MONITOR dynamic field statistics
(PID.TID 0000.0001) // =======================================================
(PID.TID 0000.0001) %MON ad_time_tsnumber             =                 72020
(PID.TID 0000.0001) %MON ad_time_secondsf             =   6.2225280000000E+09
(PID.TID 0000.0001) %MON ad_dynstat_adeta_max         =   0.0000000000000E+00
(PID.TID 0000.0001) %MON ad_dynstat_adeta_min         =   0.0000000000000E+00
(PID.TID 0000.0001) %MON ad_dynstat_adeta_mean        =   0.0000000000000E+00
(PID.TID 0000.0001) %MON ad_dynstat_adeta_sd          =   0.0000000000000E+00
(PID.TID 0000.0001) %MON ad_dynstat_adeta_del2        =   0.0000000000000E+00
(PID.TID 0000.0001) %MON ad_dynstat_aduvel_max        =   0.0000000000000E+00
(PID.TID 0000.0001) %MON ad_dynstat_aduvel_min        =   0.0000000000000E+00
(PID.TID 0000.0001) %MON ad_dynstat_aduvel_mean       =   0.0000000000000E+00
(PID.TID 0000.0001) %MON ad_dynstat_aduvel_sd         =   0.0000000000000E+00
(PID.TID 0000.0001) %MON ad_dynstat_aduvel_del2       =   0.0000000000000E+00
(PID.TID 0000.0001) %MON ad_dynstat_advvel_max        =   0.0000000000000E+00
(PID.TID 0000.0001) %MON ad_dynstat_advvel_min        =   0.0000000000000E+00
(PID.TID 0000.0001) %MON ad_dynstat_advvel_mean       =   0.0000000000000E+00
(PID.TID 0000.0001) %MON ad_dynstat_advvel_sd         =   0.0000000000000E+00
(PID.TID 0000.0001) %MON ad_dynstat_advvel_del2       =   0.0000000000000E+00
(PID.TID 0000.0001) %MON ad_dynstat_adwvel_max        =   0.0000000000000E+00
(PID.TID 0000.0001) %MON ad_dynstat_adwvel_min        =   0.0000000000000E+00
(PID.TID 0000.0001) %MON ad_dynstat_adwvel_mean       =   0.0000000000000E+00
(PID.TID 0000.0001) %MON ad_dynstat_adwvel_sd         =   0.0000000000000E+00
(PID.TID 0000.0001) %MON ad_dynstat_adwvel_del2       =   0.0000000000000E+00
(PID.TID 0000.0001) %MON ad_dynstat_adtheta_max       =   1.8264727094859E+01
(PID.TID 0000.0001) %MON ad_dynstat_adtheta_min       =  -2.1784255531015E+01
(PID.TID 0000.0001) %MON ad_dynstat_adtheta_mean      =   6.1408103347192E-01
(PID.TID 0000.0001) %MON ad_dynstat_adtheta_sd        =   1.9169283353182E+00
(PID.TID 0000.0001) %MON ad_dynstat_adtheta_del2      =   7.1810685395418E-03
(PID.TID 0000.0001) %MON ad_dynstat_adsalt_max        =   0.0000000000000E+00
(PID.TID 0000.0001) %MON ad_dynstat_adsalt_min        =   0.0000000000000E+00
(PID.TID 0000.0001) %MON ad_dynstat_adsalt_mean       =   0.0000000000000E+00
(PID.TID 0000.0001) %MON ad_dynstat_adsalt_sd         =   0.0000000000000E+00
(PID.TID 0000.0001) %MON ad_dynstat_adsalt_del2       =   0.0000000000000E+00
(PID.TID 0000.0001) %MON ad_forcing_adqnet_max        =   0.0000000000000E+00
(PID.TID 0000.0001) %MON ad_forcing_adqnet_min        =   0.0000000000000E+00
(PID.TID 0000.0001) %MON ad_forcing_adqnet_mean       =   0.0000000000000E+00
(PID.TID 0000.0001) %MON ad_forcing_adqnet_sd         =   0.0000000000000E+00
(PID.TID 0000.0001) %MON ad_forcing_adqnet_del2       =   0.0000000000000E+00
(PID.TID 0000.0001) %MON ad_forcing_adqsw_max         =   0.0000000000000E+00
(PID.TID 0000.0001) %MON ad_forcing_adqsw_min         =   0.0000000000000E+00
(PID.TID 0000.0001) %MON ad_forcing_adqsw_mean        =   0.0000000000000E+00
(PID.TID 0000.0001) %MON ad_forcing_adqsw_sd          =   0.0000000000000E+00
(PID.TID 0000.0001) %MON ad_forcing_adqsw_del2        =   0.0000000000000E+00
(PID.TID 0000.0001) %MON ad_forcing_adempmr_max       =   0.0000000000000E+00
(PID.TID 0000.0001) %MON ad_forcing_adempmr_min       =   0.0000000000000E+00
(PID.TID 0000.0001) %MON ad_forcing_adempmr_mean      =   0.0000000000000E+00
(PID.TID 0000.0001) %MON ad_forcing_adempmr_sd        =   0.0000000000000E+00
(PID.TID 0000.0001) %MON ad_forcing_adempmr_del2      =   0.0000000000000E+00
(PID.TID 0000.0001) %MON ad_forcing_adfu_max          =   0.0000000000000E+00
(PID.TID 0000.0001) %MON ad_forcing_adfu_min          =   0.0000000000000E+00
(PID.TID 0000.0001) %MON ad_forcing_adfu_mean         =   0.0000000000000E+00
(PID.TID 0000.0001) %MON ad_forcing_adfu_sd           =   0.0000000000000E+00
(PID.TID 0000.0001) %MON ad_forcing_adfu_del2         =   0.0000000000000E+00
(PID.TID 0000.0001) %MON ad_forcing_adfv_max          =   0.0000000000000E+00
(PID.TID 0000.0001) %MON ad_forcing_adfv_min          =   0.0000000000000E+00
(PID.TID 0000.0001) %MON ad_forcing_adfv_mean         =   0.0000000000000E+00
(PID.TID 0000.0001) %MON ad_forcing_adfv_sd           =   0.0000000000000E+00
(PID.TID 0000.0001) %MON ad_forcing_adfv_del2         =   0.0000000000000E+00
(PID.TID 0000.0001) %MON ad_advcfl_aduvel_max         =   0.0000000000000E+00
(PID.TID 0000.0001) %MON ad_advcfl_advvel_max         =   0.0000000000000E+00
(PID.TID 0000.0001) %MON ad_advcfl_adwvel_max         =   0.0000000000000E+00
(PID.TID 0000.0001) %MON ad_advcfl_adW_hf_max         =   0.0000000000000E+00
(PID.TID 0000.0001) // =======================================================
(PID.TID 0000.0001) // End MONITOR dynamic field statistics
(PID.TID 0000.0001) // =======================================================
 cg2d: Sum(rhs),rhsMax =  -6.50521303491303E-19  1.74914478889868E-04
 cg2d: Sum(rhs),rhsMax =  -9.46442924032453E-12  4.22179769310647E+00
(PID.TID 0000.0001) // =======================================================
(PID.TID 0000.0001) // Begin MONITOR dynamic field statistics
(PID.TID 0000.0001) // =======================================================
(PID.TID 0000.0001) %MON ad_time_tsnumber             =                 72019
(PID.TID 0000.0001) %MON ad_time_secondsf             =   6.2224416000000E+09
(PID.TID 0000.0001) %MON ad_dynstat_adeta_max         =   0.0000000000000E+00
(PID.TID 0000.0001) %MON ad_dynstat_adeta_min         =   0.0000000000000E+00
(PID.TID 0000.0001) %MON ad_dynstat_adeta_mean        =   0.0000000000000E+00
(PID.TID 0000.0001) %MON ad_dynstat_adeta_sd          =   0.0000000000000E+00
(PID.TID 0000.0001) %MON ad_dynstat_adeta_del2        =   0.0000000000000E+00
(PID.TID 0000.0001) %MON ad_dynstat_aduvel_max        =   1.8373186125282E+01
(PID.TID 0000.0001) %MON ad_dynstat_aduvel_min        =  -5.2729403324211E+01
(PID.TID 0000.0001) %MON ad_dynstat_aduvel_mean       =   4.6580232744716E-02
(PID.TID 0000.0001) %MON ad_dynstat_aduvel_sd         =   1.1048854386885E+00
(PID.TID 0000.0001) %MON ad_dynstat_aduvel_del2       =   1.1277363281216E-02
(PID.TID 0000.0001) %MON ad_dynstat_advvel_max        =   3.3948598936593E+01
(PID.TID 0000.0001) %MON ad_dynstat_advvel_min        =  -1.7206237988663E+01
(PID.TID 0000.0001) %MON ad_dynstat_advvel_mean       =  -1.7948372251473E-02
(PID.TID 0000.0001) %MON ad_dynstat_advvel_sd         =   1.0663509476798E+00
(PID.TID 0000.0001) %MON ad_dynstat_advvel_del2       =   9.3312123362068E-03
(PID.TID 0000.0001) %MON ad_dynstat_adwvel_max        =   5.9019149069680E+01
(PID.TID 0000.0001) %MON ad_dynstat_adwvel_min        =  -3.4831662475983E+01
(PID.TID 0000.0001) %MON ad_dynstat_adwvel_mean       =  -1.1006624574887E-03
(PID.TID 0000.0001) %MON ad_dynstat_adwvel_sd         =   6.4472878023766E-01
(PID.TID 0000.0001) %MON ad_dynstat_adwvel_del2       =   8.5102409413517E-03
(PID.TID 0000.0001) %MON ad_dynstat_adtheta_max       =   5.6187182335328E+01
(PID.TID 0000.0001) %MON ad_dynstat_adtheta_min       =  -6.6773261558026E+01
(PID.TID 0000.0001) %MON ad_dynstat_adtheta_mean      =   6.1257952522474E-01
(PID.TID 0000.0001) %MON ad_dynstat_adtheta_sd        =   1.9289318371532E+00
(PID.TID 0000.0001) %MON ad_dynstat_adtheta_del2      =   1.1549834542546E-02
(PID.TID 0000.0001) %MON ad_dynstat_adsalt_max        =   2.3551291977815E+02
(PID.TID 0000.0001) %MON ad_dynstat_adsalt_min        =  -2.3601723762668E+02
(PID.TID 0000.0001) %MON ad_dynstat_adsalt_mean       =  -1.1114674405488E-03
(PID.TID 0000.0001) %MON ad_dynstat_adsalt_sd         =   1.0966256567176E+00
(PID.TID 0000.0001) %MON ad_dynstat_adsalt_del2       =   3.3717039340510E-02
(PID.TID 0000.0001) %MON ad_forcing_adqnet_max        =   0.0000000000000E+00
(PID.TID 0000.0001) %MON ad_forcing_adqnet_min        =   0.0000000000000E+00
(PID.TID 0000.0001) %MON ad_forcing_adqnet_mean       =   0.0000000000000E+00
(PID.TID 0000.0001) %MON ad_forcing_adqnet_sd         =   0.0000000000000E+00
(PID.TID 0000.0001) %MON ad_forcing_adqnet_del2       =   0.0000000000000E+00
(PID.TID 0000.0001) %MON ad_forcing_adqsw_max         =   2.6022195244690E-04
(PID.TID 0000.0001) %MON ad_forcing_adqsw_min         =  -2.3682986716630E-04
(PID.TID 0000.0001) %MON ad_forcing_adqsw_mean        =   1.8906886462208E-05
(PID.TID 0000.0001) %MON ad_forcing_adqsw_sd          =   4.9639816982235E-05
(PID.TID 0000.0001) %MON ad_forcing_adqsw_del2        =   6.7822733567867E-07
(PID.TID 0000.0001) %MON ad_forcing_adempmr_max       =   0.0000000000000E+00
(PID.TID 0000.0001) %MON ad_forcing_adempmr_min       =   0.0000000000000E+00
(PID.TID 0000.0001) %MON ad_forcing_adempmr_mean      =   0.0000000000000E+00
(PID.TID 0000.0001) %MON ad_forcing_adempmr_sd        =   0.0000000000000E+00
(PID.TID 0000.0001) %MON ad_forcing_adempmr_del2      =   0.0000000000000E+00
(PID.TID 0000.0001) %MON ad_forcing_adfu_max          =   0.0000000000000E+00
(PID.TID 0000.0001) %MON ad_forcing_adfu_min          =   0.0000000000000E+00
(PID.TID 0000.0001) %MON ad_forcing_adfu_mean         =   0.0000000000000E+00
(PID.TID 0000.0001) %MON ad_forcing_adfu_sd           =   0.0000000000000E+00
(PID.TID 0000.0001) %MON ad_forcing_adfu_del2         =   0.0000000000000E+00
(PID.TID 0000.0001) %MON ad_forcing_adfv_max          =   0.0000000000000E+00
(PID.TID 0000.0001) %MON ad_forcing_adfv_min          =   0.0000000000000E+00
(PID.TID 0000.0001) %MON ad_forcing_adfv_mean         =   0.0000000000000E+00
(PID.TID 0000.0001) %MON ad_forcing_adfv_sd           =   0.0000000000000E+00
(PID.TID 0000.0001) %MON ad_forcing_adfv_del2         =   0.0000000000000E+00
(PID.TID 0000.0001) %MON ad_advcfl_aduvel_max         =   1.9489239669695E+01
(PID.TID 0000.0001) %MON ad_advcfl_advvel_max         =   1.2171006437911E+01
(PID.TID 0000.0001) %MON ad_advcfl_adwvel_max         =   8.4987574660339E+04
(PID.TID 0000.0001) %MON ad_advcfl_adW_hf_max         =   1.0198585636652E+05
(PID.TID 0000.0001) // =======================================================
(PID.TID 0000.0001) // End MONITOR dynamic field statistics
(PID.TID 0000.0001) // =======================================================
 cg2d: Sum(rhs),rhsMax =   0.00000000000000E+00  1.43944383115374E-03
 cg2d: Sum(rhs),rhsMax =  -9.43600753089413E-12  4.22414668943850E+00
 cg2d: Sum(rhs),rhsMax =  -1.01465502666542E-11  4.22297627211644E+00
 cg2d: Sum(rhs),rhsMax =  -1.01465502666542E-11  4.22297627211644E+00
(PID.TID 0000.0001) // =======================================================
(PID.TID 0000.0001) // Begin MONITOR dynamic field statistics
(PID.TID 0000.0001) // =======================================================
(PID.TID 0000.0001) %MON ad_time_tsnumber             =                 72018
(PID.TID 0000.0001) %MON ad_time_secondsf             =   6.2223552000000E+09
(PID.TID 0000.0001) %MON ad_dynstat_adeta_max         =   0.0000000000000E+00
(PID.TID 0000.0001) %MON ad_dynstat_adeta_min         =   0.0000000000000E+00
(PID.TID 0000.0001) %MON ad_dynstat_adeta_mean        =   0.0000000000000E+00
(PID.TID 0000.0001) %MON ad_dynstat_adeta_sd          =   0.0000000000000E+00
(PID.TID 0000.0001) %MON ad_dynstat_adeta_del2        =   0.0000000000000E+00
(PID.TID 0000.0001) %MON ad_dynstat_aduvel_max        =   3.7511573078202E+01
(PID.TID 0000.0001) %MON ad_dynstat_aduvel_min        =  -1.0305323566659E+02
(PID.TID 0000.0001) %MON ad_dynstat_aduvel_mean       =   1.0370100854637E-01
(PID.TID 0000.0001) %MON ad_dynstat_aduvel_sd         =   2.1697040763643E+00
(PID.TID 0000.0001) %MON ad_dynstat_aduvel_del2       =   2.2032310034689E-02
(PID.TID 0000.0001) %MON ad_dynstat_advvel_max        =   6.4883989302715E+01
(PID.TID 0000.0001) %MON ad_dynstat_advvel_min        =  -3.3099304895647E+01
(PID.TID 0000.0001) %MON ad_dynstat_advvel_mean       =  -8.6338118413679E-03
(PID.TID 0000.0001) %MON ad_dynstat_advvel_sd         =   2.0929639129846E+00
(PID.TID 0000.0001) %MON ad_dynstat_advvel_del2       =   1.8262754352752E-02
(PID.TID 0000.0001) %MON ad_dynstat_adwvel_max        =   7.5993083141840E+01
(PID.TID 0000.0001) %MON ad_dynstat_adwvel_min        =  -4.4851050512343E+01
(PID.TID 0000.0001) %MON ad_dynstat_adwvel_mean       =  -1.6325992335024E-03
(PID.TID 0000.0001) %MON ad_dynstat_adwvel_sd         =   8.3567990315250E-01
(PID.TID 0000.0001) %MON ad_dynstat_adwvel_del2       =   1.0860204281095E-02
(PID.TID 0000.0001) %MON ad_dynstat_adtheta_max       =   5.9030395055821E+01
(PID.TID 0000.0001) %MON ad_dynstat_adtheta_min       =  -7.1330948442224E+01
(PID.TID 0000.0001) %MON ad_dynstat_adtheta_mean      =   6.1265315708489E-01
(PID.TID 0000.0001) %MON ad_dynstat_adtheta_sd        =   1.9304401298402E+00
(PID.TID 0000.0001) %MON ad_dynstat_adtheta_del2      =   1.2613166731200E-02
(PID.TID 0000.0001) %MON ad_dynstat_adsalt_max        =   2.4953099770301E+02
(PID.TID 0000.0001) %MON ad_dynstat_adsalt_min        =  -2.5009208392449E+02
(PID.TID 0000.0001) %MON ad_dynstat_adsalt_mean       =  -3.5574324171878E-03
(PID.TID 0000.0001) %MON ad_dynstat_adsalt_sd         =   1.3270030980259E+00
(PID.TID 0000.0001) %MON ad_dynstat_adsalt_del2       =   4.0643662687142E-02
(PID.TID 0000.0001) %MON ad_forcing_adqnet_max        =   0.0000000000000E+00
(PID.TID 0000.0001) %MON ad_forcing_adqnet_min        =   0.0000000000000E+00
(PID.TID 0000.0001) %MON ad_forcing_adqnet_mean       =   0.0000000000000E+00
(PID.TID 0000.0001) %MON ad_forcing_adqnet_sd         =   0.0000000000000E+00
(PID.TID 0000.0001) %MON ad_forcing_adqnet_del2       =   0.0000000000000E+00
(PID.TID 0000.0001) %MON ad_forcing_adqsw_max         =   1.1534845704172E-03
(PID.TID 0000.0001) %MON ad_forcing_adqsw_min         =  -9.4172823343487E-04
(PID.TID 0000.0001) %MON ad_forcing_adqsw_mean        =   3.8239999556035E-05
(PID.TID 0000.0001) %MON ad_forcing_adqsw_sd          =   1.0150099940113E-04
(PID.TID 0000.0001) %MON ad_forcing_adqsw_del2        =   2.0158251840563E-06
(PID.TID 0000.0001) %MON ad_forcing_adempmr_max       =   0.0000000000000E+00
(PID.TID 0000.0001) %MON ad_forcing_adempmr_min       =   0.0000000000000E+00
(PID.TID 0000.0001) %MON ad_forcing_adempmr_mean      =   0.0000000000000E+00
(PID.TID 0000.0001) %MON ad_forcing_adempmr_sd        =   0.0000000000000E+00
(PID.TID 0000.0001) %MON ad_forcing_adempmr_del2      =   0.0000000000000E+00
(PID.TID 0000.0001) %MON ad_forcing_adfu_max          =   0.0000000000000E+00
(PID.TID 0000.0001) %MON ad_forcing_adfu_min          =   0.0000000000000E+00
(PID.TID 0000.0001) %MON ad_forcing_adfu_mean         =   0.0000000000000E+00
(PID.TID 0000.0001) %MON ad_forcing_adfu_sd           =   0.0000000000000E+00
(PID.TID 0000.0001) %MON ad_forcing_adfu_del2         =   0.0000000000000E+00
(PID.TID 0000.0001) %MON ad_forcing_adfv_max          =   0.0000000000000E+00
(PID.TID 0000.0001) %MON ad_forcing_adfv_min          =   0.0000000000000E+00
(PID.TID 0000.0001) %MON ad_forcing_adfv_mean         =   0.0000000000000E+00
(PID.TID 0000.0001) %MON ad_forcing_adfv_sd           =   0.0000000000000E+00
(PID.TID 0000.0001) %MON ad_forcing_adfv_del2         =   0.0000000000000E+00
(PID.TID 0000.0001) %MON ad_advcfl_aduvel_max         =   3.8089359674616E+01
(PID.TID 0000.0001) %MON ad_advcfl_advvel_max         =   2.3261739107279E+01
(PID.TID 0000.0001) %MON ad_advcfl_adwvel_max         =   1.0943003972425E+05
(PID.TID 0000.0001) %MON ad_advcfl_adW_hf_max         =   1.3131703477164E+05
(PID.TID 0000.0001) // =======================================================
(PID.TID 0000.0001) // End MONITOR dynamic field statistics
(PID.TID 0000.0001) // =======================================================
 cg2d: Sum(rhs),rhsMax =  -1.08420217248550E-18  2.34008325891132E-03
 cg2d: Sum(rhs),rhsMax =  -9.43600753089413E-12  4.22414668943850E+00
(PID.TID 0000.0001) // =======================================================
(PID.TID 0000.0001) // Begin MONITOR dynamic field statistics
(PID.TID 0000.0001) // =======================================================
(PID.TID 0000.0001) %MON ad_time_tsnumber             =                 72017
(PID.TID 0000.0001) %MON ad_time_secondsf             =   6.2222688000000E+09
(PID.TID 0000.0001) %MON ad_dynstat_adeta_max         =   0.0000000000000E+00
(PID.TID 0000.0001) %MON ad_dynstat_adeta_min         =   0.0000000000000E+00
(PID.TID 0000.0001) %MON ad_dynstat_adeta_mean        =   0.0000000000000E+00
(PID.TID 0000.0001) %MON ad_dynstat_adeta_sd          =   0.0000000000000E+00
(PID.TID 0000.0001) %MON ad_dynstat_adeta_del2        =   0.0000000000000E+00
(PID.TID 0000.0001) %MON ad_dynstat_aduvel_max        =   8.0424699550095E+01
(PID.TID 0000.0001) %MON ad_dynstat_aduvel_min        =  -1.5180545944128E+02
(PID.TID 0000.0001) %MON ad_dynstat_aduvel_mean       =   1.5567323368140E-01
(PID.TID 0000.0001) %MON ad_dynstat_aduvel_sd         =   3.1961997090554E+00
(PID.TID 0000.0001) %MON ad_dynstat_aduvel_del2       =   3.2294490343452E-02
(PID.TID 0000.0001) %MON ad_dynstat_advvel_max        =   9.2134417857150E+01
(PID.TID 0000.0001) %MON ad_dynstat_advvel_min        =  -5.0989035429997E+01
(PID.TID 0000.0001) %MON ad_dynstat_advvel_mean       =   2.9932816687052E-02
(PID.TID 0000.0001) %MON ad_dynstat_advvel_sd         =   3.0825144792542E+00
(PID.TID 0000.0001) %MON ad_dynstat_advvel_del2       =   2.6822837019300E-02
(PID.TID 0000.0001) %MON ad_dynstat_adwvel_max        =   1.0540134144788E+02
(PID.TID 0000.0001) %MON ad_dynstat_adwvel_min        =  -6.2168048014041E+01
(PID.TID 0000.0001) %MON ad_dynstat_adwvel_mean       =  -2.5684177898712E-03
(PID.TID 0000.0001) %MON ad_dynstat_adwvel_sd         =   1.1514736421527E+00
(PID.TID 0000.0001) %MON ad_dynstat_adwvel_del2       =   1.4932144126696E-02
(PID.TID 0000.0001) %MON ad_dynstat_adtheta_max       =   5.8109258054379E+01
(PID.TID 0000.0001) %MON ad_dynstat_adtheta_min       =  -7.9988487149307E+01
(PID.TID 0000.0001) %MON ad_dynstat_adtheta_mean      =   6.1306864612291E-01
(PID.TID 0000.0001) %MON ad_dynstat_adtheta_sd        =   1.9324431167318E+00
(PID.TID 0000.0001) %MON ad_dynstat_adtheta_del2      =   1.3493380971393E-02
(PID.TID 0000.0001) %MON ad_dynstat_adsalt_max        =   2.5658405264018E+02
(PID.TID 0000.0001) %MON ad_dynstat_adsalt_min        =  -2.5806315296950E+02
(PID.TID 0000.0001) %MON ad_dynstat_adsalt_mean       =  -7.5429598201203E-03
(PID.TID 0000.0001) %MON ad_dynstat_adsalt_sd         =   1.5705750335981E+00
(PID.TID 0000.0001) %MON ad_dynstat_adsalt_del2       =   4.6749593246457E-02
(PID.TID 0000.0001) %MON ad_forcing_adqnet_max        =   0.0000000000000E+00
(PID.TID 0000.0001) %MON ad_forcing_adqnet_min        =   0.0000000000000E+00
(PID.TID 0000.0001) %MON ad_forcing_adqnet_mean       =   0.0000000000000E+00
(PID.TID 0000.0001) %MON ad_forcing_adqnet_sd         =   0.0000000000000E+00
(PID.TID 0000.0001) %MON ad_forcing_adqnet_del2       =   0.0000000000000E+00
(PID.TID 0000.0001) %MON ad_forcing_adqsw_max         =   2.5100285714804E-03
(PID.TID 0000.0001) %MON ad_forcing_adqsw_min         =  -1.0716616861737E-03
(PID.TID 0000.0001) %MON ad_forcing_adqsw_mean        =   5.7743277164508E-05
(PID.TID 0000.0001) %MON ad_forcing_adqsw_sd          =   1.5585885155250E-04
(PID.TID 0000.0001) %MON ad_forcing_adqsw_del2        =   3.7508293838294E-06
(PID.TID 0000.0001) %MON ad_forcing_adempmr_max       =   0.0000000000000E+00
(PID.TID 0000.0001) %MON ad_forcing_adempmr_min       =   0.0000000000000E+00
(PID.TID 0000.0001) %MON ad_forcing_adempmr_mean      =   0.0000000000000E+00
(PID.TID 0000.0001) %MON ad_forcing_adempmr_sd        =   0.0000000000000E+00
(PID.TID 0000.0001) %MON ad_forcing_adempmr_del2      =   0.0000000000000E+00
(PID.TID 0000.0001) %MON ad_forcing_adfu_max          =   0.0000000000000E+00
(PID.TID 0000.0001) %MON ad_forcing_adfu_min          =   0.0000000000000E+00
(PID.TID 0000.0001) %MON ad_forcing_adfu_mean         =   0.0000000000000E+00
(PID.TID 0000.0001) %MON ad_forcing_adfu_sd           =   0.0000000000000E+00
(PID.TID 0000.0001) %MON ad_forcing_adfu_del2         =   0.0000000000000E+00
(PID.TID 0000.0001) %MON ad_forcing_adfv_max          =   0.0000000000000E+00
(PID.TID 0000.0001) %MON ad_forcing_adfv_min          =   0.0000000000000E+00
(PID.TID 0000.0001) %MON ad_forcing_adfv_mean         =   0.0000000000000E+00
(PID.TID 0000.0001) %MON ad_forcing_adfv_sd           =   0.0000000000000E+00
(PID.TID 0000.0001) %MON ad_forcing_adfv_del2         =   0.0000000000000E+00
(PID.TID 0000.0001) %MON ad_advcfl_aduvel_max         =   5.6108599674991E+01
(PID.TID 0000.0001) %MON ad_advcfl_advvel_max         =   3.3031365888972E+01
(PID.TID 0000.0001) %MON ad_advcfl_adwvel_max         =   1.5177793168495E+05
(PID.TID 0000.0001) %MON ad_advcfl_adW_hf_max         =   1.8213488673373E+05
(PID.TID 0000.0001) // =======================================================
(PID.TID 0000.0001) // End MONITOR dynamic field statistics
(PID.TID 0000.0001) // =======================================================
 cg2d: Sum(rhs),rhsMax =   1.95156391047391E-18  2.74395185262791E-03
 cg2d: Sum(rhs),rhsMax =  -9.09494701772928E-12  4.22711470393527E+00
S/R EXTERNAL_FIELDS_LOAD: Reading new data:    1    2     72015  6.222096000000E+09
(PID.TID 0000.0001)  MDS_READ_FIELD: opening global file: trenberth_taux.bin
(PID.TID 0000.0001)  MDS_READ_FIELD: opening global file: trenberth_taux.bin
(PID.TID 0000.0001)  MDS_READ_FIELD: opening global file: trenberth_tauy.bin
(PID.TID 0000.0001)  MDS_READ_FIELD: opening global file: trenberth_tauy.bin
(PID.TID 0000.0001)  MDS_READ_FIELD: opening global file: shiQnet_cs32.bin
(PID.TID 0000.0001)  MDS_READ_FIELD: opening global file: shiQnet_cs32.bin
(PID.TID 0000.0001)  MDS_READ_FIELD: opening global file: shiEmPR_cs32.bin
(PID.TID 0000.0001)  MDS_READ_FIELD: opening global file: shiEmPR_cs32.bin
(PID.TID 0000.0001)  MDS_READ_FIELD: opening global file: lev_surfT_cs_12m.bin
(PID.TID 0000.0001)  MDS_READ_FIELD: opening global file: lev_surfT_cs_12m.bin
(PID.TID 0000.0001)  MDS_READ_FIELD: opening global file: lev_surfS_cs_12m.bin
(PID.TID 0000.0001)  MDS_READ_FIELD: opening global file: lev_surfS_cs_12m.bin
 cg2d: Sum(rhs),rhsMax =  -9.74864633462857E-12  4.22560897639536E+00
S/R EXTERNAL_FIELDS_LOAD: Reading new data:    1    2     72015  6.222096000000E+09
(PID.TID 0000.0001)  MDS_READ_FIELD: opening global file: trenberth_taux.bin
(PID.TID 0000.0001)  MDS_READ_FIELD: opening global file: trenberth_taux.bin
(PID.TID 0000.0001)  MDS_READ_FIELD: opening global file: trenberth_tauy.bin
(PID.TID 0000.0001)  MDS_READ_FIELD: opening global file: trenberth_tauy.bin
(PID.TID 0000.0001)  MDS_READ_FIELD: opening global file: shiQnet_cs32.bin
(PID.TID 0000.0001)  MDS_READ_FIELD: opening global file: shiQnet_cs32.bin
(PID.TID 0000.0001)  MDS_READ_FIELD: opening global file: shiEmPR_cs32.bin
(PID.TID 0000.0001)  MDS_READ_FIELD: opening global file: shiEmPR_cs32.bin
(PID.TID 0000.0001)  MDS_READ_FIELD: opening global file: lev_surfT_cs_12m.bin
(PID.TID 0000.0001)  MDS_READ_FIELD: opening global file: lev_surfT_cs_12m.bin
(PID.TID 0000.0001)  MDS_READ_FIELD: opening global file: lev_surfS_cs_12m.bin
(PID.TID 0000.0001)  MDS_READ_FIELD: opening global file: lev_surfS_cs_12m.bin
 cg2d: Sum(rhs),rhsMax =  -9.74864633462857E-12  4.22560897639536E+00
(PID.TID 0000.0001) // =======================================================
(PID.TID 0000.0001) // Begin MONITOR dynamic field statistics
(PID.TID 0000.0001) // =======================================================
(PID.TID 0000.0001) %MON ad_time_tsnumber             =                 72016
(PID.TID 0000.0001) %MON ad_time_secondsf             =   6.2221824000000E+09
(PID.TID 0000.0001) %MON ad_dynstat_adeta_max         =   0.0000000000000E+00
(PID.TID 0000.0001) %MON ad_dynstat_adeta_min         =   0.0000000000000E+00
(PID.TID 0000.0001) %MON ad_dynstat_adeta_mean        =   0.0000000000000E+00
(PID.TID 0000.0001) %MON ad_dynstat_adeta_sd          =   0.0000000000000E+00
(PID.TID 0000.0001) %MON ad_dynstat_adeta_del2        =   0.0000000000000E+00
(PID.TID 0000.0001) %MON ad_dynstat_aduvel_max        =   1.5008110026389E+02
(PID.TID 0000.0001) %MON ad_dynstat_aduvel_min        =  -1.9817922701586E+02
(PID.TID 0000.0001) %MON ad_dynstat_aduvel_mean       =   1.9030358431366E-01
(PID.TID 0000.0001) %MON ad_dynstat_aduvel_sd         =   4.1777954785100E+00
(PID.TID 0000.0001) %MON ad_dynstat_aduvel_del2       =   4.2382941403491E-02
(PID.TID 0000.0001) %MON ad_dynstat_advvel_max        =   1.2268966004602E+02
(PID.TID 0000.0001) %MON ad_dynstat_advvel_min        =  -7.8796729516633E+01
(PID.TID 0000.0001) %MON ad_dynstat_advvel_mean       =   8.9981233129399E-02
(PID.TID 0000.0001) %MON ad_dynstat_advvel_sd         =   4.0299984809725E+00
(PID.TID 0000.0001) %MON ad_dynstat_advvel_del2       =   3.5262176369507E-02
(PID.TID 0000.0001) %MON ad_dynstat_adwvel_max        =   1.3345646138960E+02
(PID.TID 0000.0001) %MON ad_dynstat_adwvel_min        =  -7.8855178361498E+01
(PID.TID 0000.0001) %MON ad_dynstat_adwvel_mean       =  -3.4429780588879E-03
(PID.TID 0000.0001) %MON ad_dynstat_adwvel_sd         =   1.4623946261030E+00
(PID.TID 0000.0001) %MON ad_dynstat_adwvel_del2       =   1.8851699169416E-02
(PID.TID 0000.0001) %MON ad_dynstat_adtheta_max       =   6.0420417253107E+01
(PID.TID 0000.0001) %MON ad_dynstat_adtheta_min       =  -8.4477886816228E+01
(PID.TID 0000.0001) %MON ad_dynstat_adtheta_mean      =   6.1373192293643E-01
(PID.TID 0000.0001) %MON ad_dynstat_adtheta_sd        =   1.9338069539747E+00
(PID.TID 0000.0001) %MON ad_dynstat_adtheta_del2      =   1.4133331376888E-02
(PID.TID 0000.0001) %MON ad_dynstat_adsalt_max        =   2.6927097430724E+02
(PID.TID 0000.0001) %MON ad_dynstat_adsalt_min        =  -2.7173436297974E+02
(PID.TID 0000.0001) %MON ad_dynstat_adsalt_mean       =  -1.2677196528458E-02
(PID.TID 0000.0001) %MON ad_dynstat_adsalt_sd         =   1.7773878834478E+00
(PID.TID 0000.0001) %MON ad_dynstat_adsalt_del2       =   5.1466041648399E-02
(PID.TID 0000.0001) %MON ad_forcing_adqnet_max        =   0.0000000000000E+00
(PID.TID 0000.0001) %MON ad_forcing_adqnet_min        =   0.0000000000000E+00
(PID.TID 0000.0001) %MON ad_forcing_adqnet_mean       =   0.0000000000000E+00
(PID.TID 0000.0001) %MON ad_forcing_adqnet_sd         =   0.0000000000000E+00
(PID.TID 0000.0001) %MON ad_forcing_adqnet_del2       =   0.0000000000000E+00
(PID.TID 0000.0001) %MON ad_forcing_adqsw_max         =   3.8813478829553E-03
(PID.TID 0000.0001) %MON ad_forcing_adqsw_min         =  -1.2808826022477E-03
(PID.TID 0000.0001) %MON ad_forcing_adqsw_mean        =   7.7345380629925E-05
(PID.TID 0000.0001) %MON ad_forcing_adqsw_sd          =   2.1162231169838E-04
(PID.TID 0000.0001) %MON ad_forcing_adqsw_del2        =   5.7108023773636E-06
(PID.TID 0000.0001) %MON ad_forcing_adempmr_max       =   0.0000000000000E+00
(PID.TID 0000.0001) %MON ad_forcing_adempmr_min       =   0.0000000000000E+00
(PID.TID 0000.0001) %MON ad_forcing_adempmr_mean      =   0.0000000000000E+00
(PID.TID 0000.0001) %MON ad_forcing_adempmr_sd        =   0.0000000000000E+00
(PID.TID 0000.0001) %MON ad_forcing_adempmr_del2      =   0.0000000000000E+00
(PID.TID 0000.0001) %MON ad_forcing_adfu_max          =   0.0000000000000E+00
(PID.TID 0000.0001) %MON ad_forcing_adfu_min          =   0.0000000000000E+00
(PID.TID 0000.0001) %MON ad_forcing_adfu_mean         =   0.0000000000000E+00
(PID.TID 0000.0001) %MON ad_forcing_adfu_sd           =   0.0000000000000E+00
(PID.TID 0000.0001) %MON ad_forcing_adfu_del2         =   0.0000000000000E+00
(PID.TID 0000.0001) %MON ad_forcing_adfv_max          =   0.0000000000000E+00
(PID.TID 0000.0001) %MON ad_forcing_adfv_min          =   0.0000000000000E+00
(PID.TID 0000.0001) %MON ad_forcing_adfv_mean         =   0.0000000000000E+00
(PID.TID 0000.0001) %MON ad_forcing_adfv_sd           =   0.0000000000000E+00
(PID.TID 0000.0001) %MON ad_forcing_adfv_del2         =   0.0000000000000E+00
(PID.TID 0000.0001) %MON ad_advcfl_aduvel_max         =   7.3248741866449E+01
(PID.TID 0000.0001) %MON ad_advcfl_advvel_max         =   4.1382731784921E+01
(PID.TID 0000.0001) %MON ad_advcfl_adwvel_max         =   1.9217730440103E+05
(PID.TID 0000.0001) %MON ad_advcfl_adW_hf_max         =   2.3061449880969E+05
(PID.TID 0000.0001) // =======================================================
(PID.TID 0000.0001) // End MONITOR dynamic field statistics
(PID.TID 0000.0001) // =======================================================
 cg2d: Sum(rhs),rhsMax =   1.62630325872826E-18  2.65324300403840E-03
 cg2d: Sum(rhs),rhsMax =  -9.09494701772928E-12  4.22711470393527E+00
(PID.TID 0000.0001) // =======================================================
(PID.TID 0000.0001) // Begin MONITOR dynamic field statistics
(PID.TID 0000.0001) // =======================================================
(PID.TID 0000.0001) %MON ad_time_tsnumber             =                 72015
(PID.TID 0000.0001) %MON ad_time_secondsf             =   6.2220960000000E+09
(PID.TID 0000.0001) %MON ad_dynstat_adeta_max         =   0.0000000000000E+00
(PID.TID 0000.0001) %MON ad_dynstat_adeta_min         =   0.0000000000000E+00
(PID.TID 0000.0001) %MON ad_dynstat_adeta_mean        =   0.0000000000000E+00
(PID.TID 0000.0001) %MON ad_dynstat_adeta_sd          =   0.0000000000000E+00
(PID.TID 0000.0001) %MON ad_dynstat_adeta_del2        =   0.0000000000000E+00
(PID.TID 0000.0001) %MON ad_dynstat_aduvel_max        =   2.4514396992205E+02
(PID.TID 0000.0001) %MON ad_dynstat_aduvel_min        =  -2.4168072363103E+02
(PID.TID 0000.0001) %MON ad_dynstat_aduvel_mean       =   2.0784262606578E-01
(PID.TID 0000.0001) %MON ad_dynstat_aduvel_sd         =   5.1076432690181E+00
(PID.TID 0000.0001) %MON ad_dynstat_aduvel_del2       =   5.2382713189565E-02
(PID.TID 0000.0001) %MON ad_dynstat_advvel_max        =   1.7407684659077E+02
(PID.TID 0000.0001) %MON ad_dynstat_advvel_min        =  -1.3213545592161E+02
(PID.TID 0000.0001) %MON ad_dynstat_advvel_mean       =   1.6085181052860E-01
(PID.TID 0000.0001) %MON ad_dynstat_advvel_sd         =   4.9332414433579E+00
(PID.TID 0000.0001) %MON ad_dynstat_advvel_del2       =   4.3602576254992E-02
(PID.TID 0000.0001) %MON ad_dynstat_adwvel_max        =   1.6008062425185E+02
(PID.TID 0000.0001) %MON ad_dynstat_adwvel_min        =  -9.4920708204533E+01
(PID.TID 0000.0001) %MON ad_dynstat_adwvel_mean       =  -4.4189685119220E-03
(PID.TID 0000.0001) %MON ad_dynstat_adwvel_sd         =   1.7603240167084E+00
(PID.TID 0000.0001) %MON ad_dynstat_adwvel_del2       =   2.2594859205042E-02
(PID.TID 0000.0001) %MON ad_dynstat_adtheta_max       =   6.5635374028532E+01
(PID.TID 0000.0001) %MON ad_dynstat_adtheta_min       =  -8.6399103541424E+01
(PID.TID 0000.0001) %MON ad_dynstat_adtheta_mean      =   6.1457361300109E-01
(PID.TID 0000.0001) %MON ad_dynstat_adtheta_sd        =   1.9355430106572E+00
(PID.TID 0000.0001) %MON ad_dynstat_adtheta_del2      =   1.4568124377161E-02
(PID.TID 0000.0001) %MON ad_dynstat_adsalt_max        =   2.9902390707391E+02
(PID.TID 0000.0001) %MON ad_dynstat_adsalt_min        =  -2.9641814130385E+02
(PID.TID 0000.0001) %MON ad_dynstat_adsalt_mean       =  -1.8692392806241E-02
(PID.TID 0000.0001) %MON ad_dynstat_adsalt_sd         =   2.0031289669915E+00
(PID.TID 0000.0001) %MON ad_dynstat_adsalt_del2       =   5.5434046047852E-02
(PID.TID 0000.0001) %MON ad_forcing_adqnet_max        =   0.0000000000000E+00
(PID.TID 0000.0001) %MON ad_forcing_adqnet_min        =   0.0000000000000E+00
(PID.TID 0000.0001) %MON ad_forcing_adqnet_mean       =   0.0000000000000E+00
(PID.TID 0000.0001) %MON ad_forcing_adqnet_sd         =   0.0000000000000E+00
(PID.TID 0000.0001) %MON ad_forcing_adqnet_del2       =   0.0000000000000E+00
(PID.TID 0000.0001) %MON ad_forcing_adqsw_max         =   5.2228775171380E-03
(PID.TID 0000.0001) %MON ad_forcing_adqsw_min         =  -2.1220428543721E-03
(PID.TID 0000.0001) %MON ad_forcing_adqsw_mean        =   9.6907238077869E-05
(PID.TID 0000.0001) %MON ad_forcing_adqsw_sd          =   2.6824140000934E-04
(PID.TID 0000.0001) %MON ad_forcing_adqsw_del2        =   7.7943392425340E-06
(PID.TID 0000.0001) %MON ad_forcing_adempmr_max       =   0.0000000000000E+00
(PID.TID 0000.0001) %MON ad_forcing_adempmr_min       =   0.0000000000000E+00
(PID.TID 0000.0001) %MON ad_forcing_adempmr_mean      =   0.0000000000000E+00
(PID.TID 0000.0001) %MON ad_forcing_adempmr_sd        =   0.0000000000000E+00
(PID.TID 0000.0001) %MON ad_forcing_adempmr_del2      =   0.0000000000000E+00
(PID.TID 0000.0001) %MON ad_forcing_adfu_max          =   0.0000000000000E+00
(PID.TID 0000.0001) %MON ad_forcing_adfu_min          =   0.0000000000000E+00
(PID.TID 0000.0001) %MON ad_forcing_adfu_mean         =   0.0000000000000E+00
(PID.TID 0000.0001) %MON ad_forcing_adfu_sd           =   0.0000000000000E+00
(PID.TID 0000.0001) %MON ad_forcing_adfu_del2         =   0.0000000000000E+00
(PID.TID 0000.0001) %MON ad_forcing_adfv_max          =   0.0000000000000E+00
(PID.TID 0000.0001) %MON ad_forcing_adfv_min          =   0.0000000000000E+00
(PID.TID 0000.0001) %MON ad_forcing_adfv_mean         =   0.0000000000000E+00
(PID.TID 0000.0001) %MON ad_forcing_adfv_sd           =   0.0000000000000E+00
(PID.TID 0000.0001) %MON ad_forcing_adfv_del2         =   0.0000000000000E+00
(PID.TID 0000.0001) %MON ad_advcfl_aduvel_max         =   1.0530602668513E+02
(PID.TID 0000.0001) %MON ad_advcfl_advvel_max         =   5.7595983683626E+01
(PID.TID 0000.0001) %MON ad_advcfl_adwvel_max         =   2.3051609892266E+05
(PID.TID 0000.0001) %MON ad_advcfl_adW_hf_max         =   2.7662140030159E+05
(PID.TID 0000.0001) // =======================================================
(PID.TID 0000.0001) // End MONITOR dynamic field statistics
(PID.TID 0000.0001) // =======================================================
 cg2d: Sum(rhs),rhsMax =   4.87890977618477E-19  2.24112232725266E-03
 cg2d: Sum(rhs),rhsMax =  -9.86233317235019E-12  4.23077337950540E+00
 cg2d: Sum(rhs),rhsMax =  -9.74864633462857E-12  4.22882246149889E+00
 cg2d: Sum(rhs),rhsMax =  -9.74864633462857E-12  4.22882246149889E+00
(PID.TID 0000.0001) // =======================================================
(PID.TID 0000.0001) // Begin MONITOR dynamic field statistics
(PID.TID 0000.0001) // =======================================================
(PID.TID 0000.0001) %MON ad_time_tsnumber             =                 72014
(PID.TID 0000.0001) %MON ad_time_secondsf             =   6.2220096000000E+09
(PID.TID 0000.0001) %MON ad_dynstat_adeta_max         =   0.0000000000000E+00
(PID.TID 0000.0001) %MON ad_dynstat_adeta_min         =   0.0000000000000E+00
(PID.TID 0000.0001) %MON ad_dynstat_adeta_mean        =   0.0000000000000E+00
(PID.TID 0000.0001) %MON ad_dynstat_adeta_sd          =   0.0000000000000E+00
(PID.TID 0000.0001) %MON ad_dynstat_adeta_del2        =   0.0000000000000E+00
(PID.TID 0000.0001) %MON ad_dynstat_aduvel_max        =   3.5797042374496E+02
(PID.TID 0000.0001) %MON ad_dynstat_aduvel_min        =  -2.8197446038917E+02
(PID.TID 0000.0001) %MON ad_dynstat_aduvel_mean       =   2.1674234655645E-01
(PID.TID 0000.0001) %MON ad_dynstat_aduvel_sd         =   5.9832972240689E+00
(PID.TID 0000.0001) %MON ad_dynstat_aduvel_del2       =   6.2475245017514E-02
(PID.TID 0000.0001) %MON ad_dynstat_advvel_max        =   2.2778097823964E+02
(PID.TID 0000.0001) %MON ad_dynstat_advvel_min        =  -1.9231394853797E+02
(PID.TID 0000.0001) %MON ad_dynstat_advvel_mean       =   2.3496467028013E-01
(PID.TID 0000.0001) %MON ad_dynstat_advvel_sd         =   5.7899914717328E+00
(PID.TID 0000.0001) %MON ad_dynstat_advvel_del2       =   5.1949714228829E-02
(PID.TID 0000.0001) %MON ad_dynstat_adwvel_max        =   1.8510372688951E+02
(PID.TID 0000.0001) %MON ad_dynstat_adwvel_min        =  -1.1028993476449E+02
(PID.TID 0000.0001) %MON ad_dynstat_adwvel_mean       =  -5.3974327398764E-03
(PID.TID 0000.0001) %MON ad_dynstat_adwvel_sd         =   2.0458510827131E+00
(PID.TID 0000.0001) %MON ad_dynstat_adwvel_del2       =   2.6124215641325E-02
(PID.TID 0000.0001) %MON ad_dynstat_adtheta_max       =   6.9901174009460E+01
(PID.TID 0000.0001) %MON ad_dynstat_adtheta_min       =  -8.7258723998508E+01
(PID.TID 0000.0001) %MON ad_dynstat_adtheta_mean      =   6.1551896638344E-01
(PID.TID 0000.0001) %MON ad_dynstat_adtheta_sd        =   1.9380910719287E+00
(PID.TID 0000.0001) %MON ad_dynstat_adtheta_del2      =   1.4805010783073E-02
(PID.TID 0000.0001) %MON ad_dynstat_adsalt_max        =   3.5698957105863E+02
(PID.TID 0000.0001) %MON ad_dynstat_adsalt_min        =  -3.5741159988888E+02
(PID.TID 0000.0001) %MON ad_dynstat_adsalt_mean       =  -2.5260105675911E-02
(PID.TID 0000.0001) %MON ad_dynstat_adsalt_sd         =   2.2429789379599E+00
(PID.TID 0000.0001) %MON ad_dynstat_adsalt_del2       =   5.8263374173711E-02
(PID.TID 0000.0001) %MON ad_forcing_adqnet_max        =   0.0000000000000E+00
(PID.TID 0000.0001) %MON ad_forcing_adqnet_min        =   0.0000000000000E+00
(PID.TID 0000.0001) %MON ad_forcing_adqnet_mean       =   0.0000000000000E+00
(PID.TID 0000.0001) %MON ad_forcing_adqnet_sd         =   0.0000000000000E+00
(PID.TID 0000.0001) %MON ad_forcing_adqnet_del2       =   0.0000000000000E+00
(PID.TID 0000.0001) %MON ad_forcing_adqsw_max         =   6.5332725639695E-03
(PID.TID 0000.0001) %MON ad_forcing_adqsw_min         =  -3.1197744810194E-03
(PID.TID 0000.0001) %MON ad_forcing_adqsw_mean        =   1.1635800025367E-04
(PID.TID 0000.0001) %MON ad_forcing_adqsw_sd          =   3.2534149931848E-04
(PID.TID 0000.0001) %MON ad_forcing_adqsw_del2        =   9.9502495609562E-06
(PID.TID 0000.0001) %MON ad_forcing_adempmr_max       =   0.0000000000000E+00
(PID.TID 0000.0001) %MON ad_forcing_adempmr_min       =   0.0000000000000E+00
(PID.TID 0000.0001) %MON ad_forcing_adempmr_mean      =   0.0000000000000E+00
(PID.TID 0000.0001) %MON ad_forcing_adempmr_sd        =   0.0000000000000E+00
(PID.TID 0000.0001) %MON ad_forcing_adempmr_del2      =   0.0000000000000E+00
(PID.TID 0000.0001) %MON ad_forcing_adfu_max          =   0.0000000000000E+00
(PID.TID 0000.0001) %MON ad_forcing_adfu_min          =   0.0000000000000E+00
(PID.TID 0000.0001) %MON ad_forcing_adfu_mean         =   0.0000000000000E+00
(PID.TID 0000.0001) %MON ad_forcing_adfu_sd           =   0.0000000000000E+00
(PID.TID 0000.0001) %MON ad_forcing_adfu_del2         =   0.0000000000000E+00
(PID.TID 0000.0001) %MON ad_forcing_adfv_max          =   0.0000000000000E+00
(PID.TID 0000.0001) %MON ad_forcing_adfv_min          =   0.0000000000000E+00
(PID.TID 0000.0001) %MON ad_forcing_adfv_mean         =   0.0000000000000E+00
(PID.TID 0000.0001) %MON ad_forcing_adfv_sd           =   0.0000000000000E+00
(PID.TID 0000.0001) %MON ad_forcing_adfv_del2         =   0.0000000000000E+00
(PID.TID 0000.0001) %MON ad_advcfl_aduvel_max         =   1.5377267084057E+02
(PID.TID 0000.0001) %MON ad_advcfl_advvel_max         =   8.3826940807602E+01
(PID.TID 0000.0001) %MON ad_advcfl_adwvel_max         =   2.6654936672089E+05
(PID.TID 0000.0001) %MON ad_advcfl_adW_hf_max         =   3.1986165140746E+05
(PID.TID 0000.0001) // =======================================================
(PID.TID 0000.0001) // End MONITOR dynamic field statistics
(PID.TID 0000.0001) // =======================================================
 cg2d: Sum(rhs),rhsMax =  -1.30104260698261E-18  2.11547280574094E-03
 cg2d: Sum(rhs),rhsMax =  -9.86233317235019E-12  4.23077337950540E+00
(PID.TID 0000.0001) // =======================================================
(PID.TID 0000.0001) // Begin MONITOR dynamic field statistics
(PID.TID 0000.0001) // =======================================================
(PID.TID 0000.0001) %MON ad_time_tsnumber             =                 72013
(PID.TID 0000.0001) %MON ad_time_secondsf             =   6.2219232000000E+09
(PID.TID 0000.0001) %MON ad_dynstat_adeta_max         =   0.0000000000000E+00
(PID.TID 0000.0001) %MON ad_dynstat_adeta_min         =   0.0000000000000E+00
(PID.TID 0000.0001) %MON ad_dynstat_adeta_mean        =   0.0000000000000E+00
(PID.TID 0000.0001) %MON ad_dynstat_adeta_sd          =   0.0000000000000E+00
(PID.TID 0000.0001) %MON ad_dynstat_adeta_del2        =   0.0000000000000E+00
(PID.TID 0000.0001) %MON ad_dynstat_aduvel_max        =   4.7856600399370E+02
(PID.TID 0000.0001) %MON ad_dynstat_aduvel_min        =  -3.1787539893428E+02
(PID.TID 0000.0001) %MON ad_dynstat_aduvel_mean       =   2.2717210342075E-01
(PID.TID 0000.0001) %MON ad_dynstat_aduvel_sd         =   6.7998787304511E+00
(PID.TID 0000.0001) %MON ad_dynstat_aduvel_del2       =   7.2072049479283E-02
(PID.TID 0000.0001) %MON ad_dynstat_advvel_max        =   2.8212230749541E+02
(PID.TID 0000.0001) %MON ad_dynstat_advvel_min        =  -2.5212186732747E+02
(PID.TID 0000.0001) %MON ad_dynstat_advvel_mean       =   3.0823478355715E-01
(PID.TID 0000.0001) %MON ad_dynstat_advvel_sd         =   6.5962195449097E+00
(PID.TID 0000.0001) %MON ad_dynstat_advvel_del2       =   5.9812306309763E-02
(PID.TID 0000.0001) %MON ad_dynstat_adwvel_max        =   2.0840788279922E+02
(PID.TID 0000.0001) %MON ad_dynstat_adwvel_min        =  -1.2489160270093E+02
(PID.TID 0000.0001) %MON ad_dynstat_adwvel_mean       =  -6.3838626967416E-03
(PID.TID 0000.0001) %MON ad_dynstat_adwvel_sd         =   2.3172214587802E+00
(PID.TID 0000.0001) %MON ad_dynstat_adwvel_del2       =   2.9383149578236E-02
(PID.TID 0000.0001) %MON ad_dynstat_adtheta_max       =   6.9237894021874E+01
(PID.TID 0000.0001) %MON ad_dynstat_adtheta_min       =  -8.7644774899838E+01
(PID.TID 0000.0001) %MON ad_dynstat_adtheta_mean      =   6.1653811114090E-01
(PID.TID 0000.0001) %MON ad_dynstat_adtheta_sd        =   1.9419096490114E+00
(PID.TID 0000.0001) %MON ad_dynstat_adtheta_del2      =   1.4841274254533E-02
(PID.TID 0000.0001) %MON ad_dynstat_adsalt_max        =   3.8131330963008E+02
(PID.TID 0000.0001) %MON ad_dynstat_adsalt_min        =  -3.8575778974703E+02
(PID.TID 0000.0001) %MON ad_dynstat_adsalt_mean       =  -3.2207909481787E-02
(PID.TID 0000.0001) %MON ad_dynstat_adsalt_sd         =   2.4956619998762E+00
(PID.TID 0000.0001) %MON ad_dynstat_adsalt_del2       =   5.9761928953890E-02
(PID.TID 0000.0001) %MON ad_forcing_adqnet_max        =   0.0000000000000E+00
(PID.TID 0000.0001) %MON ad_forcing_adqnet_min        =   0.0000000000000E+00
(PID.TID 0000.0001) %MON ad_forcing_adqnet_mean       =   0.0000000000000E+00
(PID.TID 0000.0001) %MON ad_forcing_adqnet_sd         =   0.0000000000000E+00
(PID.TID 0000.0001) %MON ad_forcing_adqnet_del2       =   0.0000000000000E+00
(PID.TID 0000.0001) %MON ad_forcing_adqsw_max         =   7.8158784041945E-03
(PID.TID 0000.0001) %MON ad_forcing_adqsw_min         =  -4.1980993846778E-03
(PID.TID 0000.0001) %MON ad_forcing_adqsw_mean        =   1.3568934807280E-04
(PID.TID 0000.0001) %MON ad_forcing_adqsw_sd          =   3.8260167069058E-04
(PID.TID 0000.0001) %MON ad_forcing_adqsw_del2        =   1.2145750412801E-05
(PID.TID 0000.0001) %MON ad_forcing_adempmr_max       =   0.0000000000000E+00
(PID.TID 0000.0001) %MON ad_forcing_adempmr_min       =   0.0000000000000E+00
(PID.TID 0000.0001) %MON ad_forcing_adempmr_mean      =   0.0000000000000E+00
(PID.TID 0000.0001) %MON ad_forcing_adempmr_sd        =   0.0000000000000E+00
(PID.TID 0000.0001) %MON ad_forcing_adempmr_del2      =   0.0000000000000E+00
(PID.TID 0000.0001) %MON ad_forcing_adfu_max          =   0.0000000000000E+00
(PID.TID 0000.0001) %MON ad_forcing_adfu_min          =   0.0000000000000E+00
(PID.TID 0000.0001) %MON ad_forcing_adfu_mean         =   0.0000000000000E+00
(PID.TID 0000.0001) %MON ad_forcing_adfu_sd           =   0.0000000000000E+00
(PID.TID 0000.0001) %MON ad_forcing_adfu_del2         =   0.0000000000000E+00
(PID.TID 0000.0001) %MON ad_forcing_adfv_max          =   0.0000000000000E+00
(PID.TID 0000.0001) %MON ad_forcing_adfv_min          =   0.0000000000000E+00
(PID.TID 0000.0001) %MON ad_forcing_adfv_mean         =   0.0000000000000E+00
(PID.TID 0000.0001) %MON ad_forcing_adfv_sd           =   0.0000000000000E+00
(PID.TID 0000.0001) %MON ad_forcing_adfv_del2         =   0.0000000000000E+00
(PID.TID 0000.0001) %MON ad_advcfl_aduvel_max         =   2.0557668378783E+02
(PID.TID 0000.0001) %MON ad_advcfl_advvel_max         =   1.0989637002118E+02
(PID.TID 0000.0001) %MON ad_advcfl_adwvel_max         =   3.0010735123087E+05
(PID.TID 0000.0001) %MON ad_advcfl_adW_hf_max         =   3.6013154341618E+05
(PID.TID 0000.0001) // =======================================================
(PID.TID 0000.0001) // End MONITOR dynamic field statistics
(PID.TID 0000.0001) // =======================================================
 cg2d: Sum(rhs),rhsMax =   6.50521303491303E-19  2.64715459053639E-03
 cg2d: Sum(rhs),rhsMax =  -9.69180291576777E-12  4.23553911170086E+00
 cg2d: Sum(rhs),rhsMax =  -9.91917659121100E-12  4.23300290462224E+00
 cg2d: Sum(rhs),rhsMax =  -9.91917659121100E-12  4.23300290462224E+00
(PID.TID 0000.0001) // =======================================================
(PID.TID 0000.0001) // Begin MONITOR dynamic field statistics
(PID.TID 0000.0001) // =======================================================
(PID.TID 0000.0001) %MON ad_time_tsnumber             =                 72012
(PID.TID 0000.0001) %MON ad_time_secondsf             =   6.2218368000000E+09
(PID.TID 0000.0001) %MON ad_dynstat_adeta_max         =   0.0000000000000E+00
(PID.TID 0000.0001) %MON ad_dynstat_adeta_min         =   0.0000000000000E+00
(PID.TID 0000.0001) %MON ad_dynstat_adeta_mean        =   0.0000000000000E+00
(PID.TID 0000.0001) %MON ad_dynstat_adeta_sd          =   0.0000000000000E+00
(PID.TID 0000.0001) %MON ad_dynstat_adeta_del2        =   0.0000000000000E+00
(PID.TID 0000.0001) %MON ad_dynstat_aduvel_max        =   5.9704216554969E+02
(PID.TID 0000.0001) %MON ad_dynstat_aduvel_min        =  -3.6401644300015E+02
(PID.TID 0000.0001) %MON ad_dynstat_aduvel_mean       =   2.4361680380906E-01
(PID.TID 0000.0001) %MON ad_dynstat_aduvel_sd         =   7.5561323042206E+00
(PID.TID 0000.0001) %MON ad_dynstat_aduvel_del2       =   8.1373177973741E-02
(PID.TID 0000.0001) %MON ad_dynstat_advvel_max        =   3.1647987612816E+02
(PID.TID 0000.0001) %MON ad_dynstat_advvel_min        =  -3.0505507007986E+02
(PID.TID 0000.0001) %MON ad_dynstat_advvel_mean       =   3.7967011265220E-01
(PID.TID 0000.0001) %MON ad_dynstat_advvel_sd         =   7.3489144748199E+00
(PID.TID 0000.0001) %MON ad_dynstat_advvel_del2       =   6.7162282940433E-02
(PID.TID 0000.0001) %MON ad_dynstat_adwvel_max        =   2.2990511301169E+02
(PID.TID 0000.0001) %MON ad_dynstat_adwvel_min        =  -1.3865956467995E+02
(PID.TID 0000.0001) %MON ad_dynstat_adwvel_mean       =  -7.3393097047547E-03
(PID.TID 0000.0001) %MON ad_dynstat_adwvel_sd         =   2.5734596767562E+00
(PID.TID 0000.0001) %MON ad_dynstat_adwvel_del2       =   3.2418136767553E-02
(PID.TID 0000.0001) %MON ad_dynstat_adtheta_max       =   6.7337884871259E+01
(PID.TID 0000.0001) %MON ad_dynstat_adtheta_min       =  -8.7161331103364E+01
(PID.TID 0000.0001) %MON ad_dynstat_adtheta_mean      =   6.1759456971799E-01
(PID.TID 0000.0001) %MON ad_dynstat_adtheta_sd        =   1.9474000049490E+00
(PID.TID 0000.0001) %MON ad_dynstat_adtheta_del2      =   1.4701810912508E-02
(PID.TID 0000.0001) %MON ad_dynstat_adsalt_max        =   3.7505044675364E+02
(PID.TID 0000.0001) %MON ad_dynstat_adsalt_min        =  -3.8414023153799E+02
(PID.TID 0000.0001) %MON ad_dynstat_adsalt_mean       =  -3.9409758151171E-02
(PID.TID 0000.0001) %MON ad_dynstat_adsalt_sd         =   2.7629655504504E+00
(PID.TID 0000.0001) %MON ad_dynstat_adsalt_del2       =   6.0081491542874E-02
(PID.TID 0000.0001) %MON ad_forcing_adqnet_max        =   0.0000000000000E+00
(PID.TID 0000.0001) %MON ad_forcing_adqnet_min        =   0.0000000000000E+00
(PID.TID 0000.0001) %MON ad_forcing_adqnet_mean       =   0.0000000000000E+00
(PID.TID 0000.0001) %MON ad_forcing_adqnet_sd         =   0.0000000000000E+00
(PID.TID 0000.0001) %MON ad_forcing_adqnet_del2       =   0.0000000000000E+00
(PID.TID 0000.0001) %MON ad_forcing_adqsw_max         =   9.2434546871664E-03
(PID.TID 0000.0001) %MON ad_forcing_adqsw_min         =  -5.2858186223586E-03
(PID.TID 0000.0001) %MON ad_forcing_adqsw_mean        =   1.5487879685401E-04
(PID.TID 0000.0001) %MON ad_forcing_adqsw_sd          =   4.3969718900320E-04
(PID.TID 0000.0001) %MON ad_forcing_adqsw_del2        =   1.4350311961887E-05
(PID.TID 0000.0001) %MON ad_forcing_adempmr_max       =   0.0000000000000E+00
(PID.TID 0000.0001) %MON ad_forcing_adempmr_min       =   0.0000000000000E+00
(PID.TID 0000.0001) %MON ad_forcing_adempmr_mean      =   0.0000000000000E+00
(PID.TID 0000.0001) %MON ad_forcing_adempmr_sd        =   0.0000000000000E+00
(PID.TID 0000.0001) %MON ad_forcing_adempmr_del2      =   0.0000000000000E+00
(PID.TID 0000.0001) %MON ad_forcing_adfu_max          =   0.0000000000000E+00
(PID.TID 0000.0001) %MON ad_forcing_adfu_min          =   0.0000000000000E+00
(PID.TID 0000.0001) %MON ad_forcing_adfu_mean         =   0.0000000000000E+00
(PID.TID 0000.0001) %MON ad_forcing_adfu_sd           =   0.0000000000000E+00
(PID.TID 0000.0001) %MON ad_forcing_adfu_del2         =   0.0000000000000E+00
(PID.TID 0000.0001) %MON ad_forcing_adfv_max          =   0.0000000000000E+00
(PID.TID 0000.0001) %MON ad_forcing_adfv_min          =   0.0000000000000E+00
(PID.TID 0000.0001) %MON ad_forcing_adfv_mean         =   0.0000000000000E+00
(PID.TID 0000.0001) %MON ad_forcing_adfv_sd           =   0.0000000000000E+00
(PID.TID 0000.0001) %MON ad_forcing_adfv_del2         =   0.0000000000000E+00
(PID.TID 0000.0001) %MON ad_advcfl_aduvel_max         =   2.5647026209748E+02
(PID.TID 0000.0001) %MON ad_advcfl_advvel_max         =   1.3296920736664E+02
(PID.TID 0000.0001) %MON ad_advcfl_adwvel_max         =   3.3106336273683E+05
(PID.TID 0000.0001) %MON ad_advcfl_adW_hf_max         =   3.9727904849188E+05
(PID.TID 0000.0001) // =======================================================
(PID.TID 0000.0001) // End MONITOR dynamic field statistics
(PID.TID 0000.0001) // =======================================================
 cg2d: Sum(rhs),rhsMax =   4.33680868994202E-19  3.07117429109975E-03
 cg2d: Sum(rhs),rhsMax =  -9.69180291576777E-12  4.23553911170086E+00
(PID.TID 0000.0001) // =======================================================
(PID.TID 0000.0001) // Begin MONITOR dynamic field statistics
(PID.TID 0000.0001) // =======================================================
(PID.TID 0000.0001) %MON ad_time_tsnumber             =                 72011
(PID.TID 0000.0001) %MON ad_time_secondsf             =   6.2217504000000E+09
(PID.TID 0000.0001) %MON ad_dynstat_adeta_max         =   0.0000000000000E+00
(PID.TID 0000.0001) %MON ad_dynstat_adeta_min         =   0.0000000000000E+00
(PID.TID 0000.0001) %MON ad_dynstat_adeta_mean        =   0.0000000000000E+00
(PID.TID 0000.0001) %MON ad_dynstat_adeta_sd          =   0.0000000000000E+00
(PID.TID 0000.0001) %MON ad_dynstat_adeta_del2        =   0.0000000000000E+00
(PID.TID 0000.0001) %MON ad_dynstat_aduvel_max        =   7.2326204250398E+02
(PID.TID 0000.0001) %MON ad_dynstat_aduvel_min        =  -4.3916071217307E+02
(PID.TID 0000.0001) %MON ad_dynstat_aduvel_mean       =   2.6655769525351E-01
(PID.TID 0000.0001) %MON ad_dynstat_aduvel_sd         =   8.2585821684694E+00
(PID.TID 0000.0001) %MON ad_dynstat_aduvel_del2       =   9.0832336062828E-02
(PID.TID 0000.0001) %MON ad_dynstat_advvel_max        =   3.5041045171520E+02
(PID.TID 0000.0001) %MON ad_dynstat_advvel_min        =  -3.6391032689150E+02
(PID.TID 0000.0001) %MON ad_dynstat_advvel_mean       =   4.5088524052424E-01
(PID.TID 0000.0001) %MON ad_dynstat_advvel_sd         =   8.0557420196453E+00
(PID.TID 0000.0001) %MON ad_dynstat_advvel_del2       =   7.5091020489655E-02
(PID.TID 0000.0001) %MON ad_dynstat_adwvel_max        =   2.4951309184324E+02
(PID.TID 0000.0001) %MON ad_dynstat_adwvel_min        =  -1.5152215539544E+02
(PID.TID 0000.0001) %MON ad_dynstat_adwvel_mean       =  -8.2852348604363E-03
(PID.TID 0000.0001) %MON ad_dynstat_adwvel_sd         =   2.8155710211375E+00
(PID.TID 0000.0001) %MON ad_dynstat_adwvel_del2       =   3.5243438755320E-02
(PID.TID 0000.0001) %MON ad_dynstat_adtheta_max       =   6.3477491246530E+01
(PID.TID 0000.0001) %MON ad_dynstat_adtheta_min       =  -8.6259181025285E+01
(PID.TID 0000.0001) %MON ad_dynstat_adtheta_mean      =   6.1868354523833E-01
(PID.TID 0000.0001) %MON ad_dynstat_adtheta_sd        =   1.9552055310405E+00
(PID.TID 0000.0001) %MON ad_dynstat_adtheta_del2      =   1.4460852943768E-02
(PID.TID 0000.0001) %MON ad_dynstat_adsalt_max        =   3.4604477912127E+02
(PID.TID 0000.0001) %MON ad_dynstat_adsalt_min        =  -3.6031010928799E+02
(PID.TID 0000.0001) %MON ad_dynstat_adsalt_mean       =  -4.6758429211794E-02
(PID.TID 0000.0001) %MON ad_dynstat_adsalt_sd         =   3.0505492429244E+00
(PID.TID 0000.0001) %MON ad_dynstat_adsalt_del2       =   5.9716793949451E-02
(PID.TID 0000.0001) %MON ad_forcing_adqnet_max        =   0.0000000000000E+00
(PID.TID 0000.0001) %MON ad_forcing_adqnet_min        =   0.0000000000000E+00
(PID.TID 0000.0001) %MON ad_forcing_adqnet_mean       =   0.0000000000000E+00
(PID.TID 0000.0001) %MON ad_forcing_adqnet_sd         =   0.0000000000000E+00
(PID.TID 0000.0001) %MON ad_forcing_adqnet_del2       =   0.0000000000000E+00
(PID.TID 0000.0001) %MON ad_forcing_adqsw_max         =   1.0757320526698E-02
(PID.TID 0000.0001) %MON ad_forcing_adqsw_min         =  -6.3260557906523E-03
(PID.TID 0000.0001) %MON ad_forcing_adqsw_mean        =   1.7393740006848E-04
(PID.TID 0000.0001) %MON ad_forcing_adqsw_sd          =   4.9628227316937E-04
(PID.TID 0000.0001) %MON ad_forcing_adqsw_del2        =   1.6532969898017E-05
(PID.TID 0000.0001) %MON ad_forcing_adempmr_max       =   0.0000000000000E+00
(PID.TID 0000.0001) %MON ad_forcing_adempmr_min       =   0.0000000000000E+00
(PID.TID 0000.0001) %MON ad_forcing_adempmr_mean      =   0.0000000000000E+00
(PID.TID 0000.0001) %MON ad_forcing_adempmr_sd        =   0.0000000000000E+00
(PID.TID 0000.0001) %MON ad_forcing_adempmr_del2      =   0.0000000000000E+00
(PID.TID 0000.0001) %MON ad_forcing_adfu_max          =   0.0000000000000E+00
(PID.TID 0000.0001) %MON ad_forcing_adfu_min          =   0.0000000000000E+00
(PID.TID 0000.0001) %MON ad_forcing_adfu_mean         =   0.0000000000000E+00
(PID.TID 0000.0001) %MON ad_forcing_adfu_sd           =   0.0000000000000E+00
(PID.TID 0000.0001) %MON ad_forcing_adfu_del2         =   0.0000000000000E+00
(PID.TID 0000.0001) %MON ad_forcing_adfv_max          =   0.0000000000000E+00
(PID.TID 0000.0001) %MON ad_forcing_adfv_min          =   0.0000000000000E+00
(PID.TID 0000.0001) %MON ad_forcing_adfv_mean         =   0.0000000000000E+00
(PID.TID 0000.0001) %MON ad_forcing_adfv_sd           =   0.0000000000000E+00
(PID.TID 0000.0001) %MON ad_forcing_adfv_del2         =   0.0000000000000E+00
(PID.TID 0000.0001) %MON ad_advcfl_aduvel_max         =   3.1069029343241E+02
(PID.TID 0000.0001) %MON ad_advcfl_advvel_max         =   1.5862338464537E+02
(PID.TID 0000.0001) %MON ad_advcfl_adwvel_max         =   3.5929885225426E+05
(PID.TID 0000.0001) %MON ad_advcfl_adW_hf_max         =   4.3116190803389E+05
(PID.TID 0000.0001) // =======================================================
(PID.TID 0000.0001) // End MONITOR dynamic field statistics
(PID.TID 0000.0001) // =======================================================
 cg2d: Sum(rhs),rhsMax =  -1.30104260698261E-18  3.70469429962844E-03
 cg2d: Sum(rhs),rhsMax =  -9.74864633462857E-12  4.24159888286032E+00
 cg2d: Sum(rhs),rhsMax =  -9.77706804405898E-12  4.23840118673925E+00
 cg2d: Sum(rhs),rhsMax =  -9.77706804405898E-12  4.23840118673925E+00
(PID.TID 0000.0001) // =======================================================
(PID.TID 0000.0001) // Begin MONITOR dynamic field statistics
(PID.TID 0000.0001) // =======================================================
(PID.TID 0000.0001) %MON ad_time_tsnumber             =                 72010
(PID.TID 0000.0001) %MON ad_time_secondsf             =   6.2216640000000E+09
(PID.TID 0000.0001) %MON ad_dynstat_adeta_max         =   0.0000000000000E+00
(PID.TID 0000.0001) %MON ad_dynstat_adeta_min         =   0.0000000000000E+00
(PID.TID 0000.0001) %MON ad_dynstat_adeta_mean        =   0.0000000000000E+00
(PID.TID 0000.0001) %MON ad_dynstat_adeta_sd          =   0.0000000000000E+00
(PID.TID 0000.0001) %MON ad_dynstat_adeta_del2        =   0.0000000000000E+00
(PID.TID 0000.0001) %MON ad_dynstat_aduvel_max        =   8.3109885083290E+02
(PID.TID 0000.0001) %MON ad_dynstat_aduvel_min        =  -4.9732415842767E+02
(PID.TID 0000.0001) %MON ad_dynstat_aduvel_mean       =   2.9417121107327E-01
(PID.TID 0000.0001) %MON ad_dynstat_aduvel_sd         =   8.8954287304764E+00
(PID.TID 0000.0001) %MON ad_dynstat_aduvel_del2       =   9.8989213080595E-02
(PID.TID 0000.0001) %MON ad_dynstat_advvel_max        =   3.8274353748657E+02
(PID.TID 0000.0001) %MON ad_dynstat_advvel_min        =  -4.0563272439335E+02
(PID.TID 0000.0001) %MON ad_dynstat_advvel_mean       =   5.2267405244428E-01
(PID.TID 0000.0001) %MON ad_dynstat_advvel_sd         =   8.7038736234867E+00
(PID.TID 0000.0001) %MON ad_dynstat_advvel_del2       =   8.1728860080499E-02
(PID.TID 0000.0001) %MON ad_dynstat_adwvel_max        =   2.6717550488998E+02
(PID.TID 0000.0001) %MON ad_dynstat_adwvel_min        =  -1.6344050073212E+02
(PID.TID 0000.0001) %MON ad_dynstat_adwvel_mean       =  -9.1358125400257E-03
(PID.TID 0000.0001) %MON ad_dynstat_adwvel_sd         =   3.0390008147115E+00
(PID.TID 0000.0001) %MON ad_dynstat_adwvel_del2       =   3.7727625810509E-02
(PID.TID 0000.0001) %MON ad_dynstat_adtheta_max       =   5.7400502955325E+01
(PID.TID 0000.0001) %MON ad_dynstat_adtheta_min       =  -8.5034534096917E+01
(PID.TID 0000.0001) %MON ad_dynstat_adtheta_mean      =   6.1976392511255E-01
(PID.TID 0000.0001) %MON ad_dynstat_adtheta_sd        =   1.9656303278538E+00
(PID.TID 0000.0001) %MON ad_dynstat_adtheta_del2      =   1.4179979315632E-02
(PID.TID 0000.0001) %MON ad_dynstat_adsalt_max        =   3.0378054971614E+02
(PID.TID 0000.0001) %MON ad_dynstat_adsalt_min        =  -3.2349230476240E+02
(PID.TID 0000.0001) %MON ad_dynstat_adsalt_mean       =  -5.4122925004452E-02
(PID.TID 0000.0001) %MON ad_dynstat_adsalt_sd         =   3.3573510808859E+00
(PID.TID 0000.0001) %MON ad_dynstat_adsalt_del2       =   5.9109509388626E-02
(PID.TID 0000.0001) %MON ad_forcing_adqnet_max        =   0.0000000000000E+00
(PID.TID 0000.0001) %MON ad_forcing_adqnet_min        =   0.0000000000000E+00
(PID.TID 0000.0001) %MON ad_forcing_adqnet_mean       =   0.0000000000000E+00
(PID.TID 0000.0001) %MON ad_forcing_adqnet_sd         =   0.0000000000000E+00
(PID.TID 0000.0001) %MON ad_forcing_adqnet_del2       =   0.0000000000000E+00
(PID.TID 0000.0001) %MON ad_forcing_adqsw_max         =   1.2249367247916E-02
(PID.TID 0000.0001) %MON ad_forcing_adqsw_min         =  -7.2800771664638E-03
(PID.TID 0000.0001) %MON ad_forcing_adqsw_mean        =   1.9284565024428E-04
(PID.TID 0000.0001) %MON ad_forcing_adqsw_sd          =   5.5209386032685E-04
(PID.TID 0000.0001) %MON ad_forcing_adqsw_del2        =   1.8672227722431E-05
(PID.TID 0000.0001) %MON ad_forcing_adempmr_max       =   0.0000000000000E+00
(PID.TID 0000.0001) %MON ad_forcing_adempmr_min       =   0.0000000000000E+00
(PID.TID 0000.0001) %MON ad_forcing_adempmr_mean      =   0.0000000000000E+00
(PID.TID 0000.0001) %MON ad_forcing_adempmr_sd        =   0.0000000000000E+00
(PID.TID 0000.0001) %MON ad_forcing_adempmr_del2      =   0.0000000000000E+00
(PID.TID 0000.0001) %MON ad_forcing_adfu_max          =   0.0000000000000E+00
(PID.TID 0000.0001) %MON ad_forcing_adfu_min          =   0.0000000000000E+00
(PID.TID 0000.0001) %MON ad_forcing_adfu_mean         =   0.0000000000000E+00
(PID.TID 0000.0001) %MON ad_forcing_adfu_sd           =   0.0000000000000E+00
(PID.TID 0000.0001) %MON ad_forcing_adfu_del2         =   0.0000000000000E+00
(PID.TID 0000.0001) %MON ad_forcing_adfv_max          =   0.0000000000000E+00
(PID.TID 0000.0001) %MON ad_forcing_adfv_min          =   0.0000000000000E+00
(PID.TID 0000.0001) %MON ad_forcing_adfv_mean         =   0.0000000000000E+00
(PID.TID 0000.0001) %MON ad_forcing_adfv_sd           =   0.0000000000000E+00
(PID.TID 0000.0001) %MON ad_forcing_adfv_del2         =   0.0000000000000E+00
(PID.TID 0000.0001) %MON ad_advcfl_aduvel_max         =   3.5701354510830E+02
(PID.TID 0000.0001) %MON ad_advcfl_advvel_max         =   1.7680958992236E+02
(PID.TID 0000.0001) %MON ad_advcfl_adwvel_max         =   3.8473272704157E+05
(PID.TID 0000.0001) %MON ad_advcfl_adW_hf_max         =   4.6168281160768E+05
(PID.TID 0000.0001) // =======================================================
(PID.TID 0000.0001) // End MONITOR dynamic field statistics
(PID.TID 0000.0001) // =======================================================
 cg2d: Sum(rhs),rhsMax =   3.19839640883224E-18  4.06687394635227E-03
 cg2d: Sum(rhs),rhsMax =  -9.74864633462857E-12  4.24159888286032E+00
(PID.TID 0000.0001) // =======================================================
(PID.TID 0000.0001) // Begin MONITOR dynamic field statistics
(PID.TID 0000.0001) // =======================================================
(PID.TID 0000.0001) %MON ad_time_tsnumber             =                 72009
(PID.TID 0000.0001) %MON ad_time_secondsf             =   6.2215776000000E+09
(PID.TID 0000.0001) %MON ad_dynstat_adeta_max         =   0.0000000000000E+00
(PID.TID 0000.0001) %MON ad_dynstat_adeta_min         =   0.0000000000000E+00
(PID.TID 0000.0001) %MON ad_dynstat_adeta_mean        =   0.0000000000000E+00
(PID.TID 0000.0001) %MON ad_dynstat_adeta_sd          =   0.0000000000000E+00
(PID.TID 0000.0001) %MON ad_dynstat_adeta_del2        =   0.0000000000000E+00
(PID.TID 0000.0001) %MON ad_dynstat_aduvel_max        =   9.1629983845495E+02
(PID.TID 0000.0001) %MON ad_dynstat_aduvel_min        =  -5.3530821521702E+02
(PID.TID 0000.0001) %MON ad_dynstat_aduvel_mean       =   3.2354907951296E-01
(PID.TID 0000.0001) %MON ad_dynstat_aduvel_sd         =   9.4721771732678E+00
(PID.TID 0000.0001) %MON ad_dynstat_aduvel_del2       =   1.0582229619792E-01
(PID.TID 0000.0001) %MON ad_dynstat_advvel_max        =   4.1305512562654E+02
(PID.TID 0000.0001) %MON ad_dynstat_advvel_min        =  -4.2788013619263E+02
(PID.TID 0000.0001) %MON ad_dynstat_advvel_mean       =   5.9557506332917E-01
(PID.TID 0000.0001) %MON ad_dynstat_advvel_sd         =   9.2971565282328E+00
(PID.TID 0000.0001) %MON ad_dynstat_advvel_del2       =   8.7073093275858E-02
(PID.TID 0000.0001) %MON ad_dynstat_adwvel_max        =   2.8287068614729E+02
(PID.TID 0000.0001) %MON ad_dynstat_adwvel_min        =  -1.7437244621793E+02
(PID.TID 0000.0001) %MON ad_dynstat_adwvel_mean       =  -9.9146301461611E-03
(PID.TID 0000.0001) %MON ad_dynstat_adwvel_sd         =   3.2486145251425E+00
(PID.TID 0000.0001) %MON ad_dynstat_adwvel_del2       =   4.0000461911818E-02
(PID.TID 0000.0001) %MON ad_dynstat_adtheta_max       =   5.4220273151898E+01
(PID.TID 0000.0001) %MON ad_dynstat_adtheta_min       =  -8.3784740691656E+01
(PID.TID 0000.0001) %MON ad_dynstat_adtheta_mean      =   6.2081341552260E-01
(PID.TID 0000.0001) %MON ad_dynstat_adtheta_sd        =   1.9782747320830E+00
(PID.TID 0000.0001) %MON ad_dynstat_adtheta_del2      =   1.3890868746633E-02
(PID.TID 0000.0001) %MON ad_dynstat_adsalt_max        =   2.5806397205972E+02
(PID.TID 0000.0001) %MON ad_dynstat_adsalt_min        =  -2.8144175265589E+02
(PID.TID 0000.0001) %MON ad_dynstat_adsalt_mean       =  -6.1300564303442E-02
(PID.TID 0000.0001) %MON ad_dynstat_adsalt_sd         =   3.6693470097004E+00
(PID.TID 0000.0001) %MON ad_dynstat_adsalt_del2       =   5.8267531794161E-02
(PID.TID 0000.0001) %MON ad_forcing_adqnet_max        =   0.0000000000000E+00
(PID.TID 0000.0001) %MON ad_forcing_adqnet_min        =   0.0000000000000E+00
(PID.TID 0000.0001) %MON ad_forcing_adqnet_mean       =   0.0000000000000E+00
(PID.TID 0000.0001) %MON ad_forcing_adqnet_sd         =   0.0000000000000E+00
(PID.TID 0000.0001) %MON ad_forcing_adqnet_del2       =   0.0000000000000E+00
(PID.TID 0000.0001) %MON ad_forcing_adqsw_max         =   1.3712814732566E-02
(PID.TID 0000.0001) %MON ad_forcing_adqsw_min         =  -8.1266108413571E-03
(PID.TID 0000.0001) %MON ad_forcing_adqsw_mean        =   2.1159369213450E-04
(PID.TID 0000.0001) %MON ad_forcing_adqsw_sd          =   6.0695505919777E-04
(PID.TID 0000.0001) %MON ad_forcing_adqsw_del2        =   2.0751067193197E-05
(PID.TID 0000.0001) %MON ad_forcing_adempmr_max       =   0.0000000000000E+00
(PID.TID 0000.0001) %MON ad_forcing_adempmr_min       =   0.0000000000000E+00
(PID.TID 0000.0001) %MON ad_forcing_adempmr_mean      =   0.0000000000000E+00
(PID.TID 0000.0001) %MON ad_forcing_adempmr_sd        =   0.0000000000000E+00
(PID.TID 0000.0001) %MON ad_forcing_adempmr_del2      =   0.0000000000000E+00
(PID.TID 0000.0001) %MON ad_forcing_adfu_max          =   0.0000000000000E+00
(PID.TID 0000.0001) %MON ad_forcing_adfu_min          =   0.0000000000000E+00
(PID.TID 0000.0001) %MON ad_forcing_adfu_mean         =   0.0000000000000E+00
(PID.TID 0000.0001) %MON ad_forcing_adfu_sd           =   0.0000000000000E+00
(PID.TID 0000.0001) %MON ad_forcing_adfu_del2         =   0.0000000000000E+00
(PID.TID 0000.0001) %MON ad_forcing_adfv_max          =   0.0000000000000E+00
(PID.TID 0000.0001) %MON ad_forcing_adfv_min          =   0.0000000000000E+00
(PID.TID 0000.0001) %MON ad_forcing_adfv_mean         =   0.0000000000000E+00
(PID.TID 0000.0001) %MON ad_forcing_adfv_sd           =   0.0000000000000E+00
(PID.TID 0000.0001) %MON ad_forcing_adfv_del2         =   0.0000000000000E+00
(PID.TID 0000.0001) %MON ad_advcfl_aduvel_max         =   3.9361317054057E+02
(PID.TID 0000.0001) %MON ad_advcfl_advvel_max         =   1.8650692329936E+02
(PID.TID 0000.0001) %MON ad_advcfl_adwvel_max         =   4.0733378805209E+05
(PID.TID 0000.0001) %MON ad_advcfl_adW_hf_max         =   4.8880432181769E+05
(PID.TID 0000.0001) // =======================================================
(PID.TID 0000.0001) // End MONITOR dynamic field statistics
(PID.TID 0000.0001) // =======================================================
 cg2d: Sum(rhs),rhsMax =  -5.42101086242752E-19  4.16650511028715E-03
 cg2d: Sum(rhs),rhsMax =  -9.46442924032453E-12  4.24900188029913E+00
 cg2d: Sum(rhs),rhsMax =  -9.26547727431171E-12  4.24513385460481E+00
 cg2d: Sum(rhs),rhsMax =  -9.26547727431171E-12  4.24513385460481E+00
(PID.TID 0000.0001) // =======================================================
(PID.TID 0000.0001) // Begin MONITOR dynamic field statistics
(PID.TID 0000.0001) // =======================================================
(PID.TID 0000.0001) %MON ad_time_tsnumber             =                 72008
(PID.TID 0000.0001) %MON ad_time_secondsf             =   6.2214912000000E+09
(PID.TID 0000.0001) %MON ad_dynstat_adeta_max         =   0.0000000000000E+00
(PID.TID 0000.0001) %MON ad_dynstat_adeta_min         =   0.0000000000000E+00
(PID.TID 0000.0001) %MON ad_dynstat_adeta_mean        =   0.0000000000000E+00
(PID.TID 0000.0001) %MON ad_dynstat_adeta_sd          =   0.0000000000000E+00
(PID.TID 0000.0001) %MON ad_dynstat_adeta_del2        =   0.0000000000000E+00
(PID.TID 0000.0001) %MON ad_dynstat_aduvel_max        =   9.7745092511411E+02
(PID.TID 0000.0001) %MON ad_dynstat_aduvel_min        =  -5.5259641861850E+02
(PID.TID 0000.0001) %MON ad_dynstat_aduvel_mean       =   3.5303596679848E-01
(PID.TID 0000.0001) %MON ad_dynstat_aduvel_sd         =   9.9939569599529E+00
(PID.TID 0000.0001) %MON ad_dynstat_aduvel_del2       =   1.1130277648991E-01
(PID.TID 0000.0001) %MON ad_dynstat_advvel_max        =   4.4115524439503E+02
(PID.TID 0000.0001) %MON ad_dynstat_advvel_min        =  -4.3062838382433E+02
(PID.TID 0000.0001) %MON ad_dynstat_advvel_mean       =   6.6941786845669E-01
(PID.TID 0000.0001) %MON ad_dynstat_advvel_sd         =   9.8389538322226E+00
(PID.TID 0000.0001) %MON ad_dynstat_advvel_del2       =   9.1133944809635E-02
(PID.TID 0000.0001) %MON ad_dynstat_adwvel_max        =   2.9656646908980E+02
(PID.TID 0000.0001) %MON ad_dynstat_adwvel_min        =  -1.8429282639650E+02
(PID.TID 0000.0001) %MON ad_dynstat_adwvel_mean       =  -1.0636039066399E-02
(PID.TID 0000.0001) %MON ad_dynstat_adwvel_sd         =   3.4424109912456E+00
(PID.TID 0000.0001) %MON ad_dynstat_adwvel_del2       =   4.2018629624398E-02
(PID.TID 0000.0001) %MON ad_dynstat_adtheta_max       =   5.2474722487377E+01
(PID.TID 0000.0001) %MON ad_dynstat_adtheta_min       =  -8.2380869387632E+01
(PID.TID 0000.0001) %MON ad_dynstat_adtheta_mean      =   6.2185659570626E-01
(PID.TID 0000.0001) %MON ad_dynstat_adtheta_sd        =   1.9935149291539E+00
(PID.TID 0000.0001) %MON ad_dynstat_adtheta_del2      =   1.3657356880891E-02
(PID.TID 0000.0001) %MON ad_dynstat_adsalt_max        =   2.5263297555124E+02
(PID.TID 0000.0001) %MON ad_dynstat_adsalt_min        =  -2.6298474055517E+02
(PID.TID 0000.0001) %MON ad_dynstat_adsalt_mean       =  -6.8495780290095E-02
(PID.TID 0000.0001) %MON ad_dynstat_adsalt_sd         =   3.9939007502585E+00
(PID.TID 0000.0001) %MON ad_dynstat_adsalt_del2       =   5.7958657326494E-02
(PID.TID 0000.0001) %MON ad_forcing_adqnet_max        =   0.0000000000000E+00
(PID.TID 0000.0001) %MON ad_forcing_adqnet_min        =   0.0000000000000E+00
(PID.TID 0000.0001) %MON ad_forcing_adqnet_mean       =   0.0000000000000E+00
(PID.TID 0000.0001) %MON ad_forcing_adqnet_sd         =   0.0000000000000E+00
(PID.TID 0000.0001) %MON ad_forcing_adqnet_del2       =   0.0000000000000E+00
(PID.TID 0000.0001) %MON ad_forcing_adqsw_max         =   1.5147000252839E-02
(PID.TID 0000.0001) %MON ad_forcing_adqsw_min         =  -8.8583658826188E-03
(PID.TID 0000.0001) %MON ad_forcing_adqsw_mean        =   2.3019150022125E-04
(PID.TID 0000.0001) %MON ad_forcing_adqsw_sd          =   6.6075855322138E-04
(PID.TID 0000.0001) %MON ad_forcing_adqsw_del2        =   2.2765368156876E-05
(PID.TID 0000.0001) %MON ad_forcing_adempmr_max       =   0.0000000000000E+00
(PID.TID 0000.0001) %MON ad_forcing_adempmr_min       =   0.0000000000000E+00
(PID.TID 0000.0001) %MON ad_forcing_adempmr_mean      =   0.0000000000000E+00
(PID.TID 0000.0001) %MON ad_forcing_adempmr_sd        =   0.0000000000000E+00
(PID.TID 0000.0001) %MON ad_forcing_adempmr_del2      =   0.0000000000000E+00
(PID.TID 0000.0001) %MON ad_forcing_adfu_max          =   0.0000000000000E+00
(PID.TID 0000.0001) %MON ad_forcing_adfu_min          =   0.0000000000000E+00
(PID.TID 0000.0001) %MON ad_forcing_adfu_mean         =   0.0000000000000E+00
(PID.TID 0000.0001) %MON ad_forcing_adfu_sd           =   0.0000000000000E+00
(PID.TID 0000.0001) %MON ad_forcing_adfu_del2         =   0.0000000000000E+00
(PID.TID 0000.0001) %MON ad_forcing_adfv_max          =   0.0000000000000E+00
(PID.TID 0000.0001) %MON ad_forcing_adfv_min          =   0.0000000000000E+00
(PID.TID 0000.0001) %MON ad_forcing_adfv_mean         =   0.0000000000000E+00
(PID.TID 0000.0001) %MON ad_forcing_adfv_sd           =   0.0000000000000E+00
(PID.TID 0000.0001) %MON ad_forcing_adfv_del2         =   0.0000000000000E+00
(PID.TID 0000.0001) %MON ad_advcfl_aduvel_max         =   4.1988172597598E+02
(PID.TID 0000.0001) %MON ad_advcfl_advvel_max         =   1.8770484572412E+02
(PID.TID 0000.0001) %MON ad_advcfl_adwvel_max         =   4.2705571548931E+05
(PID.TID 0000.0001) %MON ad_advcfl_adW_hf_max         =   5.1247085559015E+05
(PID.TID 0000.0001) // =======================================================
(PID.TID 0000.0001) // End MONITOR dynamic field statistics
(PID.TID 0000.0001) // =======================================================
 cg2d: Sum(rhs),rhsMax =   1.73472347597681E-18  3.99106546142342E-03
 cg2d: Sum(rhs),rhsMax =  -9.46442924032453E-12  4.24900188029913E+00
(PID.TID 0000.0001) // =======================================================
(PID.TID 0000.0001) // Begin MONITOR dynamic field statistics
(PID.TID 0000.0001) // =======================================================
(PID.TID 0000.0001) %MON ad_time_tsnumber             =                 72007
(PID.TID 0000.0001) %MON ad_time_secondsf             =   6.2214048000000E+09
(PID.TID 0000.0001) %MON ad_dynstat_adeta_max         =   0.0000000000000E+00
(PID.TID 0000.0001) %MON ad_dynstat_adeta_min         =   0.0000000000000E+00
(PID.TID 0000.0001) %MON ad_dynstat_adeta_mean        =   0.0000000000000E+00
(PID.TID 0000.0001) %MON ad_dynstat_adeta_sd          =   0.0000000000000E+00
(PID.TID 0000.0001) %MON ad_dynstat_adeta_del2        =   0.0000000000000E+00
(PID.TID 0000.0001) %MON ad_dynstat_aduvel_max        =   1.0150194962889E+03
(PID.TID 0000.0001) %MON ad_dynstat_aduvel_min        =  -5.5003827815522E+02
(PID.TID 0000.0001) %MON ad_dynstat_aduvel_mean       =   3.8265559198098E-01
(PID.TID 0000.0001) %MON ad_dynstat_aduvel_sd         =   1.0471899371685E+01
(PID.TID 0000.0001) %MON ad_dynstat_aduvel_del2       =   1.1575047453972E-01
(PID.TID 0000.0001) %MON ad_dynstat_advvel_max        =   4.6728204962140E+02
(PID.TID 0000.0001) %MON ad_dynstat_advvel_min        =  -4.1512796329533E+02
(PID.TID 0000.0001) %MON ad_dynstat_advvel_mean       =   7.4351967117640E-01
(PID.TID 0000.0001) %MON ad_dynstat_advvel_sd         =   1.0337103924295E+01
(PID.TID 0000.0001) %MON ad_dynstat_advvel_del2       =   9.4362559070326E-02
(PID.TID 0000.0001) %MON ad_dynstat_adwvel_max        =   3.0828050100968E+02
(PID.TID 0000.0001) %MON ad_dynstat_adwvel_min        =  -1.9318121029497E+02
(PID.TID 0000.0001) %MON ad_dynstat_adwvel_mean       =  -1.1240832391344E-02
(PID.TID 0000.0001) %MON ad_dynstat_adwvel_sd         =   3.6212575536606E+00
(PID.TID 0000.0001) %MON ad_dynstat_adwvel_del2       =   4.3853126024579E-02
(PID.TID 0000.0001) %MON ad_dynstat_adtheta_max       =   5.0708415122266E+01
(PID.TID 0000.0001) %MON ad_dynstat_adtheta_min       =  -8.0954373957592E+01
(PID.TID 0000.0001) %MON ad_dynstat_adtheta_mean      =   6.2287189969504E-01
(PID.TID 0000.0001) %MON ad_dynstat_adtheta_sd        =   2.0104127409713E+00
(PID.TID 0000.0001) %MON ad_dynstat_adtheta_del2      =   1.3494381576112E-02
(PID.TID 0000.0001) %MON ad_dynstat_adsalt_max        =   2.4720104844519E+02
(PID.TID 0000.0001) %MON ad_dynstat_adsalt_min        =  -2.5777285123003E+02
(PID.TID 0000.0001) %MON ad_dynstat_adsalt_mean       =  -7.5529336418169E-02
(PID.TID 0000.0001) %MON ad_dynstat_adsalt_sd         =   4.3137350122252E+00
(PID.TID 0000.0001) %MON ad_dynstat_adsalt_del2       =   5.7905086143106E-02
(PID.TID 0000.0001) %MON ad_forcing_adqnet_max        =   0.0000000000000E+00
(PID.TID 0000.0001) %MON ad_forcing_adqnet_min        =   0.0000000000000E+00
(PID.TID 0000.0001) %MON ad_forcing_adqnet_mean       =   0.0000000000000E+00
(PID.TID 0000.0001) %MON ad_forcing_adqnet_sd         =   0.0000000000000E+00
(PID.TID 0000.0001) %MON ad_forcing_adqnet_del2       =   0.0000000000000E+00
(PID.TID 0000.0001) %MON ad_forcing_adqsw_max         =   1.6548686023973E-02
(PID.TID 0000.0001) %MON ad_forcing_adqsw_min         =  -9.4780126705213E-03
(PID.TID 0000.0001) %MON ad_forcing_adqsw_mean        =   2.4864560636424E-04
(PID.TID 0000.0001) %MON ad_forcing_adqsw_sd          =   7.1346100524805E-04
(PID.TID 0000.0001) %MON ad_forcing_adqsw_del2        =   2.4712010976577E-05
(PID.TID 0000.0001) %MON ad_forcing_adempmr_max       =   0.0000000000000E+00
(PID.TID 0000.0001) %MON ad_forcing_adempmr_min       =   0.0000000000000E+00
(PID.TID 0000.0001) %MON ad_forcing_adempmr_mean      =   0.0000000000000E+00
(PID.TID 0000.0001) %MON ad_forcing_adempmr_sd        =   0.0000000000000E+00
(PID.TID 0000.0001) %MON ad_forcing_adempmr_del2      =   0.0000000000000E+00
(PID.TID 0000.0001) %MON ad_forcing_adfu_max          =   0.0000000000000E+00
(PID.TID 0000.0001) %MON ad_forcing_adfu_min          =   0.0000000000000E+00
(PID.TID 0000.0001) %MON ad_forcing_adfu_mean         =   0.0000000000000E+00
(PID.TID 0000.0001) %MON ad_forcing_adfu_sd           =   0.0000000000000E+00
(PID.TID 0000.0001) %MON ad_forcing_adfu_del2         =   0.0000000000000E+00
(PID.TID 0000.0001) %MON ad_forcing_adfv_max          =   0.0000000000000E+00
(PID.TID 0000.0001) %MON ad_forcing_adfv_min          =   0.0000000000000E+00
(PID.TID 0000.0001) %MON ad_forcing_adfv_mean         =   0.0000000000000E+00
(PID.TID 0000.0001) %MON ad_forcing_adfv_sd           =   0.0000000000000E+00
(PID.TID 0000.0001) %MON ad_forcing_adfv_del2         =   0.0000000000000E+00
(PID.TID 0000.0001) %MON ad_advcfl_aduvel_max         =   4.3601998530136E+02
(PID.TID 0000.0001) %MON ad_advcfl_advvel_max         =   1.8094843078877E+02
(PID.TID 0000.0001) %MON ad_advcfl_adwvel_max         =   4.4392392145393E+05
(PID.TID 0000.0001) %MON ad_advcfl_adW_hf_max         =   5.3271290701817E+05
(PID.TID 0000.0001) // =======================================================
(PID.TID 0000.0001) // End MONITOR dynamic field statistics
(PID.TID 0000.0001) // =======================================================
 cg2d: Sum(rhs),rhsMax =  -7.04731412115578E-19  3.56572419953766E-03
 cg2d: Sum(rhs),rhsMax =  -9.43600753089413E-12  4.25770388694847E+00
 cg2d: Sum(rhs),rhsMax =  -9.52127265918534E-12  4.25319685033070E+00
 cg2d: Sum(rhs),rhsMax =  -9.52127265918534E-12  4.25319685033070E+00
(PID.TID 0000.0001) // =======================================================
(PID.TID 0000.0001) // Begin MONITOR dynamic field statistics
(PID.TID 0000.0001) // =======================================================
(PID.TID 0000.0001) %MON ad_time_tsnumber             =                 72006
(PID.TID 0000.0001) %MON ad_time_secondsf             =   6.2213184000000E+09
(PID.TID 0000.0001) %MON ad_dynstat_adeta_max         =   0.0000000000000E+00
(PID.TID 0000.0001) %MON ad_dynstat_adeta_min         =   0.0000000000000E+00
(PID.TID 0000.0001) %MON ad_dynstat_adeta_mean        =   0.0000000000000E+00
(PID.TID 0000.0001) %MON ad_dynstat_adeta_sd          =   0.0000000000000E+00
(PID.TID 0000.0001) %MON ad_dynstat_adeta_del2        =   0.0000000000000E+00
(PID.TID 0000.0001) %MON ad_dynstat_aduvel_max        =   1.0307443590941E+03
(PID.TID 0000.0001) %MON ad_dynstat_aduvel_min        =  -5.3343819949664E+02
(PID.TID 0000.0001) %MON ad_dynstat_aduvel_mean       =   4.1288530793848E-01
(PID.TID 0000.0001) %MON ad_dynstat_aduvel_sd         =   1.0915069289265E+01
(PID.TID 0000.0001) %MON ad_dynstat_aduvel_del2       =   1.1927040577708E-01
(PID.TID 0000.0001) %MON ad_dynstat_advvel_max        =   4.9111406426190E+02
(PID.TID 0000.0001) %MON ad_dynstat_advvel_min        =  -3.8354032218393E+02
(PID.TID 0000.0001) %MON ad_dynstat_advvel_mean       =   8.1681401864867E-01
(PID.TID 0000.0001) %MON ad_dynstat_advvel_sd         =   1.0797290497787E+01
(PID.TID 0000.0001) %MON ad_dynstat_advvel_del2       =   9.6925008482868E-02
(PID.TID 0000.0001) %MON ad_dynstat_adwvel_max        =   3.1805189962236E+02
(PID.TID 0000.0001) %MON ad_dynstat_adwvel_min        =  -2.0102911414880E+02
(PID.TID 0000.0001) %MON ad_dynstat_adwvel_mean       =  -1.1741353789899E-02
(PID.TID 0000.0001) %MON ad_dynstat_adwvel_sd         =   3.7861460808740E+00
(PID.TID 0000.0001) %MON ad_dynstat_adwvel_del2       =   4.5463259664370E-02
(PID.TID 0000.0001) %MON ad_dynstat_adtheta_max       =   4.8940008482129E+01
(PID.TID 0000.0001) %MON ad_dynstat_adtheta_min       =  -7.9527049423734E+01
(PID.TID 0000.0001) %MON ad_dynstat_adtheta_mean      =   6.2383835151238E-01
(PID.TID 0000.0001) %MON ad_dynstat_adtheta_sd        =   2.0283939837855E+00
(PID.TID 0000.0001) %MON ad_dynstat_adtheta_del2      =   1.3348797426963E-02
(PID.TID 0000.0001) %MON ad_dynstat_adsalt_max        =   2.4183926282007E+02
(PID.TID 0000.0001) %MON ad_dynstat_adsalt_min        =  -2.5232521839041E+02
(PID.TID 0000.0001) %MON ad_dynstat_adsalt_mean       =  -8.2336019861004E-02
(PID.TID 0000.0001) %MON ad_dynstat_adsalt_sd         =   4.6216823464649E+00
(PID.TID 0000.0001) %MON ad_dynstat_adsalt_del2       =   5.7895586409420E-02
(PID.TID 0000.0001) %MON ad_forcing_adqnet_max        =   0.0000000000000E+00
(PID.TID 0000.0001) %MON ad_forcing_adqnet_min        =   0.0000000000000E+00
(PID.TID 0000.0001) %MON ad_forcing_adqnet_mean       =   0.0000000000000E+00
(PID.TID 0000.0001) %MON ad_forcing_adqnet_sd         =   0.0000000000000E+00
(PID.TID 0000.0001) %MON ad_forcing_adqnet_del2       =   0.0000000000000E+00
(PID.TID 0000.0001) %MON ad_forcing_adqsw_max         =   1.7916929352837E-02
(PID.TID 0000.0001) %MON ad_forcing_adqsw_min         =  -9.9944763258529E-03
(PID.TID 0000.0001) %MON ad_forcing_adqsw_mean        =   2.6693401728651E-04
(PID.TID 0000.0001) %MON ad_forcing_adqsw_sd          =   7.6507928788336E-04
(PID.TID 0000.0001) %MON ad_forcing_adqsw_del2        =   2.6592643619294E-05
(PID.TID 0000.0001) %MON ad_forcing_adempmr_max       =   0.0000000000000E+00
(PID.TID 0000.0001) %MON ad_forcing_adempmr_min       =   0.0000000000000E+00
(PID.TID 0000.0001) %MON ad_forcing_adempmr_mean      =   0.0000000000000E+00
(PID.TID 0000.0001) %MON ad_forcing_adempmr_sd        =   0.0000000000000E+00
(PID.TID 0000.0001) %MON ad_forcing_adempmr_del2      =   0.0000000000000E+00
(PID.TID 0000.0001) %MON ad_forcing_adfu_max          =   0.0000000000000E+00
(PID.TID 0000.0001) %MON ad_forcing_adfu_min          =   0.0000000000000E+00
(PID.TID 0000.0001) %MON ad_forcing_adfu_mean         =   0.0000000000000E+00
(PID.TID 0000.0001) %MON ad_forcing_adfu_sd           =   0.0000000000000E+00
(PID.TID 0000.0001) %MON ad_forcing_adfu_del2         =   0.0000000000000E+00
(PID.TID 0000.0001) %MON ad_forcing_adfv_max          =   0.0000000000000E+00
(PID.TID 0000.0001) %MON ad_forcing_adfv_min          =   0.0000000000000E+00
(PID.TID 0000.0001) %MON ad_forcing_adfv_mean         =   0.0000000000000E+00
(PID.TID 0000.0001) %MON ad_forcing_adfv_sd           =   0.0000000000000E+00
(PID.TID 0000.0001) %MON ad_forcing_adfv_del2         =   0.0000000000000E+00
(PID.TID 0000.0001) %MON ad_advcfl_aduvel_max         =   4.4277488456611E+02
(PID.TID 0000.0001) %MON ad_advcfl_advvel_max         =   1.6717982304176E+02
(PID.TID 0000.0001) %MON ad_advcfl_adwvel_max         =   4.5799473545620E+05
(PID.TID 0000.0001) %MON ad_advcfl_adW_hf_max         =   5.4959806858460E+05
(PID.TID 0000.0001) // =======================================================
(PID.TID 0000.0001) // End MONITOR dynamic field statistics
(PID.TID 0000.0001) // =======================================================
 cg2d: Sum(rhs),rhsMax =  -5.42101086242752E-19  2.92781853947256E-03
 cg2d: Sum(rhs),rhsMax =  -9.43600753089413E-12  4.25770388694847E+00
(PID.TID 0000.0001) // =======================================================
(PID.TID 0000.0001) // Begin MONITOR dynamic field statistics
(PID.TID 0000.0001) // =======================================================
(PID.TID 0000.0001) %MON ad_time_tsnumber             =                 72005
(PID.TID 0000.0001) %MON ad_time_secondsf             =   6.2212320000000E+09
(PID.TID 0000.0001) %MON ad_dynstat_adeta_max         =   0.0000000000000E+00
(PID.TID 0000.0001) %MON ad_dynstat_adeta_min         =   0.0000000000000E+00
(PID.TID 0000.0001) %MON ad_dynstat_adeta_mean        =   0.0000000000000E+00
(PID.TID 0000.0001) %MON ad_dynstat_adeta_sd          =   0.0000000000000E+00
(PID.TID 0000.0001) %MON ad_dynstat_adeta_del2        =   0.0000000000000E+00
(PID.TID 0000.0001) %MON ad_dynstat_aduvel_max        =   1.0271630589953E+03
(PID.TID 0000.0001) %MON ad_dynstat_aduvel_min        =  -5.7129218256515E+02
(PID.TID 0000.0001) %MON ad_dynstat_aduvel_mean       =   4.4467347463599E-01
(PID.TID 0000.0001) %MON ad_dynstat_aduvel_sd         =   1.1332433084987E+01
(PID.TID 0000.0001) %MON ad_dynstat_aduvel_del2       =   1.2213958293198E-01
(PID.TID 0000.0001) %MON ad_dynstat_advvel_max        =   5.1251262411752E+02
(PID.TID 0000.0001) %MON ad_dynstat_advvel_min        =  -3.3853480941617E+02
(PID.TID 0000.0001) %MON ad_dynstat_advvel_mean       =   8.8763697524355E-01
(PID.TID 0000.0001) %MON ad_dynstat_advvel_sd         =   1.1224358602988E+01
(PID.TID 0000.0001) %MON ad_dynstat_advvel_del2       =   9.9147736824434E-02
(PID.TID 0000.0001) %MON ad_dynstat_adwvel_max        =   3.2594662946853E+02
(PID.TID 0000.0001) %MON ad_dynstat_adwvel_min        =  -2.0783579339890E+02
(PID.TID 0000.0001) %MON ad_dynstat_adwvel_mean       =  -1.2133258874535E-02
(PID.TID 0000.0001) %MON ad_dynstat_adwvel_sd         =   3.9360275318433E+00
(PID.TID 0000.0001) %MON ad_dynstat_adwvel_del2       =   4.6888902096556E-02
(PID.TID 0000.0001) %MON ad_dynstat_adtheta_max       =   4.7182305435970E+01
(PID.TID 0000.0001) %MON ad_dynstat_adtheta_min       =  -7.8111694762601E+01
(PID.TID 0000.0001) %MON ad_dynstat_adtheta_mean      =   6.2475430568921E-01
(PID.TID 0000.0001) %MON ad_dynstat_adtheta_sd        =   2.0467722974230E+00
(PID.TID 0000.0001) %MON ad_dynstat_adtheta_del2      =   1.3225243719360E-02
(PID.TID 0000.0001) %MON ad_dynstat_adsalt_max        =   2.3658748256966E+02
(PID.TID 0000.0001) %MON ad_dynstat_adsalt_min        =  -2.4669981105349E+02
(PID.TID 0000.0001) %MON ad_dynstat_adsalt_mean       =  -8.8894401973876E-02
(PID.TID 0000.0001) %MON ad_dynstat_adsalt_sd         =   4.9119105004149E+00
(PID.TID 0000.0001) %MON ad_dynstat_adsalt_del2       =   5.7875713375955E-02
(PID.TID 0000.0001) %MON ad_forcing_adqnet_max        =   0.0000000000000E+00
(PID.TID 0000.0001) %MON ad_forcing_adqnet_min        =   0.0000000000000E+00
(PID.TID 0000.0001) %MON ad_forcing_adqnet_mean       =   0.0000000000000E+00
(PID.TID 0000.0001) %MON ad_forcing_adqnet_sd         =   0.0000000000000E+00
(PID.TID 0000.0001) %MON ad_forcing_adqnet_del2       =   0.0000000000000E+00
(PID.TID 0000.0001) %MON ad_forcing_adqsw_max         =   1.9251330099704E-02
(PID.TID 0000.0001) %MON ad_forcing_adqsw_min         =  -1.0419979028316E-02
(PID.TID 0000.0001) %MON ad_forcing_adqsw_mean        =   2.8504945336020E-04
(PID.TID 0000.0001) %MON ad_forcing_adqsw_sd          =   8.1564771740735E-04
(PID.TID 0000.0001) %MON ad_forcing_adqsw_del2        =   2.8411681226629E-05
(PID.TID 0000.0001) %MON ad_forcing_adempmr_max       =   0.0000000000000E+00
(PID.TID 0000.0001) %MON ad_forcing_adempmr_min       =   0.0000000000000E+00
(PID.TID 0000.0001) %MON ad_forcing_adempmr_mean      =   0.0000000000000E+00
(PID.TID 0000.0001) %MON ad_forcing_adempmr_sd        =   0.0000000000000E+00
(PID.TID 0000.0001) %MON ad_forcing_adempmr_del2      =   0.0000000000000E+00
(PID.TID 0000.0001) %MON ad_forcing_adfu_max          =   0.0000000000000E+00
(PID.TID 0000.0001) %MON ad_forcing_adfu_min          =   0.0000000000000E+00
(PID.TID 0000.0001) %MON ad_forcing_adfu_mean         =   0.0000000000000E+00
(PID.TID 0000.0001) %MON ad_forcing_adfu_sd           =   0.0000000000000E+00
(PID.TID 0000.0001) %MON ad_forcing_adfu_del2         =   0.0000000000000E+00
(PID.TID 0000.0001) %MON ad_forcing_adfv_max          =   0.0000000000000E+00
(PID.TID 0000.0001) %MON ad_forcing_adfv_min          =   0.0000000000000E+00
(PID.TID 0000.0001) %MON ad_forcing_adfv_mean         =   0.0000000000000E+00
(PID.TID 0000.0001) %MON ad_forcing_adfv_sd           =   0.0000000000000E+00
(PID.TID 0000.0001) %MON ad_forcing_adfv_del2         =   0.0000000000000E+00
(PID.TID 0000.0001) %MON ad_advcfl_aduvel_max         =   4.4123647232661E+02
(PID.TID 0000.0001) %MON ad_advcfl_advvel_max         =   1.6410633711874E+02
(PID.TID 0000.0001) %MON ad_advcfl_adwvel_max         =   4.6936314643468E+05
(PID.TID 0000.0001) %MON ad_advcfl_adW_hf_max         =   5.6324032129817E+05
(PID.TID 0000.0001) // =======================================================
(PID.TID 0000.0001) // End MONITOR dynamic field statistics
(PID.TID 0000.0001) // =======================================================
 cg2d: Sum(rhs),rhsMax =  -1.02999206386123E-18  2.12779991543532E-03
 cg2d: Sum(rhs),rhsMax =  -9.91917659121100E-12  4.26762372416937E+00
 cg2d: Sum(rhs),rhsMax =  -9.63495949690696E-12  4.26250700388077E+00
 cg2d: Sum(rhs),rhsMax =  -9.63495949690696E-12  4.26250700388077E+00
(PID.TID 0000.0001) // =======================================================
(PID.TID 0000.0001) // Begin MONITOR dynamic field statistics
(PID.TID 0000.0001) // =======================================================
(PID.TID 0000.0001) %MON ad_time_tsnumber             =                 72004
(PID.TID 0000.0001) %MON ad_time_secondsf             =   6.2211456000000E+09
(PID.TID 0000.0001) %MON ad_dynstat_adeta_max         =   0.0000000000000E+00
(PID.TID 0000.0001) %MON ad_dynstat_adeta_min         =   0.0000000000000E+00
(PID.TID 0000.0001) %MON ad_dynstat_adeta_mean        =   0.0000000000000E+00
(PID.TID 0000.0001) %MON ad_dynstat_adeta_sd          =   0.0000000000000E+00
(PID.TID 0000.0001) %MON ad_dynstat_adeta_del2        =   0.0000000000000E+00
(PID.TID 0000.0001) %MON ad_dynstat_aduvel_max        =   1.0070760404931E+03
(PID.TID 0000.0001) %MON ad_dynstat_aduvel_min        =  -6.0628133006198E+02
(PID.TID 0000.0001) %MON ad_dynstat_aduvel_mean       =   4.7808462221033E-01
(PID.TID 0000.0001) %MON ad_dynstat_aduvel_sd         =   1.1732694091836E+01
(PID.TID 0000.0001) %MON ad_dynstat_aduvel_del2       =   1.2456166632833E-01
(PID.TID 0000.0001) %MON ad_dynstat_advvel_max        =   5.3141226786556E+02
(PID.TID 0000.0001) %MON ad_dynstat_advvel_min        =  -2.8925890032255E+02
(PID.TID 0000.0001) %MON ad_dynstat_advvel_mean       =   9.5496266784441E-01
(PID.TID 0000.0001) %MON ad_dynstat_advvel_sd         =   1.1625848831672E+01
(PID.TID 0000.0001) %MON ad_dynstat_advvel_del2       =   1.0136777009907E-01
(PID.TID 0000.0001) %MON ad_dynstat_adwvel_max        =   3.3204735820106E+02
(PID.TID 0000.0001) %MON ad_dynstat_adwvel_min        =  -2.1360569253488E+02
(PID.TID 0000.0001) %MON ad_dynstat_adwvel_mean       =  -1.2418142786888E-02
(PID.TID 0000.0001) %MON ad_dynstat_adwvel_sd         =   4.0733241039961E+00
(PID.TID 0000.0001) %MON ad_dynstat_adwvel_del2       =   4.8185062292096E-02
(PID.TID 0000.0001) %MON ad_dynstat_adtheta_max       =   4.5442259960479E+01
(PID.TID 0000.0001) %MON ad_dynstat_adtheta_min       =  -7.6732987666698E+01
(PID.TID 0000.0001) %MON ad_dynstat_adtheta_mean      =   6.2561890537843E-01
(PID.TID 0000.0001) %MON ad_dynstat_adtheta_sd        =   2.0651001633621E+00
(PID.TID 0000.0001) %MON ad_dynstat_adtheta_del2      =   1.3118776002213E-02
(PID.TID 0000.0001) %MON ad_dynstat_adsalt_max        =   2.3152483782009E+02
(PID.TID 0000.0001) %MON ad_dynstat_adsalt_min        =  -2.4093165476032E+02
(PID.TID 0000.0001) %MON ad_dynstat_adsalt_mean       =  -9.5153691168102E-02
(PID.TID 0000.0001) %MON ad_dynstat_adsalt_sd         =   5.1814166863426E+00
(PID.TID 0000.0001) %MON ad_dynstat_adsalt_del2       =   5.7787592782729E-02
(PID.TID 0000.0001) %MON ad_forcing_adqnet_max        =   0.0000000000000E+00
(PID.TID 0000.0001) %MON ad_forcing_adqnet_min        =   0.0000000000000E+00
(PID.TID 0000.0001) %MON ad_forcing_adqnet_mean       =   0.0000000000000E+00
(PID.TID 0000.0001) %MON ad_forcing_adqnet_sd         =   0.0000000000000E+00
(PID.TID 0000.0001) %MON ad_forcing_adqnet_del2       =   0.0000000000000E+00
(PID.TID 0000.0001) %MON ad_forcing_adqsw_max         =   2.0551853677911E-02
(PID.TID 0000.0001) %MON ad_forcing_adqsw_min         =  -1.0767915685807E-02
(PID.TID 0000.0001) %MON ad_forcing_adqsw_mean        =   3.0298997768359E-04
(PID.TID 0000.0001) %MON ad_forcing_adqsw_sd          =   8.6521213120860E-04
(PID.TID 0000.0001) %MON ad_forcing_adqsw_del2        =   3.0172385505274E-05
(PID.TID 0000.0001) %MON ad_forcing_adempmr_max       =   0.0000000000000E+00
(PID.TID 0000.0001) %MON ad_forcing_adempmr_min       =   0.0000000000000E+00
(PID.TID 0000.0001) %MON ad_forcing_adempmr_mean      =   0.0000000000000E+00
(PID.TID 0000.0001) %MON ad_forcing_adempmr_sd        =   0.0000000000000E+00
(PID.TID 0000.0001) %MON ad_forcing_adempmr_del2      =   0.0000000000000E+00
(PID.TID 0000.0001) %MON ad_forcing_adfu_max          =   0.0000000000000E+00
(PID.TID 0000.0001) %MON ad_forcing_adfu_min          =   0.0000000000000E+00
(PID.TID 0000.0001) %MON ad_forcing_adfu_mean         =   0.0000000000000E+00
(PID.TID 0000.0001) %MON ad_forcing_adfu_sd           =   0.0000000000000E+00
(PID.TID 0000.0001) %MON ad_forcing_adfu_del2         =   0.0000000000000E+00
(PID.TID 0000.0001) %MON ad_forcing_adfv_max          =   0.0000000000000E+00
(PID.TID 0000.0001) %MON ad_forcing_adfv_min          =   0.0000000000000E+00
(PID.TID 0000.0001) %MON ad_forcing_adfv_mean         =   0.0000000000000E+00
(PID.TID 0000.0001) %MON ad_forcing_adfv_sd           =   0.0000000000000E+00
(PID.TID 0000.0001) %MON ad_forcing_adfv_del2         =   0.0000000000000E+00
(PID.TID 0000.0001) %MON ad_advcfl_aduvel_max         =   4.3260773017523E+02
(PID.TID 0000.0001) %MON ad_advcfl_advvel_max         =   1.7015799548263E+02
(PID.TID 0000.0001) %MON ad_advcfl_adwvel_max         =   4.7814819580953E+05
(PID.TID 0000.0001) %MON ad_advcfl_adW_hf_max         =   5.7378250913105E+05
(PID.TID 0000.0001) // =======================================================
(PID.TID 0000.0001) // End MONITOR dynamic field statistics
(PID.TID 0000.0001) // =======================================================
 cg2d: Sum(rhs),rhsMax =   5.96311194867027E-19  1.21446264114229E-03
 cg2d: Sum(rhs),rhsMax =  -9.91917659121100E-12  4.26762372416937E+00
(PID.TID 0000.0001) // =======================================================
(PID.TID 0000.0001) // Begin MONITOR dynamic field statistics
(PID.TID 0000.0001) // =======================================================
(PID.TID 0000.0001) %MON ad_time_tsnumber             =                 72003
(PID.TID 0000.0001) %MON ad_time_secondsf             =   6.2210592000000E+09
(PID.TID 0000.0001) %MON ad_dynstat_adeta_max         =   0.0000000000000E+00
(PID.TID 0000.0001) %MON ad_dynstat_adeta_min         =   0.0000000000000E+00
(PID.TID 0000.0001) %MON ad_dynstat_adeta_mean        =   0.0000000000000E+00
(PID.TID 0000.0001) %MON ad_dynstat_adeta_sd          =   0.0000000000000E+00
(PID.TID 0000.0001) %MON ad_dynstat_adeta_del2        =   0.0000000000000E+00
(PID.TID 0000.0001) %MON ad_dynstat_aduvel_max        =   9.7337480147288E+02
(PID.TID 0000.0001) %MON ad_dynstat_aduvel_min        =  -6.3969535708702E+02
(PID.TID 0000.0001) %MON ad_dynstat_aduvel_mean       =   5.1283082295824E-01
(PID.TID 0000.0001) %MON ad_dynstat_aduvel_sd         =   1.2122808550346E+01
(PID.TID 0000.0001) %MON ad_dynstat_aduvel_del2       =   1.2676869134268E-01
(PID.TID 0000.0001) %MON ad_dynstat_advvel_max        =   5.4802897273690E+02
(PID.TID 0000.0001) %MON ad_dynstat_advvel_min        =  -3.2184644245258E+02
(PID.TID 0000.0001) %MON ad_dynstat_advvel_mean       =   1.0178333156750E+00
(PID.TID 0000.0001) %MON ad_dynstat_advvel_sd         =   1.2006198987680E+01
(PID.TID 0000.0001) %MON ad_dynstat_advvel_del2       =   1.0374910481457E-01
(PID.TID 0000.0001) %MON ad_dynstat_adwvel_max        =   3.3644517973569E+02
(PID.TID 0000.0001) %MON ad_dynstat_adwvel_min        =  -2.2073278224633E+02
(PID.TID 0000.0001) %MON ad_dynstat_adwvel_mean       =  -1.2598825789991E-02
(PID.TID 0000.0001) %MON ad_dynstat_adwvel_sd         =   4.1982547624568E+00
(PID.TID 0000.0001) %MON ad_dynstat_adwvel_del2       =   4.9322925408732E-02
(PID.TID 0000.0001) %MON ad_dynstat_adtheta_max       =   4.3718152976366E+01
(PID.TID 0000.0001) %MON ad_dynstat_adtheta_min       =  -7.5389063220788E+01
(PID.TID 0000.0001) %MON ad_dynstat_adtheta_mean      =   6.2641839929621E-01
(PID.TID 0000.0001) %MON ad_dynstat_adtheta_sd        =   2.0834291302952E+00
(PID.TID 0000.0001) %MON ad_dynstat_adtheta_del2      =   1.3049333038082E-02
(PID.TID 0000.0001) %MON ad_dynstat_adsalt_max        =   2.2664493903212E+02
(PID.TID 0000.0001) %MON ad_dynstat_adsalt_min        =  -2.3502284896999E+02
(PID.TID 0000.0001) %MON ad_dynstat_adsalt_mean       =  -1.0105449610980E-01
(PID.TID 0000.0001) %MON ad_dynstat_adsalt_sd         =   5.4308622845842E+00
(PID.TID 0000.0001) %MON ad_dynstat_adsalt_del2       =   5.7676086234562E-02
(PID.TID 0000.0001) %MON ad_forcing_adqnet_max        =   0.0000000000000E+00
(PID.TID 0000.0001) %MON ad_forcing_adqnet_min        =   0.0000000000000E+00
(PID.TID 0000.0001) %MON ad_forcing_adqnet_mean       =   0.0000000000000E+00
(PID.TID 0000.0001) %MON ad_forcing_adqnet_sd         =   0.0000000000000E+00
(PID.TID 0000.0001) %MON ad_forcing_adqnet_del2       =   0.0000000000000E+00
(PID.TID 0000.0001) %MON ad_forcing_adqsw_max         =   2.1818845411311E-02
(PID.TID 0000.0001) %MON ad_forcing_adqsw_min         =  -1.1051257812249E-02
(PID.TID 0000.0001) %MON ad_forcing_adqsw_mean        =   3.2075872746222E-04
(PID.TID 0000.0001) %MON ad_forcing_adqsw_sd          =   9.1381423829658E-04
(PID.TID 0000.0001) %MON ad_forcing_adqsw_del2        =   3.1878663617065E-05
(PID.TID 0000.0001) %MON ad_forcing_adempmr_max       =   0.0000000000000E+00
(PID.TID 0000.0001) %MON ad_forcing_adempmr_min       =   0.0000000000000E+00
(PID.TID 0000.0001) %MON ad_forcing_adempmr_mean      =   0.0000000000000E+00
(PID.TID 0000.0001) %MON ad_forcing_adempmr_sd        =   0.0000000000000E+00
(PID.TID 0000.0001) %MON ad_forcing_adempmr_del2      =   0.0000000000000E+00
(PID.TID 0000.0001) %MON ad_forcing_adfu_max          =   0.0000000000000E+00
(PID.TID 0000.0001) %MON ad_forcing_adfu_min          =   0.0000000000000E+00
(PID.TID 0000.0001) %MON ad_forcing_adfu_mean         =   0.0000000000000E+00
(PID.TID 0000.0001) %MON ad_forcing_adfu_sd           =   0.0000000000000E+00
(PID.TID 0000.0001) %MON ad_forcing_adfu_del2         =   0.0000000000000E+00
(PID.TID 0000.0001) %MON ad_forcing_adfv_max          =   0.0000000000000E+00
(PID.TID 0000.0001) %MON ad_forcing_adfv_min          =   0.0000000000000E+00
(PID.TID 0000.0001) %MON ad_forcing_adfv_mean         =   0.0000000000000E+00
(PID.TID 0000.0001) %MON ad_forcing_adfv_sd           =   0.0000000000000E+00
(PID.TID 0000.0001) %MON ad_forcing_adfv_del2         =   0.0000000000000E+00
(PID.TID 0000.0001) %MON ad_advcfl_aduvel_max         =   4.1813075333296E+02
(PID.TID 0000.0001) %MON ad_advcfl_advvel_max         =   1.7547865773190E+02
(PID.TID 0000.0001) %MON ad_advcfl_adwvel_max         =   4.8448105881940E+05
(PID.TID 0000.0001) %MON ad_advcfl_adW_hf_max         =   5.8138204331729E+05
(PID.TID 0000.0001) // =======================================================
(PID.TID 0000.0001) // End MONITOR dynamic field statistics
(PID.TID 0000.0001) // =======================================================
 cg2d: Sum(rhs),rhsMax =   9.75781955236954E-19  1.00963460639528E-03
S/R EXTERNAL_FIELDS_LOAD: Reading new data:   12    1     72000  6.220800000000E+09
(PID.TID 0000.0001)  MDS_READ_FIELD: opening global file: trenberth_taux.bin
(PID.TID 0000.0001)  MDS_READ_FIELD: opening global file: trenberth_taux.bin
(PID.TID 0000.0001)  MDS_READ_FIELD: opening global file: trenberth_tauy.bin
(PID.TID 0000.0001)  MDS_READ_FIELD: opening global file: trenberth_tauy.bin
(PID.TID 0000.0001)  MDS_READ_FIELD: opening global file: shiQnet_cs32.bin
(PID.TID 0000.0001)  MDS_READ_FIELD: opening global file: shiQnet_cs32.bin
(PID.TID 0000.0001)  MDS_READ_FIELD: opening global file: shiEmPR_cs32.bin
(PID.TID 0000.0001)  MDS_READ_FIELD: opening global file: shiEmPR_cs32.bin
(PID.TID 0000.0001)  MDS_READ_FIELD: opening global file: lev_surfT_cs_12m.bin
(PID.TID 0000.0001)  MDS_READ_FIELD: opening global file: lev_surfT_cs_12m.bin
(PID.TID 0000.0001)  MDS_READ_FIELD: opening global file: lev_surfS_cs_12m.bin
(PID.TID 0000.0001)  MDS_READ_FIELD: opening global file: lev_surfS_cs_12m.bin
(PID.TID 0000.0001)  MDS_READ_FIELD: opening file: xx_tauu.0000000000.001.001.data
(PID.TID 0000.0001)  MDS_READ_FIELD: opening file: xx_tauu.0000000000.002.001.data
(PID.TID 0000.0001)  MDS_READ_FIELD: opening file: xx_tauu.0000000000.003.001.data
(PID.TID 0000.0001)  MDS_READ_FIELD: opening file: xx_tauu.0000000000.004.001.data
(PID.TID 0000.0001)  MDS_READ_FIELD: opening file: xx_tauu.0000000000.005.001.data
(PID.TID 0000.0001)  MDS_READ_FIELD: opening file: xx_tauu.0000000000.006.001.data
(PID.TID 0000.0001)  MDS_READ_FIELD: opening file: xx_tauv.0000000000.001.001.data
(PID.TID 0000.0001)  MDS_READ_FIELD: opening file: xx_tauv.0000000000.002.001.data
(PID.TID 0000.0001)  MDS_READ_FIELD: opening file: xx_tauv.0000000000.003.001.data
(PID.TID 0000.0001)  MDS_READ_FIELD: opening file: xx_tauv.0000000000.004.001.data
(PID.TID 0000.0001)  MDS_READ_FIELD: opening file: xx_tauv.0000000000.005.001.data
(PID.TID 0000.0001)  MDS_READ_FIELD: opening file: xx_tauv.0000000000.006.001.data
(PID.TID 0000.0001)  MDS_READ_FIELD: opening file: xx_sfl.0000000000.001.001.data
(PID.TID 0000.0001)  MDS_READ_FIELD: opening file: xx_sfl.0000000000.002.001.data
(PID.TID 0000.0001)  MDS_READ_FIELD: opening file: xx_sfl.0000000000.003.001.data
(PID.TID 0000.0001)  MDS_READ_FIELD: opening file: xx_sfl.0000000000.004.001.data
(PID.TID 0000.0001)  MDS_READ_FIELD: opening file: xx_sfl.0000000000.005.001.data
(PID.TID 0000.0001)  MDS_READ_FIELD: opening file: xx_sfl.0000000000.006.001.data
(PID.TID 0000.0001)  MDS_READ_FIELD: opening file: xx_hfl.0000000000.001.001.data
(PID.TID 0000.0001)  MDS_READ_FIELD: opening file: xx_hfl.0000000000.002.001.data
(PID.TID 0000.0001)  MDS_READ_FIELD: opening file: xx_hfl.0000000000.003.001.data
(PID.TID 0000.0001)  MDS_READ_FIELD: opening file: xx_hfl.0000000000.004.001.data
(PID.TID 0000.0001)  MDS_READ_FIELD: opening file: xx_hfl.0000000000.005.001.data
(PID.TID 0000.0001)  MDS_READ_FIELD: opening file: xx_hfl.0000000000.006.001.data
(PID.TID 0000.0001) SOLVE_FOR_PRESSURE: putPmEinXvector =    F
 cg2d: Sum(rhs),rhsMax =  -9.74864633462857E-12  4.27829651258201E+00
 cg2d: Sum(rhs),rhsMax =  -9.15179043659009E-12  4.27316012257317E+00
 cg2d: Sum(rhs),rhsMax =  -9.15179043659009E-12  4.27316012257317E+00
(PID.TID 0000.0001) // =======================================================
(PID.TID 0000.0001) // Begin MONITOR dynamic field statistics
(PID.TID 0000.0001) // =======================================================
(PID.TID 0000.0001) %MON ad_time_tsnumber             =                 72002
(PID.TID 0000.0001) %MON ad_time_secondsf             =   6.2209728000000E+09
(PID.TID 0000.0001) %MON ad_dynstat_adeta_max         =   0.0000000000000E+00
(PID.TID 0000.0001) %MON ad_dynstat_adeta_min         =   0.0000000000000E+00
(PID.TID 0000.0001) %MON ad_dynstat_adeta_mean        =   0.0000000000000E+00
(PID.TID 0000.0001) %MON ad_dynstat_adeta_sd          =   0.0000000000000E+00
(PID.TID 0000.0001) %MON ad_dynstat_adeta_del2        =   0.0000000000000E+00
(PID.TID 0000.0001) %MON ad_dynstat_aduvel_max        =   9.2885785502078E+02
(PID.TID 0000.0001) %MON ad_dynstat_aduvel_min        =  -6.6942263399637E+02
(PID.TID 0000.0001) %MON ad_dynstat_aduvel_mean       =   5.4829093211868E-01
(PID.TID 0000.0001) %MON ad_dynstat_aduvel_sd         =   1.2508178416615E+01
(PID.TID 0000.0001) %MON ad_dynstat_aduvel_del2       =   1.2891004107804E-01
(PID.TID 0000.0001) %MON ad_dynstat_advvel_max        =   5.6243541574331E+02
(PID.TID 0000.0001) %MON ad_dynstat_advvel_min        =  -3.5452486797493E+02
(PID.TID 0000.0001) %MON ad_dynstat_advvel_mean       =   1.0757286281359E+00
(PID.TID 0000.0001) %MON ad_dynstat_advvel_sd         =   1.2367657784890E+01
(PID.TID 0000.0001) %MON ad_dynstat_advvel_del2       =   1.0637340411670E-01
(PID.TID 0000.0001) %MON ad_dynstat_adwvel_max        =   3.3924694185701E+02
(PID.TID 0000.0001) %MON ad_dynstat_adwvel_min        =  -2.3324128768178E+02
(PID.TID 0000.0001) %MON ad_dynstat_adwvel_mean       =  -1.2617173736551E-02
(PID.TID 0000.0001) %MON ad_dynstat_adwvel_sd         =   4.3122831446896E+00
(PID.TID 0000.0001) %MON ad_dynstat_adwvel_del2       =   5.0388527589831E-02
(PID.TID 0000.0001) %MON ad_dynstat_adtheta_max       =   4.2019062327912E+01
(PID.TID 0000.0001) %MON ad_dynstat_adtheta_min       =  -7.4096676238492E+01
(PID.TID 0000.0001) %MON ad_dynstat_adtheta_mean      =   6.2713769295887E-01
(PID.TID 0000.0001) %MON ad_dynstat_adtheta_sd        =   2.1003922599111E+00
(PID.TID 0000.0001) %MON ad_dynstat_adtheta_del2      =   1.2978199789757E-02
(PID.TID 0000.0001) %MON ad_dynstat_adsalt_max        =   2.2200236336046E+02
(PID.TID 0000.0001) %MON ad_dynstat_adsalt_min        =  -2.2922573631729E+02
(PID.TID 0000.0001) %MON ad_dynstat_adsalt_mean       =  -1.0648074996138E-01
(PID.TID 0000.0001) %MON ad_dynstat_adsalt_sd         =   5.6545020075972E+00
(PID.TID 0000.0001) %MON ad_dynstat_adsalt_del2       =   5.7448545567821E-02
(PID.TID 0000.0001) %MON ad_forcing_adqnet_max        =   0.0000000000000E+00
(PID.TID 0000.0001) %MON ad_forcing_adqnet_min        =   0.0000000000000E+00
(PID.TID 0000.0001) %MON ad_forcing_adqnet_mean       =   0.0000000000000E+00
(PID.TID 0000.0001) %MON ad_forcing_adqnet_sd         =   0.0000000000000E+00
(PID.TID 0000.0001) %MON ad_forcing_adqnet_del2       =   0.0000000000000E+00
(PID.TID 0000.0001) %MON ad_forcing_adqsw_max         =   2.3052661903881E-02
(PID.TID 0000.0001) %MON ad_forcing_adqsw_min         =  -1.1282889567881E-02
(PID.TID 0000.0001) %MON ad_forcing_adqsw_mean        =   3.3837118172204E-04
(PID.TID 0000.0001) %MON ad_forcing_adqsw_sd          =   9.6149949447451E-04
(PID.TID 0000.0001) %MON ad_forcing_adqsw_del2        =   3.3534132630471E-05
(PID.TID 0000.0001) %MON ad_forcing_adempmr_max       =   0.0000000000000E+00
(PID.TID 0000.0001) %MON ad_forcing_adempmr_min       =   0.0000000000000E+00
(PID.TID 0000.0001) %MON ad_forcing_adempmr_mean      =   0.0000000000000E+00
(PID.TID 0000.0001) %MON ad_forcing_adempmr_sd        =   0.0000000000000E+00
(PID.TID 0000.0001) %MON ad_forcing_adempmr_del2      =   0.0000000000000E+00
(PID.TID 0000.0001) %MON ad_forcing_adfu_max          =   0.0000000000000E+00
(PID.TID 0000.0001) %MON ad_forcing_adfu_min          =   0.0000000000000E+00
(PID.TID 0000.0001) %MON ad_forcing_adfu_mean         =   0.0000000000000E+00
(PID.TID 0000.0001) %MON ad_forcing_adfu_sd           =   0.0000000000000E+00
(PID.TID 0000.0001) %MON ad_forcing_adfu_del2         =   0.0000000000000E+00
(PID.TID 0000.0001) %MON ad_forcing_adfv_max          =   0.0000000000000E+00
(PID.TID 0000.0001) %MON ad_forcing_adfv_min          =   0.0000000000000E+00
(PID.TID 0000.0001) %MON ad_forcing_adfv_mean         =   0.0000000000000E+00
(PID.TID 0000.0001) %MON ad_forcing_adfv_sd           =   0.0000000000000E+00
(PID.TID 0000.0001) %MON ad_forcing_adfv_del2         =   0.0000000000000E+00
(PID.TID 0000.0001) %MON ad_advcfl_aduvel_max         =   3.9900769371817E+02
(PID.TID 0000.0001) %MON ad_advcfl_advvel_max         =   1.8009159501665E+02
(PID.TID 0000.0001) %MON ad_advcfl_adwvel_max         =   4.8851559627410E+05
(PID.TID 0000.0001) %MON ad_advcfl_adW_hf_max         =   5.8622356673785E+05
(PID.TID 0000.0001) // =======================================================
(PID.TID 0000.0001) // End MONITOR dynamic field statistics
(PID.TID 0000.0001) // =======================================================
 cg2d: Sum(rhs),rhsMax =  -2.83247817561838E-18  9.91124686128096E-04
S/R EXTERNAL_FIELDS_LOAD: Reading new data:   12    1     72000  6.220800000000E+09
(PID.TID 0000.0001)  MDS_READ_FIELD: opening global file: trenberth_taux.bin
(PID.TID 0000.0001)  MDS_READ_FIELD: opening global file: trenberth_taux.bin
(PID.TID 0000.0001)  MDS_READ_FIELD: opening global file: trenberth_tauy.bin
(PID.TID 0000.0001)  MDS_READ_FIELD: opening global file: trenberth_tauy.bin
(PID.TID 0000.0001)  MDS_READ_FIELD: opening global file: shiQnet_cs32.bin
(PID.TID 0000.0001)  MDS_READ_FIELD: opening global file: shiQnet_cs32.bin
(PID.TID 0000.0001)  MDS_READ_FIELD: opening global file: shiEmPR_cs32.bin
(PID.TID 0000.0001)  MDS_READ_FIELD: opening global file: shiEmPR_cs32.bin
(PID.TID 0000.0001)  MDS_READ_FIELD: opening global file: lev_surfT_cs_12m.bin
(PID.TID 0000.0001)  MDS_READ_FIELD: opening global file: lev_surfT_cs_12m.bin
(PID.TID 0000.0001)  MDS_READ_FIELD: opening global file: lev_surfS_cs_12m.bin
(PID.TID 0000.0001)  MDS_READ_FIELD: opening global file: lev_surfS_cs_12m.bin
(PID.TID 0000.0001)  MDS_READ_FIELD: opening file: xx_tauu.0000000000.001.001.data
(PID.TID 0000.0001)  MDS_READ_FIELD: opening file: xx_tauu.0000000000.002.001.data
(PID.TID 0000.0001)  MDS_READ_FIELD: opening file: xx_tauu.0000000000.003.001.data
(PID.TID 0000.0001)  MDS_READ_FIELD: opening file: xx_tauu.0000000000.004.001.data
(PID.TID 0000.0001)  MDS_READ_FIELD: opening file: xx_tauu.0000000000.005.001.data
(PID.TID 0000.0001)  MDS_READ_FIELD: opening file: xx_tauu.0000000000.006.001.data
(PID.TID 0000.0001)  MDS_READ_FIELD: opening file: xx_tauv.0000000000.001.001.data
(PID.TID 0000.0001)  MDS_READ_FIELD: opening file: xx_tauv.0000000000.002.001.data
(PID.TID 0000.0001)  MDS_READ_FIELD: opening file: xx_tauv.0000000000.003.001.data
(PID.TID 0000.0001)  MDS_READ_FIELD: opening file: xx_tauv.0000000000.004.001.data
(PID.TID 0000.0001)  MDS_READ_FIELD: opening file: xx_tauv.0000000000.005.001.data
(PID.TID 0000.0001)  MDS_READ_FIELD: opening file: xx_tauv.0000000000.006.001.data
(PID.TID 0000.0001)  MDS_READ_FIELD: opening file: xx_sfl.0000000000.001.001.data
(PID.TID 0000.0001)  MDS_READ_FIELD: opening file: xx_sfl.0000000000.002.001.data
(PID.TID 0000.0001)  MDS_READ_FIELD: opening file: xx_sfl.0000000000.003.001.data
(PID.TID 0000.0001)  MDS_READ_FIELD: opening file: xx_sfl.0000000000.004.001.data
(PID.TID 0000.0001)  MDS_READ_FIELD: opening file: xx_sfl.0000000000.005.001.data
(PID.TID 0000.0001)  MDS_READ_FIELD: opening file: xx_sfl.0000000000.006.001.data
(PID.TID 0000.0001)  MDS_READ_FIELD: opening file: xx_hfl.0000000000.001.001.data
(PID.TID 0000.0001)  MDS_READ_FIELD: opening file: xx_hfl.0000000000.002.001.data
(PID.TID 0000.0001)  MDS_READ_FIELD: opening file: xx_hfl.0000000000.003.001.data
(PID.TID 0000.0001)  MDS_READ_FIELD: opening file: xx_hfl.0000000000.004.001.data
(PID.TID 0000.0001)  MDS_READ_FIELD: opening file: xx_hfl.0000000000.005.001.data
(PID.TID 0000.0001)  MDS_READ_FIELD: opening file: xx_hfl.0000000000.006.001.data
(PID.TID 0000.0001) SOLVE_FOR_PRESSURE: putPmEinXvector =    F
 cg2d: Sum(rhs),rhsMax =  -9.74864633462857E-12  4.27829651258201E+00
(PID.TID 0000.0001) // =======================================================
(PID.TID 0000.0001) // Begin MONITOR dynamic field statistics
(PID.TID 0000.0001) // =======================================================
(PID.TID 0000.0001) %MON ad_time_tsnumber             =                 72001
(PID.TID 0000.0001) %MON ad_time_secondsf             =   6.2208864000000E+09
(PID.TID 0000.0001) %MON ad_dynstat_adeta_max         =   0.0000000000000E+00
(PID.TID 0000.0001) %MON ad_dynstat_adeta_min         =   0.0000000000000E+00
(PID.TID 0000.0001) %MON ad_dynstat_adeta_mean        =   0.0000000000000E+00
(PID.TID 0000.0001) %MON ad_dynstat_adeta_sd          =   0.0000000000000E+00
(PID.TID 0000.0001) %MON ad_dynstat_adeta_del2        =   0.0000000000000E+00
(PID.TID 0000.0001) %MON ad_dynstat_aduvel_max        =   8.7602544371696E+02
(PID.TID 0000.0001) %MON ad_dynstat_aduvel_min        =  -6.9489869804575E+02
(PID.TID 0000.0001) %MON ad_dynstat_aduvel_mean       =   5.8341385351679E-01
(PID.TID 0000.0001) %MON ad_dynstat_aduvel_sd         =   1.2890098792912E+01
(PID.TID 0000.0001) %MON ad_dynstat_aduvel_del2       =   1.3102583519240E-01
(PID.TID 0000.0001) %MON ad_dynstat_advvel_max        =   5.7477538092371E+02
(PID.TID 0000.0001) %MON ad_dynstat_advvel_min        =  -3.8697772383183E+02
(PID.TID 0000.0001) %MON ad_dynstat_advvel_mean       =   1.1280478666493E+00
(PID.TID 0000.0001) %MON ad_dynstat_advvel_sd         =   1.2712897845010E+01
(PID.TID 0000.0001) %MON ad_dynstat_advvel_del2       =   1.0923943344246E-01
(PID.TID 0000.0001) %MON ad_dynstat_adwvel_max        =   3.4062307183551E+02
(PID.TID 0000.0001) %MON ad_dynstat_adwvel_min        =  -2.4424205352387E+02
(PID.TID 0000.0001) %MON ad_dynstat_adwvel_mean       =  -1.2526848155319E-02
(PID.TID 0000.0001) %MON ad_dynstat_adwvel_sd         =   4.4160413395065E+00
(PID.TID 0000.0001) %MON ad_dynstat_adwvel_del2       =   5.1382357963239E-02
(PID.TID 0000.0001) %MON ad_dynstat_adtheta_max       =   4.0342446449253E+01
(PID.TID 0000.0001) %MON ad_dynstat_adtheta_min       =  -7.2849547128703E+01
(PID.TID 0000.0001) %MON ad_dynstat_adtheta_mean      =   6.2777911737105E-01
(PID.TID 0000.0001) %MON ad_dynstat_adtheta_sd        =   2.1164106757238E+00
(PID.TID 0000.0001) %MON ad_dynstat_adtheta_del2      =   1.2933397038929E-02
(PID.TID 0000.0001) %MON ad_dynstat_adsalt_max        =   2.1757715718519E+02
(PID.TID 0000.0001) %MON ad_dynstat_adsalt_min        =  -2.5207403862619E+02
(PID.TID 0000.0001) %MON ad_dynstat_adsalt_mean       =  -1.1143431926620E-01
(PID.TID 0000.0001) %MON ad_dynstat_adsalt_sd         =   5.8563849586208E+00
(PID.TID 0000.0001) %MON ad_dynstat_adsalt_del2       =   5.7247100186635E-02
(PID.TID 0000.0001) %MON ad_forcing_adqnet_max        =   0.0000000000000E+00
(PID.TID 0000.0001) %MON ad_forcing_adqnet_min        =   0.0000000000000E+00
(PID.TID 0000.0001) %MON ad_forcing_adqnet_mean       =   0.0000000000000E+00
(PID.TID 0000.0001) %MON ad_forcing_adqnet_sd         =   0.0000000000000E+00
(PID.TID 0000.0001) %MON ad_forcing_adqnet_del2       =   0.0000000000000E+00
(PID.TID 0000.0001) %MON ad_forcing_adqsw_max         =   2.4253967303409E-02
(PID.TID 0000.0001) %MON ad_forcing_adqsw_min         =  -1.1473531845620E-02
(PID.TID 0000.0001) %MON ad_forcing_adqsw_mean        =   3.5580416534220E-04
(PID.TID 0000.0001) %MON ad_forcing_adqsw_sd          =   1.0083138211034E-03
(PID.TID 0000.0001) %MON ad_forcing_adqsw_del2        =   3.5141781581435E-05
(PID.TID 0000.0001) %MON ad_forcing_adempmr_max       =   0.0000000000000E+00
(PID.TID 0000.0001) %MON ad_forcing_adempmr_min       =   0.0000000000000E+00
(PID.TID 0000.0001) %MON ad_forcing_adempmr_mean      =   0.0000000000000E+00
(PID.TID 0000.0001) %MON ad_forcing_adempmr_sd        =   0.0000000000000E+00
(PID.TID 0000.0001) %MON ad_forcing_adempmr_del2      =   0.0000000000000E+00
(PID.TID 0000.0001) %MON ad_forcing_adfu_max          =   0.0000000000000E+00
(PID.TID 0000.0001) %MON ad_forcing_adfu_min          =   0.0000000000000E+00
(PID.TID 0000.0001) %MON ad_forcing_adfu_mean         =   0.0000000000000E+00
(PID.TID 0000.0001) %MON ad_forcing_adfu_sd           =   0.0000000000000E+00
(PID.TID 0000.0001) %MON ad_forcing_adfu_del2         =   0.0000000000000E+00
(PID.TID 0000.0001) %MON ad_forcing_adfv_max          =   0.0000000000000E+00
(PID.TID 0000.0001) %MON ad_forcing_adfv_min          =   0.0000000000000E+00
(PID.TID 0000.0001) %MON ad_forcing_adfv_mean         =   0.0000000000000E+00
(PID.TID 0000.0001) %MON ad_forcing_adfv_sd           =   0.0000000000000E+00
(PID.TID 0000.0001) %MON ad_forcing_adfv_del2         =   0.0000000000000E+00
(PID.TID 0000.0001) %MON ad_advcfl_aduvel_max         =   3.7631257575802E+02
(PID.TID 0000.0001) %MON ad_advcfl_advvel_max         =   1.8404284692857E+02
(PID.TID 0000.0001) %MON ad_advcfl_adwvel_max         =   4.9049722344314E+05
(PID.TID 0000.0001) %MON ad_advcfl_adW_hf_max         =   5.8860150593654E+05
(PID.TID 0000.0001) // =======================================================
(PID.TID 0000.0001) // End MONITOR dynamic field statistics
(PID.TID 0000.0001) // =======================================================
 cg2d: Sum(rhs),rhsMax =   4.06575814682064E-19  1.67819373399079E-03
(PID.TID 0000.0001)  MDS_READ_FIELD: opening file: adxx_hfl.0000000000.001.001.data
(PID.TID 0000.0001)  MDS_READ_FIELD: opening file: adxx_hfl.0000000000.002.001.data
(PID.TID 0000.0001)  MDS_READ_FIELD: opening file: adxx_hfl.0000000000.003.001.data
(PID.TID 0000.0001)  MDS_READ_FIELD: opening file: adxx_hfl.0000000000.004.001.data
(PID.TID 0000.0001)  MDS_READ_FIELD: opening file: adxx_hfl.0000000000.005.001.data
(PID.TID 0000.0001)  MDS_READ_FIELD: opening file: adxx_hfl.0000000000.006.001.data
(PID.TID 0000.0001)  MDS_READ_FIELD: opening file: adxx_sfl.0000000000.001.001.data
(PID.TID 0000.0001)  MDS_READ_FIELD: opening file: adxx_sfl.0000000000.002.001.data
(PID.TID 0000.0001)  MDS_READ_FIELD: opening file: adxx_sfl.0000000000.003.001.data
(PID.TID 0000.0001)  MDS_READ_FIELD: opening file: adxx_sfl.0000000000.004.001.data
(PID.TID 0000.0001)  MDS_READ_FIELD: opening file: adxx_sfl.0000000000.005.001.data
(PID.TID 0000.0001)  MDS_READ_FIELD: opening file: adxx_sfl.0000000000.006.001.data
(PID.TID 0000.0001)  MDS_READ_FIELD: opening file: adxx_tauv.0000000000.001.001.data
(PID.TID 0000.0001)  MDS_READ_FIELD: opening file: adxx_tauv.0000000000.002.001.data
(PID.TID 0000.0001)  MDS_READ_FIELD: opening file: adxx_tauv.0000000000.003.001.data
(PID.TID 0000.0001)  MDS_READ_FIELD: opening file: adxx_tauv.0000000000.004.001.data
(PID.TID 0000.0001)  MDS_READ_FIELD: opening file: adxx_tauv.0000000000.005.001.data
(PID.TID 0000.0001)  MDS_READ_FIELD: opening file: adxx_tauv.0000000000.006.001.data
(PID.TID 0000.0001)  MDS_READ_FIELD: opening file: adxx_tauu.0000000000.001.001.data
(PID.TID 0000.0001)  MDS_READ_FIELD: opening file: adxx_tauu.0000000000.002.001.data
(PID.TID 0000.0001)  MDS_READ_FIELD: opening file: adxx_tauu.0000000000.003.001.data
(PID.TID 0000.0001)  MDS_READ_FIELD: opening file: adxx_tauu.0000000000.004.001.data
(PID.TID 0000.0001)  MDS_READ_FIELD: opening file: adxx_tauu.0000000000.005.001.data
(PID.TID 0000.0001)  MDS_READ_FIELD: opening file: adxx_tauu.0000000000.006.001.data
(PID.TID 0000.0001)  MDS_READ_FIELD: opening global file: bathy_Hmin50.bin
(PID.TID 0000.0001) // =======================================================
(PID.TID 0000.0001) // Field Model R_low (ini_masks_etc) at iteration          1
(PID.TID 0000.0001) // CMIN =         -5.200000000000000E+03
(PID.TID 0000.0001) // CMAX =         -5.000000000000000E+01
(PID.TID 0000.0001) // CINT =          1.907407407407407E+02
(PID.TID 0000.0001) // SYMBOLS (CMIN->CMAX): -abcdefghijklmnopqrstuvwxyz+
(PID.TID 0000.0001) //                  0.0: .
(PID.TID 0000.0001) // RANGE I (Lo:Hi:Step):(    -3:   196:     1)
(PID.TID 0000.0001) // RANGE J (Lo:Hi:Step):(    36:    -3:    -1)
(PID.TID 0000.0001) // RANGE K (Lo:Hi:Step):(   1:   1:   1)
(PID.TID 0000.0001) // =======================================================
(PID.TID 0000.0001) K =   1
(PID.TID 0000.0001) //                I=6       I=16      I=26      I=36      I=38      I=48      I=58      I=68      I=70      I=80      I=90      I=100     I=102     I=112     I=122     I=132     I=134     I=144     I=154     I=164     I=166     I=176     I=186     I=196
(PID.TID 0000.0001) // |--J--|321012345|789012345|789012345|789012345|901234567|901234567|901234567|901234567|123456789|123456789|123456789|123456789|345678901|345678901|345678901|345678901|567890123|567890123|567890123|567890123|789012345|789012345|789012345|789012345|
(PID.TID 0000.0001) //     36 cbbc-ddcbcdehkhhmn..++..................................................okn.skko--a-fc----bba-cp.............tfeecccbbdeecccbbdeddedcdcccdddcddffggghiggfffdeeffijlihjlica---a--cgffel.+edfgeedflcbahgfllcbahgfllfhdffhkfffca-aady...llnabdoa--a
(PID.TID 0000.0001) //     35 dcac--cbbeefjkfefw+..........zpu........................................kqnzrqqk--b-da----bbbbfu..............fdddccaadcddccaadcdddcbbbbcdddcccdffffghgffffddefflligfiljfba---aafddehy...pwvlhfffcbagfccfcbagfcceeffffjlkjgaa---bfvheeln-aesaaab
(PID.TID 0000.0001) //     34 d--ba-abcehjnldcclz+........spps.......................................vkqn+xnnncabbcbba--aabfu+..............hcbaaaaaccbaaaaaccdccbaaabbddddccdffffghfeeeeedeffjiffefilhfcaaaacgceei.......zomggfcaecbbgfcaecbbccddefilihecbaacbaajfega-aesfeed
(PID.TID 0000.0001) //     33 --abbbccceiomkfdbbc+.......+s..........................................xsrxzz+z.fdcddb-----adu+...............hcbaa--accbaa--accddba--bbbddddccdfffhhgfeeddcceddhfeddfgikhfffdfgccffw........zohhgebbaaahgebbaaaaaccdfhlhfefdcccaabjefbaaafoosso
(PID.TID 0000.0001) //     32 --bddefhhkqqlgfaakqz..v.+..+.........................................++..u+....zigfdba----adu+................kdcaaa-acccaaa-accdcb---bbbcdddddefffggfeeedcccccbccbbdcdfgghhiihcbeiw.........+ynjgebaaaajgebaaaa-aacccfikkhecccbbbaaabaadfklnqpp
(PID.TID 0000.0001) //     31 abbcffijnpnqneaaat..umrr+s.z.........................................+++++.ztsvdlifeb--dfdfu+................+lkdca--abcdca--abcccb---bbbbddddeffflhfeeeecbbbbaaba-abbacbcdceffbbfw+..........++ujfbaaa-ujfbaaa----aacffiljgfffcca--adfikkiihhhf
(PID.TID 0000.0001) //     30 --adgillkkkifcadcx.ymmqzqikvnnps.....................................+++++wmegt-jlifcacdlqx+++...............mligea---abgea---abbbb---abaaddddeedkmeddefdbbbaaaabc---b--aaaaabaabm..............+viba---+viba-------acdefinmlgiieb-chnnnmlmlgffc
(PID.TID 0000.0001) //     29 --cfiljigfjd--efdozy...+ximpnnuz......................................+++yqddhp-iljhcbbchz+......++.........+mmhffc----affc----aaba------acdddcbcineddgdbaaa----cdd--a------aa-bfz...............+qe---a.+qe---aa---aedeegknmlgiigcdfhpokkimlfdb
(PID.TID 0000.0001) //     28 -abgkhfcccea-bdei........t............................................++zwgfcfk-gknhccbbhwwy.....+++........+njfeed-----eed-----aa-------abddcabcnfddegcaaa-----hlf------------dk+................+ja---..+ja------bffdddehfd--bedaacfhpnligiihd
(PID.TID 0000.0001) //     27 -acghfbaaaa-achmy......................+.......+++....................++vnbbbclefkpkeeecflmqxy....++........+lhfeecc----eecc------------aaadcbabcfhddccba-------zqd-----------irw.................++e---..++e-----mhmijddda--------ahhfiokhedegg
(PID.TID 0000.0001) //     26 -adhfca-----bfiv.......................+.......++sy...................+tq-fdbblcjknqiheddefhiksz++++........zkhfdccb----dccb------------aabdcaaaacfddbca-------a+xfa-abb-----vvv...................+wa--...+wa---mlmkijhc----------cjjffiheb-aad
(PID.TID 0000.0001) //     25 -achfa------ch+..................w.......w.......njo+................+x-----bcgidiqqojfefiiiijmy.++.........zkhfdbaa----dbaa-------daa---acccaaaacccca--------ac.+udaabbb----tei...................++qde...++qdeqnghiljcaaaaidaa----beedeeca--bb
(PID.TID 0000.0001) //     24 aaeifa--acbcei...................w.......w.......likn+.....++.....++znpa----bbdi-fnlmnjhinlksssw............qhfeca------ca--------addc--aeffaaaaaaccb-a----a--bd.++udbbaba---ven....................++xy....++xywnfgllcbbabegkecba----ddddcaacdc
(PID.TID 0000.0001) //     23 abfida-aabchjk...................zz......zz.....nhhijz....tqq.....+ujgzgd---abci-cegklkkknols..xuu..........zgfdba------ba--------bcd---affaaadffabbb-----aa-bcc.+.+ufb-----l.gx...........s.........++z.....++zzkfilfccccoz..ulkcd---bccnfddddd
(PID.TID 0000.0001) //     22 -afhfaa---bfgi....................zz..rn..zz..rnjffggm...nlmn+....+sffzya--aabcieaaffdfhimrmp...yuu.++.......zudba------ba--------adc---dda-adffe-aa--------aaac....+ufc-baaqvhh..........dcfeeh......++......++zggqvifefhz......zobbaccfwuffeee
(PID.TID 0000.0001) //     21 babcgca----abe.....................ysstl...ysstlgeeeeoz..ijklt+....lfjzzf---adfcfdaadcehllotq....yy+++zzs.....+zcba-----cba-------cdd--aaa----df------------aaac.....+upjdcy.vohq.......+idcdfeeefwz....efwz....+hhn.vklox.........gdccfjwrigffh
(PID.TID 0000.0001) //     20 fbbbcgfcaa-aae+.......................lc......lcgfdddhq.+hiilnz++.+oquxyz--adgkfdcaabcfmtooyxz......+yuiiy....++gb------gb--------ddcca-a-----acbaa------bbaaaab........ywxy.lulo.lv...kcdgddffefffilyx+fffilyx+fffk.+xyyy.........mgeimvskjklll
(PID.TID 0000.0001) //     19 zmfeccdghfeegcbt......................aa......aafifccgnrzgghjry.+++sr+lq.--edfkkoxtkblwnnsp.vv......skhggt...+++t-------t---------bdaf---------edd-------adlaaaa+..........vnhzy.tllqiedccdhggfggffiiggfgffiiggfcbdgy..yz..........xigqophijkkii
(PID.TID 0000.0001) //     18 ..wifedfkhfegbbcivlqfoz..............jaa.....jaacfihggokeeffgt..++++..hhlfdeddkez..qcz+.zwxtsttz..ysrkhot++++++zig------ig--------b--f---------egqqqaa----frb---+........+kkrhw.vqmlnieddcdehgggffgigedbffgigedbaaceiy.............zilrddefikkhh
(PID.TID 0000.0001) //     17 ..+wfeefikhgcbbccaaacgn.............icaa....icaaccfihfoedddeedy..++...nnqwgfeekeyy.z++..+zsjjllllljllpjos+++.+zhhi-----ehi-----e-----ea--------foqqoqqo--hlwgea-.........+nk+..xiioonhfefddegihhghigfdbaghigfdbaaabdgx..............nheddefiklhg
(PID.TID 0000.0001) //     16 ....wiheddeccdfhfbabdfl............jdbad...jdbaddddgifkccccdccd+.++..++ynvz.tkkq.mu....++zyslllllkhggkmpy++...ihhi-----ehi-----ea---feb-----a-acnoohfghknvmwnuca..........qhu..hhhkojgffgeefghihhiieedbahiieedbaaabcdy..............ygddeghiljgf
(PID.TID 0000.0001) //     15 ......ylea--acfihebcbbes..........sfcbbn..sfcbbngfffigcaaabdbcac+.+++++zgmpx...y.mm....++..zslwz.yhhhhnz+++...rhgc----abgc----ab----ige----acaaalllkddfiy..yswxb..........thk.xgghiligfghfefhhhhiiheedcdiiheedcdbbabdmz.............zfdeghikkifd
(PID.TID 0000.0001) //     14 ........c---acgkhdcc--di..........ofddch..ofddchohffikaaaaabaaa-aw+.+ysnggox++...qrv..........yzzzzrjil+++....qhgd-----agd-----a-----i---cccdeabkklldinqssy..xxv...........+y.uhghikihgfghefgihhhgeeeeedhgeeeeeddbaadhw.............nedeghjjhfed
(PID.TID 0000.0001) //     13 .......+b----cfkhec---afz.........nhfdff..nhfdffholghkaaaaaba-a---flkkuswyy++++y+zr...........zzzzz++ry++......yd-------d--------------aeecdeidfkkqnqlmqquukqqmf..............iihiijjhfefgefhjihiffgggffiffgggffecaabelx...........zjecehijhfecc
(PID.TID 0000.0001) //     12 .......ec----chjhec---ag..........skiqdd..skiqddeiiiifaaabae--a---dd--iu+++.+++sxq++..........+z+++++.+++....++.s-------s------------a-ceccdejhlllkqlkklssiccdee.............wjkkkjjjigeefffgjiiighiiihhighiiihhhdaabdffghtxx......mfccehjiffdb-
(PID.TID 0000.0001) //     11 ......pdca--achlheba--ai..........nkn.fd..nkn.fdemijidaaaabi-------a--q+....++.ziis...........+++++..........+yyza----b-za----b-----a--ccccddkhieekkossssfbbbbcd............njjijhhihijhgggggjjjjijkkkkjjijkkkkjjhcaacddeegpy.....xfdccdhjgfdda-
(PID.TID 0000.0001) //     10 ......wfdb--achlhea---an.........uos..dc.uos..dcemikkfdcaabi-------equ+.........mk...........................zyvuq----ccuq----cc----a---dcfhkopqjeissrnpfbbcccde..........zslihhigghgijjihhhhkllkkkkkkjkkkkkkkjkkkedccdeeeeipz..zwhccbcdhgfddcam
(PID.TID 0000.0001) //      9 ......vgec---bfikca--cjl+.......+nnv.+cc+nnv.+ccffhkkiddaadha-----as++..........pvz++........................zxuuk------uk------a---a----djmqrrnlllsoiddcccccdjf.........+zjijhfgfggffhjkkkiillljihhghgijihhghgihighdeeffgghimnnjgecbbcdgfeccbas
(PID.TID 0000.0001) //      8 .....zleca---afjfca--hdfz.......vkky.jcevkky.jceddefijffdddhb--a-afv............nn..ss.........................+yku-----yku--------------ejnpqqnninnritqdccchkmf+.......wihgghgeffffeefhijkjkljiigeeffefigeeffefffhjhhikkklljklmhffeeeggfdcbaay.
(PID.TID 0000.0001) //      7 ...+zohec--abcfkhecbchbdx.......qiht.faaqiht.faaaabdgijgfededcdcb-f+............nn...pz.........................+zu-----+zu--------------edefqgqddsz+......+yuddmm+....tiggfggfeeeefeeefiiiijkiihhedddddhheddddddddjjllliijhfkmmkkjjhijgdcba--q.
(PID.TID 0000.0001) //      6 ..+yomfddcaabefkifdchaadt......uqdeisc--qdeisc----dfefgifffkklldc--v............up...pp.........................v.x-----v.x---------a----fbbpqgzenx+........zdbcmllkhhfffffffgfeeeeeeeefhhhhijihhffddcbbhffddcbbbbdhhiihedddb-cfhhhjjjieca----+.
(PID.TID 0000.0001) //      5 ..+nhgffkghccfhkhffgdaackz....uoibcimlaaibcimlaaacfbddfjjhijeehf-a-c............zs...su.........................qk.yi---qk.yi-------gha-fjddqs+xkrz.........q-bchikdccdeeeeeeedddedddddgghhhhjhhgffcbbaagffcbbaaaaddfegecca----dfeefhfgdb-----+.
(PID.TID 0000.0001) //      4 .+ujhgfllfhdffhkfffca-aady...llnabdopfcbabdopfcbdgdbcdehlihgfddc--ms............................................okn.zd--okn.zd---eciiiicfkeeqy.ysz..........n-aafgdcbbdeddedcdcccdddcddffggghiggfffdbaa-fffdbaa---acdcccba--abvfedeffdcca----b+.
(PID.TID 0000.0001) //      3 +vjggfcceeffffjlkjgaa---bfvheeln-aesphfd-aesphfdhgabddeflihhgfecbaaayq+++++.....................................kqnz.vtpkqnz.vtpkllgdccfkkkkk..++..........+g---fecaaadcdddcbbbbcdddcccdffffghgffffdcaa-fffdcaa----abcaaaa-acxxmecdjmdbba----r+.
(PID.TID 0000.0001) //      2 qifeecbbccddefilihecbaacbaajfega-aesqhff-aesqhffiea-cdeflkkljifeddcba---bry+...................................vkqn+.sghkqn+.sghfcbcbbbdgfdek.++++.........+l---caaaaaccdccbaaabbddddccdffffghfeeeeecba-eeeecba------baaaa-euwxqdbcdkud-----sy+.
(PID.TID 0000.0001) //      1 ebbbbaaaaaccdfhlhfefdcccaabjefbaaafonhglaafonhglid--adfgkkkklkhffddca-----s++++................................xsrxz.tedsrxz.tedcbbbbaaadddet.++++.........+l------a-accddba--bbbddddccdfffhhgfeeddccba-eddccba-------aaaabgns.qcbcchyzqngll++..
(PID.TID 0000.0001) //      0 -aaaaaaa-aacccfikkhecccbbbaaabaadfkllilmdfkllilmgebaadfijjiiikjhffdcba-----lllgn.............................++..u+..zmd.u+..zmdfbd---a-aeef.xx+..........+++s-------accdcb---bbbcdddddefffggfeeedcccbbaedcccbba----aa--alrwwy.kcbccc+...++++...
(PID.TID 0000.0001) //     -1 --aaaaa----aacffiljgfffcca--adfikkiikimikkiikimiiheccfurkiffhijjigfecb-----l----.............................+++++.z+.wq++.z+.wqgbf-------dgzpoy+........+ys+yrb--aa-abcccb---bbbbddddeffflhfeeeecbbcbbaecbbcbbaa----a--bdflm.yuibbcc.......+...
(PID.TID 0000.0001) //     -2 --aaa-------acdefinmlgiieb-chnnnmlmlfklkmlmlfklklkhednwwsheeghhijjgfdca----g---a.............................+++++wmu++y++wmu++ywn--------fwvmgy+........+r-.+++-abc--abbbb---abaaddddeedkmeddefdbbbdcbadbbbdcbaa-------ba-hv.susfbcc.......+...
(PID.TID 0000.0001) //     -3 a--a---aa---aedeegknmlgiigcdfhpokkimdkmkkkimdkmknoiedcfjvpddegghhhhgfdcbaa-n---a..............................+++yqd.++++yqd.+++zvq--dafz.lqnggw+........+b-....abcc---aaba------acdddcbcineddgdbaaaeedbbaaaeedbaa----------nysqssfcd...........
(PID.TID 0000.0001) // =======================================================
(PID.TID 0000.0001) // END OF FIELD                                          =
(PID.TID 0000.0001) // =======================================================
(PID.TID 0000.0001) 
(PID.TID 0000.0001) // =======================================================
(PID.TID 0000.0001) // Field Model Ro_surf (ini_masks_etc) at iteration          1
(PID.TID 0000.0001) // CMIN =         -7.105427357601002E-15
(PID.TID 0000.0001) // CMAX =         -7.105427357601002E-15
(PID.TID 0000.0001) // CINT =          0.000000000000000E+00
(PID.TID 0000.0001) // SYMBOLS (CMIN->CMAX): -abcdefghijklmnopqrstuvwxyz+
(PID.TID 0000.0001) //                  0.0: .
(PID.TID 0000.0001) // RANGE I (Lo:Hi:Step):(    -3:   196:     1)
(PID.TID 0000.0001) // RANGE J (Lo:Hi:Step):(    36:    -3:    -1)
(PID.TID 0000.0001) // RANGE K (Lo:Hi:Step):(   1:   1:   1)
(PID.TID 0000.0001) // =======================================================
(PID.TID 0000.0001) // =======================================================
(PID.TID 0000.0001) // END OF FIELD                                          =
(PID.TID 0000.0001) // =======================================================
(PID.TID 0000.0001) 
(PID.TID 0000.0001) // =======================================================
(PID.TID 0000.0001) // Field hFacC at iteration          1
(PID.TID 0000.0001) // CMIN =          1.000000000000000E+00
(PID.TID 0000.0001) // CMAX =          1.000000000000000E+00
(PID.TID 0000.0001) // CINT =          0.000000000000000E+00
(PID.TID 0000.0001) // SYMBOLS (CMIN->CMAX): -abcdefghijklmnopqrstuvwxyz+
(PID.TID 0000.0001) //                  0.0: .
(PID.TID 0000.0001) // RANGE I (Lo:Hi:Step):(    -3:   196:     1)
(PID.TID 0000.0001) // RANGE J (Lo:Hi:Step):(    36:    -3:    -1)
(PID.TID 0000.0001) // RANGE K (Lo:Hi:Step):(   1:   1:   1)
(PID.TID 0000.0001) // =======================================================
(PID.TID 0000.0001) // =======================================================
(PID.TID 0000.0001) // END OF FIELD                                          =
(PID.TID 0000.0001) // =======================================================
(PID.TID 0000.0001) 
(PID.TID 0000.0001) // =======================================================
(PID.TID 0000.0001) // Field hFacW at iteration          1
(PID.TID 0000.0001) // CMIN =          1.000000000000000E+00
(PID.TID 0000.0001) // CMAX =          1.000000000000000E+00
(PID.TID 0000.0001) // CINT =          0.000000000000000E+00
(PID.TID 0000.0001) // SYMBOLS (CMIN->CMAX): -abcdefghijklmnopqrstuvwxyz+
(PID.TID 0000.0001) //                  0.0: .
(PID.TID 0000.0001) // RANGE I (Lo:Hi:Step):(    -3:   196:     1)
(PID.TID 0000.0001) // RANGE J (Lo:Hi:Step):(    36:    -3:    -1)
(PID.TID 0000.0001) // RANGE K (Lo:Hi:Step):(   1:   1:   1)
(PID.TID 0000.0001) // =======================================================
(PID.TID 0000.0001) // =======================================================
(PID.TID 0000.0001) // END OF FIELD                                          =
(PID.TID 0000.0001) // =======================================================
(PID.TID 0000.0001) 
(PID.TID 0000.0001) // =======================================================
(PID.TID 0000.0001) // Field hFacS at iteration          1
(PID.TID 0000.0001) // CMIN =          1.000000000000000E+00
(PID.TID 0000.0001) // CMAX =          1.000000000000000E+00
(PID.TID 0000.0001) // CINT =          0.000000000000000E+00
(PID.TID 0000.0001) // SYMBOLS (CMIN->CMAX): -abcdefghijklmnopqrstuvwxyz+
(PID.TID 0000.0001) //                  0.0: .
(PID.TID 0000.0001) // RANGE I (Lo:Hi:Step):(    -3:   196:     1)
(PID.TID 0000.0001) // RANGE J (Lo:Hi:Step):(    36:    -3:    -1)
(PID.TID 0000.0001) // RANGE K (Lo:Hi:Step):(   1:   1:   1)
(PID.TID 0000.0001) // =======================================================
(PID.TID 0000.0001) // =======================================================
(PID.TID 0000.0001) // END OF FIELD                                          =
(PID.TID 0000.0001) // =======================================================
(PID.TID 0000.0001) 
(PID.TID 0000.0001)  MDS_READ_META: opening file: pickup.0000072000.meta
(PID.TID 0000.0001)  nRecords = 123 ; filePrec =  64 ; fileIter =     72000
(PID.TID 0000.0001)     nDims =   2 , dims:
(PID.TID 0000.0001)    1: 192   1 192
(PID.TID 0000.0001)    2:  32   1  32
(PID.TID 0000.0001)     nFlds =  11 , nFl3D =   8 , fields:
(PID.TID 0000.0001)  >Uvel    < >GuNm1   < >Vvel    < >GvNm1   < >Theta   < >GtNm1   < >Salt    < >GsNm1   < >EtaN    < >dEtaHdt < >EtaH    <
(PID.TID 0000.0001)   nTimRec =   0 , timeList:
(PID.TID 0000.0001) READ_MFLDS_3D_RL: read field: "Uvel    ", #   1 in fldList, rec=   1
(PID.TID 0000.0001)  MDS_READ_FIELD: opening global file: pickup.0000072000
(PID.TID 0000.0001) READ_MFLDS_3D_RL: read field: "Vvel    ", #   3 in fldList, rec=   3
(PID.TID 0000.0001)  MDS_READ_FIELD: opening global file: pickup.0000072000
(PID.TID 0000.0001) READ_MFLDS_3D_RL: read field: "Theta   ", #   5 in fldList, rec=   5
(PID.TID 0000.0001)  MDS_READ_FIELD: opening global file: pickup.0000072000
(PID.TID 0000.0001) READ_MFLDS_3D_RL: read field: "Salt    ", #   7 in fldList, rec=   7
(PID.TID 0000.0001)  MDS_READ_FIELD: opening global file: pickup.0000072000
(PID.TID 0000.0001) READ_MFLDS_3D_RL: read field: "GuNm1   ", #   2 in fldList, rec=   2
(PID.TID 0000.0001)  MDS_READ_FIELD: opening global file: pickup.0000072000
(PID.TID 0000.0001) READ_MFLDS_3D_RL: field: "GuNm2   " missing in file: pickup.0000072000
(PID.TID 0000.0001) READ_MFLDS_3D_RL: read field: "GvNm1   ", #   4 in fldList, rec=   4
(PID.TID 0000.0001)  MDS_READ_FIELD: opening global file: pickup.0000072000
(PID.TID 0000.0001) READ_MFLDS_3D_RL: field: "GvNm2   " missing in file: pickup.0000072000
(PID.TID 0000.0001) READ_MFLDS_3D_RL: read field: "EtaN    ", #   9 in fldList, rec= 121
(PID.TID 0000.0001)  MDS_READ_FIELD: opening global file: pickup.0000072000
(PID.TID 0000.0001) READ_MFLDS_3D_RL: read field: "dEtaHdt ", #  10 in fldList, rec= 122
(PID.TID 0000.0001)  MDS_READ_FIELD: opening global file: pickup.0000072000
(PID.TID 0000.0001) READ_MFLDS_3D_RL: read field: "EtaH    ", #  11 in fldList, rec= 123
(PID.TID 0000.0001)  MDS_READ_FIELD: opening global file: pickup.0000072000
(PID.TID 0000.0001) // =======================================================
(PID.TID 0000.0001) // Begin MONITOR dynamic field statistics
(PID.TID 0000.0001) // =======================================================
(PID.TID 0000.0001) %MON ad_time_tsnumber             =                 72000
(PID.TID 0000.0001) %MON ad_time_secondsf             =   6.2208000000000E+09
(PID.TID 0000.0001) %MON ad_dynstat_adeta_max         =   0.0000000000000E+00
(PID.TID 0000.0001) %MON ad_dynstat_adeta_min         =   0.0000000000000E+00
(PID.TID 0000.0001) %MON ad_dynstat_adeta_mean        =   0.0000000000000E+00
(PID.TID 0000.0001) %MON ad_dynstat_adeta_sd          =   0.0000000000000E+00
(PID.TID 0000.0001) %MON ad_dynstat_adeta_del2        =   0.0000000000000E+00
(PID.TID 0000.0001) %MON ad_dynstat_aduvel_max        =   8.3431440562171E+02
(PID.TID 0000.0001) %MON ad_dynstat_aduvel_min        =  -7.2993866851338E+02
(PID.TID 0000.0001) %MON ad_dynstat_aduvel_mean       =   6.2277998115619E-01
(PID.TID 0000.0001) %MON ad_dynstat_aduvel_sd         =   1.3287193489881E+01
(PID.TID 0000.0001) %MON ad_dynstat_aduvel_del2       =   1.3431652178418E-01
(PID.TID 0000.0001) %MON ad_dynstat_advvel_max        =   6.0277549754935E+02
(PID.TID 0000.0001) %MON ad_dynstat_advvel_min        =  -4.0857818876867E+02
(PID.TID 0000.0001) %MON ad_dynstat_advvel_mean       =   1.1519192774941E+00
(PID.TID 0000.0001) %MON ad_dynstat_advvel_sd         =   1.3061607979344E+01
(PID.TID 0000.0001) %MON ad_dynstat_advvel_del2       =   1.1320609243023E-01
(PID.TID 0000.0001) %MON ad_dynstat_adwvel_max        =   1.9861517550999E+02
(PID.TID 0000.0001) %MON ad_dynstat_adwvel_min        =  -1.4824853904435E+02
(PID.TID 0000.0001) %MON ad_dynstat_adwvel_mean       =  -7.1615216085302E-03
(PID.TID 0000.0001) %MON ad_dynstat_adwvel_sd         =   2.6531169192175E+00
(PID.TID 0000.0001) %MON ad_dynstat_adwvel_del2       =   3.0782042588631E-02
(PID.TID 0000.0001) %MON ad_dynstat_adtheta_max       =   3.8686880326607E+01
(PID.TID 0000.0001) %MON ad_dynstat_adtheta_min       =  -7.1644019610956E+01
(PID.TID 0000.0001) %MON ad_dynstat_adtheta_mean      =   6.2835198497902E-01
(PID.TID 0000.0001) %MON ad_dynstat_adtheta_sd        =   2.1302449121399E+00
(PID.TID 0000.0001) %MON ad_dynstat_adtheta_del2      =   1.2895555365631E-02
(PID.TID 0000.0001) %MON ad_dynstat_adsalt_max        =   2.1335812888560E+02
(PID.TID 0000.0001) %MON ad_dynstat_adsalt_min        =  -2.7560668382659E+02
(PID.TID 0000.0001) %MON ad_dynstat_adsalt_mean       =  -1.1564681694346E-01
(PID.TID 0000.0001) %MON ad_dynstat_adsalt_sd         =   6.0314400958632E+00
(PID.TID 0000.0001) %MON ad_dynstat_adsalt_del2       =   5.6990068298606E-02
(PID.TID 0000.0001) %MON ad_forcing_adqnet_max        =   0.0000000000000E+00
(PID.TID 0000.0001) %MON ad_forcing_adqnet_min        =   0.0000000000000E+00
(PID.TID 0000.0001) %MON ad_forcing_adqnet_mean       =   0.0000000000000E+00
(PID.TID 0000.0001) %MON ad_forcing_adqnet_sd         =   0.0000000000000E+00
(PID.TID 0000.0001) %MON ad_forcing_adqnet_del2       =   0.0000000000000E+00
(PID.TID 0000.0001) %MON ad_forcing_adqsw_max         =   2.5423370417770E-02
(PID.TID 0000.0001) %MON ad_forcing_adqsw_min         =  -1.1631161366287E-02
(PID.TID 0000.0001) %MON ad_forcing_adqsw_mean        =   3.7300184071348E-04
(PID.TID 0000.0001) %MON ad_forcing_adqsw_sd          =   1.0542850521374E-03
(PID.TID 0000.0001) %MON ad_forcing_adqsw_del2        =   3.6702605382937E-05
(PID.TID 0000.0001) %MON ad_forcing_adempmr_max       =   0.0000000000000E+00
(PID.TID 0000.0001) %MON ad_forcing_adempmr_min       =   0.0000000000000E+00
(PID.TID 0000.0001) %MON ad_forcing_adempmr_mean      =   0.0000000000000E+00
(PID.TID 0000.0001) %MON ad_forcing_adempmr_sd        =   0.0000000000000E+00
(PID.TID 0000.0001) %MON ad_forcing_adempmr_del2      =   0.0000000000000E+00
(PID.TID 0000.0001) %MON ad_forcing_adfu_max          =   0.0000000000000E+00
(PID.TID 0000.0001) %MON ad_forcing_adfu_min          =   0.0000000000000E+00
(PID.TID 0000.0001) %MON ad_forcing_adfu_mean         =   0.0000000000000E+00
(PID.TID 0000.0001) %MON ad_forcing_adfu_sd           =   0.0000000000000E+00
(PID.TID 0000.0001) %MON ad_forcing_adfu_del2         =   0.0000000000000E+00
(PID.TID 0000.0001) %MON ad_forcing_adfv_max          =   0.0000000000000E+00
(PID.TID 0000.0001) %MON ad_forcing_adfv_min          =   0.0000000000000E+00
(PID.TID 0000.0001) %MON ad_forcing_adfv_mean         =   0.0000000000000E+00
(PID.TID 0000.0001) %MON ad_forcing_adfv_sd           =   0.0000000000000E+00
(PID.TID 0000.0001) %MON ad_forcing_adfv_del2         =   0.0000000000000E+00
(PID.TID 0000.0001) %MON ad_advcfl_aduvel_max         =   3.5839484483395E+02
(PID.TID 0000.0001) %MON ad_advcfl_advvel_max         =   1.9300847306557E+02
(PID.TID 0000.0001) %MON ad_advcfl_adwvel_max         =   2.8600585273439E+05
(PID.TID 0000.0001) %MON ad_advcfl_adW_hf_max         =   3.4320702328126E+05
(PID.TID 0000.0001) // =======================================================
(PID.TID 0000.0001) // End MONITOR dynamic field statistics
(PID.TID 0000.0001) // =======================================================
(PID.TID 0000.0001)  MDS_READ_FIELD: opening file: xx_theta.0000000000.001.001.data
(PID.TID 0000.0001)  MDS_READ_FIELD: opening file: xx_theta.0000000000.002.001.data
(PID.TID 0000.0001)  MDS_READ_FIELD: opening file: xx_theta.0000000000.003.001.data
(PID.TID 0000.0001)  MDS_READ_FIELD: opening file: xx_theta.0000000000.004.001.data
(PID.TID 0000.0001)  MDS_READ_FIELD: opening file: xx_theta.0000000000.005.001.data
(PID.TID 0000.0001)  MDS_READ_FIELD: opening file: xx_theta.0000000000.006.001.data
(PID.TID 0000.0001)  MDS_READ_FIELD: opening file: adxx_diffkr.0000000000.001.001.data
(PID.TID 0000.0001)  MDS_READ_FIELD: opening file: adxx_diffkr.0000000000.002.001.data
(PID.TID 0000.0001)  MDS_READ_FIELD: opening file: adxx_diffkr.0000000000.003.001.data
(PID.TID 0000.0001)  MDS_READ_FIELD: opening file: adxx_diffkr.0000000000.004.001.data
(PID.TID 0000.0001)  MDS_READ_FIELD: opening file: adxx_diffkr.0000000000.005.001.data
(PID.TID 0000.0001)  MDS_READ_FIELD: opening file: adxx_diffkr.0000000000.006.001.data
(PID.TID 0000.0001)  MDS_READ_FIELD: opening file: adxx_salt.0000000000.001.001.data
(PID.TID 0000.0001)  MDS_READ_FIELD: opening file: adxx_salt.0000000000.002.001.data
(PID.TID 0000.0001)  MDS_READ_FIELD: opening file: adxx_salt.0000000000.003.001.data
(PID.TID 0000.0001)  MDS_READ_FIELD: opening file: adxx_salt.0000000000.004.001.data
(PID.TID 0000.0001)  MDS_READ_FIELD: opening file: adxx_salt.0000000000.005.001.data
(PID.TID 0000.0001)  MDS_READ_FIELD: opening file: adxx_salt.0000000000.006.001.data
(PID.TID 0000.0001)  MDS_READ_FIELD: opening file: adxx_theta.0000000000.001.001.data
(PID.TID 0000.0001)  MDS_READ_FIELD: opening file: adxx_theta.0000000000.002.001.data
(PID.TID 0000.0001)  MDS_READ_FIELD: opening file: adxx_theta.0000000000.003.001.data
(PID.TID 0000.0001)  MDS_READ_FIELD: opening file: adxx_theta.0000000000.004.001.data
(PID.TID 0000.0001)  MDS_READ_FIELD: opening file: adxx_theta.0000000000.005.001.data
(PID.TID 0000.0001)  MDS_READ_FIELD: opening file: adxx_theta.0000000000.006.001.data
 ph-check entering grdchk_main 
 ph-check fcref =   101195.264
grad-res -------------------------------
 grad-res  proc    #    i    j    k   bi   bj iobc               fc ref           fc + eps           fc - eps
 grad-res  proc    #    i    j    k   bi   bj iobc             adj grad            fd grad         1 - fd/adj
 ph-grd -->hit<--  1 1 1 1
(PID.TID 0000.0001)  MDS_READ_FIELD: opening file: adxx_theta.0000000000.001.001.data
(PID.TID 0000.0001)  MDS_READ_FIELD: opening file: adxx_theta.0000000000.002.001.data
(PID.TID 0000.0001)  MDS_READ_FIELD: opening file: adxx_theta.0000000000.003.001.data
(PID.TID 0000.0001)  MDS_READ_FIELD: opening file: adxx_theta.0000000000.004.001.data
(PID.TID 0000.0001)  MDS_READ_FIELD: opening file: adxx_theta.0000000000.005.001.data
(PID.TID 0000.0001)  MDS_READ_FIELD: opening file: adxx_theta.0000000000.006.001.data
(PID.TID 0000.0001)  MDS_READ_FIELD: opening file: xx_theta.0000000000.001.001.data
(PID.TID 0000.0001)  MDS_READ_FIELD: opening file: xx_theta.0000000000.002.001.data
(PID.TID 0000.0001)  MDS_READ_FIELD: opening file: xx_theta.0000000000.003.001.data
(PID.TID 0000.0001)  MDS_READ_FIELD: opening file: xx_theta.0000000000.004.001.data
(PID.TID 0000.0001)  MDS_READ_FIELD: opening file: xx_theta.0000000000.005.001.data
(PID.TID 0000.0001)  MDS_READ_FIELD: opening file: xx_theta.0000000000.006.001.data
(PID.TID 0000.0001)  MDS_READ_FIELD: opening global file: bathy_Hmin50.bin
(PID.TID 0000.0001) // =======================================================
(PID.TID 0000.0001) // Field Model R_low (ini_masks_etc) at iteration          1
(PID.TID 0000.0001) // CMIN =         -5.200000000000000E+03
(PID.TID 0000.0001) // CMAX =         -5.000000000000000E+01
(PID.TID 0000.0001) // CINT =          1.907407407407407E+02
(PID.TID 0000.0001) // SYMBOLS (CMIN->CMAX): -abcdefghijklmnopqrstuvwxyz+
(PID.TID 0000.0001) //                  0.0: .
(PID.TID 0000.0001) // RANGE I (Lo:Hi:Step):(    -3:   196:     1)
(PID.TID 0000.0001) // RANGE J (Lo:Hi:Step):(    36:    -3:    -1)
(PID.TID 0000.0001) // RANGE K (Lo:Hi:Step):(   1:   1:   1)
(PID.TID 0000.0001) // =======================================================
(PID.TID 0000.0001) K =   1
(PID.TID 0000.0001) //                I=6       I=16      I=26      I=36      I=38      I=48      I=58      I=68      I=70      I=80      I=90      I=100     I=102     I=112     I=122     I=132     I=134     I=144     I=154     I=164     I=166     I=176     I=186     I=196
(PID.TID 0000.0001) // |--J--|321012345|789012345|789012345|789012345|901234567|901234567|901234567|901234567|123456789|123456789|123456789|123456789|345678901|345678901|345678901|345678901|567890123|567890123|567890123|567890123|789012345|789012345|789012345|789012345|
(PID.TID 0000.0001) //     36 cbbc-ddcbcdehkhhmn..++..................................................okn.skko--a-fc----bba-cp.............tfeecccbbdeecccbbdeddedcdcccdddcddffggghiggfffdeeffijlihjlica---a--cgffel.+edfgeedflcbahgfllcbahgfllfhdffhkfffca-aady...llnabdoa--a
(PID.TID 0000.0001) //     35 dcac--cbbeefjkfefw+..........zpu........................................kqnzrqqk--b-da----bbbbfu..............fdddccaadcddccaadcdddcbbbbcdddcccdffffghgffffddefflligfiljfba---aafddehy...pwvlhfffcbagfccfcbagfcceeffffjlkjgaa---bfvheeln-aesaaab
(PID.TID 0000.0001) //     34 d--ba-abcehjnldcclz+........spps.......................................vkqn+xnnncabbcbba--aabfu+..............hcbaaaaaccbaaaaaccdccbaaabbddddccdffffghfeeeeedeffjiffefilhfcaaaacgceei.......zomggfcaecbbgfcaecbbccddefilihecbaacbaajfega-aesfeed
(PID.TID 0000.0001) //     33 --abbbccceiomkfdbbc+.......+s..........................................xsrxzz+z.fdcddb-----adu+...............hcbaa--accbaa--accddba--bbbddddccdfffhhgfeeddcceddhfeddfgikhfffdfgccffw........zohhgebbaaahgebbaaaaaccdfhlhfefdcccaabjefbaaafoosso
(PID.TID 0000.0001) //     32 --bddefhhkqqlgfaakqz..v.+..+.........................................++..u+....zigfdba----adu+................kdcaaa-acccaaa-accdcb---bbbcdddddefffggfeeedcccccbccbbdcdfgghhiihcbeiw.........+ynjgebaaaajgebaaaa-aacccfikkhecccbbbaaabaadfklnqpp
(PID.TID 0000.0001) //     31 abbcffijnpnqneaaat..umrr+s.z.........................................+++++.ztsvdlifeb--dfdfu+................+lkdca--abcdca--abcccb---bbbbddddeffflhfeeeecbbbbaaba-abbacbcdceffbbfw+..........++ujfbaaa-ujfbaaa----aacffiljgfffcca--adfikkiihhhf
(PID.TID 0000.0001) //     30 --adgillkkkifcadcx.ymmqzqikvnnps.....................................+++++wmegt-jlifcacdlqx+++...............mligea---abgea---abbbb---abaaddddeedkmeddefdbbbaaaabc---b--aaaaabaabm..............+viba---+viba-------acdefinmlgiieb-chnnnmlmlgffc
(PID.TID 0000.0001) //     29 --cfiljigfjd--efdozy...+ximpnnuz......................................+++yqddhp-iljhcbbchz+......++.........+mmhffc----affc----aaba------acdddcbcineddgdbaaa----cdd--a------aa-bfz...............+qe---a.+qe---aa---aedeegknmlgiigcdfhpokkimlfdb
(PID.TID 0000.0001) //     28 -abgkhfcccea-bdei........t............................................++zwgfcfk-gknhccbbhwwy.....+++........+njfeed-----eed-----aa-------abddcabcnfddegcaaa-----hlf------------dk+................+ja---..+ja------bffdddehfd--bedaacfhpnligiihd
(PID.TID 0000.0001) //     27 -acghfbaaaa-achmy......................+.......+++....................++vnbbbclefkpkeeecflmqxy....++........+lhfeecc----eecc------------aaadcbabcfhddccba-------zqd-----------irw.................++e---..++e-----mhmijddda--------ahhfiokhedegg
(PID.TID 0000.0001) //     26 -adhfca-----bfiv.......................+.......++sy...................+tq-fdbblcjknqiheddefhiksz++++........zkhfdccb----dccb------------aabdcaaaacfddbca-------a+xfa-abb-----vvv...................+wa--...+wa---mlmkijhc----------cjjffiheb-aad
(PID.TID 0000.0001) //     25 -achfa------ch+..................w.......w.......njo+................+x-----bcgidiqqojfefiiiijmy.++.........zkhfdbaa----dbaa-------daa---acccaaaacccca--------ac.+udaabbb----tei...................++qde...++qdeqnghiljcaaaaidaa----beedeeca--bb
(PID.TID 0000.0001) //     24 aaeifa--acbcei...................w.......w.......likn+.....++.....++znpa----bbdi-fnlmnjhinlksssw............qhfeca------ca--------addc--aeffaaaaaaccb-a----a--bd.++udbbaba---ven....................++xy....++xywnfgllcbbabegkecba----ddddcaacdc
(PID.TID 0000.0001) //     23 abfida-aabchjk...................zz......zz.....nhhijz....tqq.....+ujgzgd---abci-cegklkkknols..xuu..........zgfdba------ba--------bcd---affaaadffabbb-----aa-bcc.+.+ufb-----l.gx...........s.........++z.....++zzkfilfccccoz..ulkcd---bccnfddddd
(PID.TID 0000.0001) //     22 -afhfaa---bfgi....................zz..rn..zz..rnjffggm...nlmn+....+sffzya--aabcieaaffdfhimrmp...yuu.++.......zudba------ba--------adc---dda-adffe-aa--------aaac....+ufc-baaqvhh..........dcfeeh......++......++zggqvifefhz......zobbaccfwuffeee
(PID.TID 0000.0001) //     21 babcgca----abe.....................ysstl...ysstlgeeeeoz..ijklt+....lfjzzf---adfcfdaadcehllotq....yy+++zzs.....+zcba-----cba-------cdd--aaa----df------------aaac.....+upjdcy.vohq.......+idcdfeeefwz....efwz....+hhn.vklox.........gdccfjwrigffh
(PID.TID 0000.0001) //     20 fbbbcgfcaa-aae+.......................lc......lcgfdddhq.+hiilnz++.+oquxyz--adgkfdcaabcfmtooyxz......+yuiiy....++gb------gb--------ddcca-a-----acbaa------bbaaaab........ywxy.lulo.lv...kcdgddffefffilyx+fffilyx+fffk.+xyyy.........mgeimvskjklll
(PID.TID 0000.0001) //     19 zmfeccdghfeegcbt......................aa......aafifccgnrzgghjry.+++sr+lq.--edfkkoxtkblwnnsp.vv......skhggt...+++t-------t---------bdaf---------edd-------adlaaaa+..........vnhzy.tllqiedccdhggfggffiiggfgffiiggfcbdgy..yz..........xigqophijkkii
(PID.TID 0000.0001) //     18 ..wifedfkhfegbbcivlqfoz..............jaa.....jaacfihggokeeffgt..++++..hhlfdeddkez..qcz+.zwxtsttz..ysrkhot++++++zig------ig--------b--f---------egqqqaa----frb---+........+kkrhw.vqmlnieddcdehgggffgigedbffgigedbaaceiy.............zilrddefikkhh
(PID.TID 0000.0001) //     17 ..+wfeefikhgcbbccaaacgn.............icaa....icaaccfihfoedddeedy..++...nnqwgfeekeyy.z++..+zsjjllllljllpjos+++.+zhhi-----ehi-----e-----ea--------foqqoqqo--hlwgea-.........+nk+..xiioonhfefddegihhghigfdbaghigfdbaaabdgx..............nheddefiklhg
(PID.TID 0000.0001) //     16 ....wiheddeccdfhfbabdfl............jdbad...jdbaddddgifkccccdccd+.++..++ynvz.tkkq.mu....++zyslllllkhggkmpy++...ihhi-----ehi-----ea---feb-----a-acnoohfghknvmwnuca..........qhu..hhhkojgffgeefghihhiieedbahiieedbaaabcdy..............ygddeghiljgf
(PID.TID 0000.0001) //     15 ......ylea--acfihebcbbes..........sfcbbn..sfcbbngfffigcaaabdbcac+.+++++zgmpx...y.mm....++..zslwz.yhhhhnz+++...rhgc----abgc----ab----ige----acaaalllkddfiy..yswxb..........thk.xgghiligfghfefhhhhiiheedcdiiheedcdbbabdmz.............zfdeghikkifd
(PID.TID 0000.0001) //     14 ........c---acgkhdcc--di..........ofddch..ofddchohffikaaaaabaaa-aw+.+ysnggox++...qrv..........yzzzzrjil+++....qhgd-----agd-----a-----i---cccdeabkklldinqssy..xxv...........+y.uhghikihgfghefgihhhgeeeeedhgeeeeeddbaadhw.............nedeghjjhfed
(PID.TID 0000.0001) //     13 .......+b----cfkhec---afz.........nhfdff..nhfdffholghkaaaaaba-a---flkkuswyy++++y+zr...........zzzzz++ry++......yd-------d--------------aeecdeidfkkqnqlmqquukqqmf..............iihiijjhfefgefhjihiffgggffiffgggffecaabelx...........zjecehijhfecc
(PID.TID 0000.0001) //     12 .......ec----chjhec---ag..........skiqdd..skiqddeiiiifaaabae--a---dd--iu+++.+++sxq++..........+z+++++.+++....++.s-------s------------a-ceccdejhlllkqlkklssiccdee.............wjkkkjjjigeefffgjiiighiiihhighiiihhhdaabdffghtxx......mfccehjiffdb-
(PID.TID 0000.0001) //     11 ......pdca--achlheba--ai..........nkn.fd..nkn.fdemijidaaaabi-------a--q+....++.ziis...........+++++..........+yyza----b-za----b-----a--ccccddkhieekkossssfbbbbcd............njjijhhihijhgggggjjjjijkkkkjjijkkkkjjhcaacddeegpy.....xfdccdhjgfdda-
(PID.TID 0000.0001) //     10 ......wfdb--achlhea---an.........uos..dc.uos..dcemikkfdcaabi-------equ+.........mk...........................zyvuq----ccuq----cc----a---dcfhkopqjeissrnpfbbcccde..........zslihhigghgijjihhhhkllkkkkkkjkkkkkkkjkkkedccdeeeeipz..zwhccbcdhgfddcam
(PID.TID 0000.0001) //      9 ......vgec---bfikca--cjl+.......+nnv.+cc+nnv.+ccffhkkiddaadha-----as++..........pvz++........................zxuuk------uk------a---a----djmqrrnlllsoiddcccccdjf.........+zjijhfgfggffhjkkkiillljihhghgijihhghgihighdeeffgghimnnjgecbbcdgfeccbas
(PID.TID 0000.0001) //      8 .....zleca---afjfca--hdfz.......vkky.jcevkky.jceddefijffdddhb--a-afv............nn..ss.........................+yku-----yku--------------ejnpqqnninnritqdccchkmf+.......wihgghgeffffeefhijkjkljiigeeffefigeeffefffhjhhikkklljklmhffeeeggfdcbaay.
(PID.TID 0000.0001) //      7 ...+zohec--abcfkhecbchbdx.......qiht.faaqiht.faaaabdgijgfededcdcb-f+............nn...pz.........................+zu-----+zu--------------edefqgqddsz+......+yuddmm+....tiggfggfeeeefeeefiiiijkiihhedddddhheddddddddjjllliijhfkmmkkjjhijgdcba--q.
(PID.TID 0000.0001) //      6 ..+yomfddcaabefkifdchaadt......uqdeisc--qdeisc----dfefgifffkklldc--v............up...pp.........................v.x-----v.x---------a----fbbpqgzenx+........zdbcmllkhhfffffffgfeeeeeeeefhhhhijihhffddcbbhffddcbbbbdhhiihedddb-cfhhhjjjieca----+.
(PID.TID 0000.0001) //      5 ..+nhgffkghccfhkhffgdaackz....uoibcimlaaibcimlaaacfbddfjjhijeehf-a-c............zs...su.........................qk.yi---qk.yi-------gha-fjddqs+xkrz.........q-bchikdccdeeeeeeedddedddddgghhhhjhhgffcbbaagffcbbaaaaddfegecca----dfeefhfgdb-----+.
(PID.TID 0000.0001) //      4 .+ujhgfllfhdffhkfffca-aady...llnabdopfcbabdopfcbdgdbcdehlihgfddc--ms............................................okn.zd--okn.zd---eciiiicfkeeqy.ysz..........n-aafgdcbbdeddedcdcccdddcddffggghiggfffdbaa-fffdbaa---acdcccba--abvfedeffdcca----b+.
(PID.TID 0000.0001) //      3 +vjggfcceeffffjlkjgaa---bfvheeln-aesphfd-aesphfdhgabddeflihhgfecbaaayq+++++.....................................kqnz.vtpkqnz.vtpkllgdccfkkkkk..++..........+g---fecaaadcdddcbbbbcdddcccdffffghgffffdcaa-fffdcaa----abcaaaa-acxxmecdjmdbba----r+.
(PID.TID 0000.0001) //      2 qifeecbbccddefilihecbaacbaajfega-aesqhff-aesqhffiea-cdeflkkljifeddcba---bry+...................................vkqn+.sghkqn+.sghfcbcbbbdgfdek.++++.........+l---caaaaaccdccbaaabbddddccdffffghfeeeeecba-eeeecba------baaaa-euwxqdbcdkud-----sy+.
(PID.TID 0000.0001) //      1 ebbbbaaaaaccdfhlhfefdcccaabjefbaaafonhglaafonhglid--adfgkkkklkhffddca-----s++++................................xsrxz.tedsrxz.tedcbbbbaaadddet.++++.........+l------a-accddba--bbbddddccdfffhhgfeeddccba-eddccba-------aaaabgns.qcbcchyzqngll++..
(PID.TID 0000.0001) //      0 -aaaaaaa-aacccfikkhecccbbbaaabaadfkllilmdfkllilmgebaadfijjiiikjhffdcba-----lllgn.............................++..u+..zmd.u+..zmdfbd---a-aeef.xx+..........+++s-------accdcb---bbbcdddddefffggfeeedcccbbaedcccbba----aa--alrwwy.kcbccc+...++++...
(PID.TID 0000.0001) //     -1 --aaaaa----aacffiljgfffcca--adfikkiikimikkiikimiiheccfurkiffhijjigfecb-----l----.............................+++++.z+.wq++.z+.wqgbf-------dgzpoy+........+ys+yrb--aa-abcccb---bbbbddddeffflhfeeeecbbcbbaecbbcbbaa----a--bdflm.yuibbcc.......+...
(PID.TID 0000.0001) //     -2 --aaa-------acdefinmlgiieb-chnnnmlmlfklkmlmlfklklkhednwwsheeghhijjgfdca----g---a.............................+++++wmu++y++wmu++ywn--------fwvmgy+........+r-.+++-abc--abbbb---abaaddddeedkmeddefdbbbdcbadbbbdcbaa-------ba-hv.susfbcc.......+...
(PID.TID 0000.0001) //     -3 a--a---aa---aedeegknmlgiigcdfhpokkimdkmkkkimdkmknoiedcfjvpddegghhhhgfdcbaa-n---a..............................+++yqd.++++yqd.+++zvq--dafz.lqnggw+........+b-....abcc---aaba------acdddcbcineddgdbaaaeedbbaaaeedbaa----------nysqssfcd...........
(PID.TID 0000.0001) // =======================================================
(PID.TID 0000.0001) // END OF FIELD                                          =
(PID.TID 0000.0001) // =======================================================
(PID.TID 0000.0001) 
(PID.TID 0000.0001) // =======================================================
(PID.TID 0000.0001) // Field Model Ro_surf (ini_masks_etc) at iteration          1
(PID.TID 0000.0001) // CMIN =         -7.105427357601002E-15
(PID.TID 0000.0001) // CMAX =         -7.105427357601002E-15
(PID.TID 0000.0001) // CINT =          0.000000000000000E+00
(PID.TID 0000.0001) // SYMBOLS (CMIN->CMAX): -abcdefghijklmnopqrstuvwxyz+
(PID.TID 0000.0001) //                  0.0: .
(PID.TID 0000.0001) // RANGE I (Lo:Hi:Step):(    -3:   196:     1)
(PID.TID 0000.0001) // RANGE J (Lo:Hi:Step):(    36:    -3:    -1)
(PID.TID 0000.0001) // RANGE K (Lo:Hi:Step):(   1:   1:   1)
(PID.TID 0000.0001) // =======================================================
(PID.TID 0000.0001) // =======================================================
(PID.TID 0000.0001) // END OF FIELD                                          =
(PID.TID 0000.0001) // =======================================================
(PID.TID 0000.0001) 
(PID.TID 0000.0001) // =======================================================
(PID.TID 0000.0001) // Field hFacC at iteration          1
(PID.TID 0000.0001) // CMIN =          1.000000000000000E+00
(PID.TID 0000.0001) // CMAX =          1.000000000000000E+00
(PID.TID 0000.0001) // CINT =          0.000000000000000E+00
(PID.TID 0000.0001) // SYMBOLS (CMIN->CMAX): -abcdefghijklmnopqrstuvwxyz+
(PID.TID 0000.0001) //                  0.0: .
(PID.TID 0000.0001) // RANGE I (Lo:Hi:Step):(    -3:   196:     1)
(PID.TID 0000.0001) // RANGE J (Lo:Hi:Step):(    36:    -3:    -1)
(PID.TID 0000.0001) // RANGE K (Lo:Hi:Step):(   1:   1:   1)
(PID.TID 0000.0001) // =======================================================
(PID.TID 0000.0001) // =======================================================
(PID.TID 0000.0001) // END OF FIELD                                          =
(PID.TID 0000.0001) // =======================================================
(PID.TID 0000.0001) 
(PID.TID 0000.0001) // =======================================================
(PID.TID 0000.0001) // Field hFacW at iteration          1
(PID.TID 0000.0001) // CMIN =          1.000000000000000E+00
(PID.TID 0000.0001) // CMAX =          1.000000000000000E+00
(PID.TID 0000.0001) // CINT =          0.000000000000000E+00
(PID.TID 0000.0001) // SYMBOLS (CMIN->CMAX): -abcdefghijklmnopqrstuvwxyz+
(PID.TID 0000.0001) //                  0.0: .
(PID.TID 0000.0001) // RANGE I (Lo:Hi:Step):(    -3:   196:     1)
(PID.TID 0000.0001) // RANGE J (Lo:Hi:Step):(    36:    -3:    -1)
(PID.TID 0000.0001) // RANGE K (Lo:Hi:Step):(   1:   1:   1)
(PID.TID 0000.0001) // =======================================================
(PID.TID 0000.0001) // =======================================================
(PID.TID 0000.0001) // END OF FIELD                                          =
(PID.TID 0000.0001) // =======================================================
(PID.TID 0000.0001) 
(PID.TID 0000.0001) // =======================================================
(PID.TID 0000.0001) // Field hFacS at iteration          1
(PID.TID 0000.0001) // CMIN =          1.000000000000000E+00
(PID.TID 0000.0001) // CMAX =          1.000000000000000E+00
(PID.TID 0000.0001) // CINT =          0.000000000000000E+00
(PID.TID 0000.0001) // SYMBOLS (CMIN->CMAX): -abcdefghijklmnopqrstuvwxyz+
(PID.TID 0000.0001) //                  0.0: .
(PID.TID 0000.0001) // RANGE I (Lo:Hi:Step):(    -3:   196:     1)
(PID.TID 0000.0001) // RANGE J (Lo:Hi:Step):(    36:    -3:    -1)
(PID.TID 0000.0001) // RANGE K (Lo:Hi:Step):(   1:   1:   1)
(PID.TID 0000.0001) // =======================================================
(PID.TID 0000.0001) // =======================================================
(PID.TID 0000.0001) // END OF FIELD                                          =
(PID.TID 0000.0001) // =======================================================
(PID.TID 0000.0001) 
(PID.TID 0000.0001) INI_CG2D: CG2D normalisation factor =  1.9156564154949553E-04
(PID.TID 0000.0001) INI_CG2D: cg2dTolerance = 5.809016360175293E-07 (Area=3.6388673751E+14)
(PID.TID 0000.0001) 
(PID.TID 0000.0001)  MDS_READ_META: opening file: pickup.0000072000.meta
(PID.TID 0000.0001)  nRecords = 123 ; filePrec =  64 ; fileIter =     72000
(PID.TID 0000.0001)     nDims =   2 , dims:
(PID.TID 0000.0001)    1: 192   1 192
(PID.TID 0000.0001)    2:  32   1  32
(PID.TID 0000.0001)     nFlds =  11 , nFl3D =   8 , fields:
(PID.TID 0000.0001)  >Uvel    < >GuNm1   < >Vvel    < >GvNm1   < >Theta   < >GtNm1   < >Salt    < >GsNm1   < >EtaN    < >dEtaHdt < >EtaH    <
(PID.TID 0000.0001)   nTimRec =   0 , timeList:
(PID.TID 0000.0001) READ_MFLDS_3D_RL: read field: "Uvel    ", #   1 in fldList, rec=   1
(PID.TID 0000.0001)  MDS_READ_FIELD: opening global file: pickup.0000072000
(PID.TID 0000.0001) READ_MFLDS_3D_RL: read field: "Vvel    ", #   3 in fldList, rec=   3
(PID.TID 0000.0001)  MDS_READ_FIELD: opening global file: pickup.0000072000
(PID.TID 0000.0001) READ_MFLDS_3D_RL: read field: "Theta   ", #   5 in fldList, rec=   5
(PID.TID 0000.0001)  MDS_READ_FIELD: opening global file: pickup.0000072000
(PID.TID 0000.0001) READ_MFLDS_3D_RL: read field: "Salt    ", #   7 in fldList, rec=   7
(PID.TID 0000.0001)  MDS_READ_FIELD: opening global file: pickup.0000072000
(PID.TID 0000.0001) READ_MFLDS_3D_RL: read field: "GuNm1   ", #   2 in fldList, rec=   2
(PID.TID 0000.0001)  MDS_READ_FIELD: opening global file: pickup.0000072000
(PID.TID 0000.0001) READ_MFLDS_3D_RL: field: "GuNm2   " missing in file: pickup.0000072000
(PID.TID 0000.0001) READ_MFLDS_3D_RL: read field: "GvNm1   ", #   4 in fldList, rec=   4
(PID.TID 0000.0001)  MDS_READ_FIELD: opening global file: pickup.0000072000
(PID.TID 0000.0001) READ_MFLDS_3D_RL: field: "GvNm2   " missing in file: pickup.0000072000
(PID.TID 0000.0001) READ_MFLDS_3D_RL: read field: "EtaN    ", #   9 in fldList, rec= 121
(PID.TID 0000.0001)  MDS_READ_FIELD: opening global file: pickup.0000072000
(PID.TID 0000.0001) READ_MFLDS_3D_RL: read field: "dEtaHdt ", #  10 in fldList, rec= 122
(PID.TID 0000.0001)  MDS_READ_FIELD: opening global file: pickup.0000072000
(PID.TID 0000.0001) READ_MFLDS_3D_RL: read field: "EtaH    ", #  11 in fldList, rec= 123
(PID.TID 0000.0001)  MDS_READ_FIELD: opening global file: pickup.0000072000
(PID.TID 0000.0001)  MDS_READ_FIELD: opening global file: trenberth_taux.bin
(PID.TID 0000.0001)  MDS_READ_FIELD: opening global file: trenberth_tauy.bin
(PID.TID 0000.0001)  MDS_READ_FIELD: opening global file: shiQnet_cs32.bin
(PID.TID 0000.0001)  MDS_READ_FIELD: opening global file: shiEmPR_cs32.bin
(PID.TID 0000.0001)  MDS_READ_FIELD: opening global file: lev_surfT_cs_12m.bin
(PID.TID 0000.0001)  MDS_READ_FIELD: opening global file: lev_surfS_cs_12m.bin
(PID.TID 0000.0001)  MDS_READ_FIELD: opening file: xx_theta.0000000000.001.001.data
(PID.TID 0000.0001)  MDS_READ_FIELD: opening file: xx_theta.0000000000.002.001.data
(PID.TID 0000.0001)  MDS_READ_FIELD: opening file: xx_theta.0000000000.003.001.data
(PID.TID 0000.0001)  MDS_READ_FIELD: opening file: xx_theta.0000000000.004.001.data
(PID.TID 0000.0001)  MDS_READ_FIELD: opening file: xx_theta.0000000000.005.001.data
(PID.TID 0000.0001)  MDS_READ_FIELD: opening file: xx_theta.0000000000.006.001.data
(PID.TID 0000.0001)  MDS_READ_FIELD: opening file: xx_salt.0000000000.001.001.data
(PID.TID 0000.0001)  MDS_READ_FIELD: opening file: xx_salt.0000000000.002.001.data
(PID.TID 0000.0001)  MDS_READ_FIELD: opening file: xx_salt.0000000000.003.001.data
(PID.TID 0000.0001)  MDS_READ_FIELD: opening file: xx_salt.0000000000.004.001.data
(PID.TID 0000.0001)  MDS_READ_FIELD: opening file: xx_salt.0000000000.005.001.data
(PID.TID 0000.0001)  MDS_READ_FIELD: opening file: xx_salt.0000000000.006.001.data
(PID.TID 0000.0001)  MDS_READ_FIELD: opening file: xx_diffkr.0000000000.001.001.data
(PID.TID 0000.0001)  MDS_READ_FIELD: opening file: xx_diffkr.0000000000.002.001.data
(PID.TID 0000.0001)  MDS_READ_FIELD: opening file: xx_diffkr.0000000000.003.001.data
(PID.TID 0000.0001)  MDS_READ_FIELD: opening file: xx_diffkr.0000000000.004.001.data
(PID.TID 0000.0001)  MDS_READ_FIELD: opening file: xx_diffkr.0000000000.005.001.data
(PID.TID 0000.0001)  MDS_READ_FIELD: opening file: xx_diffkr.0000000000.006.001.data
(PID.TID 0000.0001) // =======================================================
(PID.TID 0000.0001) // Model current state
(PID.TID 0000.0001) // =======================================================
(PID.TID 0000.0001) 
S/R EXTERNAL_FIELDS_LOAD: Reading new data:   12    1     72000  6.220800000000E+09
(PID.TID 0000.0001)  MDS_READ_FIELD: opening global file: trenberth_taux.bin
(PID.TID 0000.0001)  MDS_READ_FIELD: opening global file: trenberth_taux.bin
(PID.TID 0000.0001)  MDS_READ_FIELD: opening global file: trenberth_tauy.bin
(PID.TID 0000.0001)  MDS_READ_FIELD: opening global file: trenberth_tauy.bin
(PID.TID 0000.0001)  MDS_READ_FIELD: opening global file: shiQnet_cs32.bin
(PID.TID 0000.0001)  MDS_READ_FIELD: opening global file: shiQnet_cs32.bin
(PID.TID 0000.0001)  MDS_READ_FIELD: opening global file: shiEmPR_cs32.bin
(PID.TID 0000.0001)  MDS_READ_FIELD: opening global file: shiEmPR_cs32.bin
(PID.TID 0000.0001)  MDS_READ_FIELD: opening global file: lev_surfT_cs_12m.bin
(PID.TID 0000.0001)  MDS_READ_FIELD: opening global file: lev_surfT_cs_12m.bin
(PID.TID 0000.0001)  MDS_READ_FIELD: opening global file: lev_surfS_cs_12m.bin
(PID.TID 0000.0001)  MDS_READ_FIELD: opening global file: lev_surfS_cs_12m.bin
(PID.TID 0000.0001)  MDS_READ_FIELD: opening file: xx_tauu.0000000000.001.001.data
(PID.TID 0000.0001)  MDS_READ_FIELD: opening file: xx_tauu.0000000000.002.001.data
(PID.TID 0000.0001)  MDS_READ_FIELD: opening file: xx_tauu.0000000000.003.001.data
(PID.TID 0000.0001)  MDS_READ_FIELD: opening file: xx_tauu.0000000000.004.001.data
(PID.TID 0000.0001)  MDS_READ_FIELD: opening file: xx_tauu.0000000000.005.001.data
(PID.TID 0000.0001)  MDS_READ_FIELD: opening file: xx_tauu.0000000000.006.001.data
(PID.TID 0000.0001)  MDS_READ_FIELD: opening file: xx_tauv.0000000000.001.001.data
(PID.TID 0000.0001)  MDS_READ_FIELD: opening file: xx_tauv.0000000000.002.001.data
(PID.TID 0000.0001)  MDS_READ_FIELD: opening file: xx_tauv.0000000000.003.001.data
(PID.TID 0000.0001)  MDS_READ_FIELD: opening file: xx_tauv.0000000000.004.001.data
(PID.TID 0000.0001)  MDS_READ_FIELD: opening file: xx_tauv.0000000000.005.001.data
(PID.TID 0000.0001)  MDS_READ_FIELD: opening file: xx_tauv.0000000000.006.001.data
(PID.TID 0000.0001)  MDS_READ_FIELD: opening file: xx_sfl.0000000000.001.001.data
(PID.TID 0000.0001)  MDS_READ_FIELD: opening file: xx_sfl.0000000000.002.001.data
(PID.TID 0000.0001)  MDS_READ_FIELD: opening file: xx_sfl.0000000000.003.001.data
(PID.TID 0000.0001)  MDS_READ_FIELD: opening file: xx_sfl.0000000000.004.001.data
(PID.TID 0000.0001)  MDS_READ_FIELD: opening file: xx_sfl.0000000000.005.001.data
(PID.TID 0000.0001)  MDS_READ_FIELD: opening file: xx_sfl.0000000000.006.001.data
(PID.TID 0000.0001)  MDS_READ_FIELD: opening file: xx_hfl.0000000000.001.001.data
(PID.TID 0000.0001)  MDS_READ_FIELD: opening file: xx_hfl.0000000000.002.001.data
(PID.TID 0000.0001)  MDS_READ_FIELD: opening file: xx_hfl.0000000000.003.001.data
(PID.TID 0000.0001)  MDS_READ_FIELD: opening file: xx_hfl.0000000000.004.001.data
(PID.TID 0000.0001)  MDS_READ_FIELD: opening file: xx_hfl.0000000000.005.001.data
(PID.TID 0000.0001)  MDS_READ_FIELD: opening file: xx_hfl.0000000000.006.001.data
(PID.TID 0000.0001) SOLVE_FOR_PRESSURE: putPmEinXvector =    F
 cg2d: Sum(rhs),rhsMax =  -9.74864633462857E-12  4.27829651258201E+00
 cg2d: Sum(rhs),rhsMax =  -1.01465502666542E-11  4.27316012256810E+00
 cg2d: Sum(rhs),rhsMax =  -9.83391146291979E-12  4.26762372395098E+00
 cg2d: Sum(rhs),rhsMax =  -9.86233317235019E-12  4.26250700340196E+00
 cg2d: Sum(rhs),rhsMax =  -9.69180291576777E-12  4.25770388608221E+00
 cg2d: Sum(rhs),rhsMax =  -9.46442924032453E-12  4.25319684906634E+00
 cg2d: Sum(rhs),rhsMax =  -9.29389898374211E-12  4.24900187864618E+00
 cg2d: Sum(rhs),rhsMax =  -9.52127265918534E-12  4.24513385260525E+00
 cg2d: Sum(rhs),rhsMax =  -9.60653778747655E-12  4.24159888060057E+00
 cg2d: Sum(rhs),rhsMax =  -9.74864633462857E-12  4.23840118430569E+00
 cg2d: Sum(rhs),rhsMax =  -9.49285094975494E-12  4.23553910915882E+00
 cg2d: Sum(rhs),rhsMax =  -9.86233317235019E-12  4.23300290201869E+00
 cg2d: Sum(rhs),rhsMax =  -1.00044417195022E-11  4.23077337686500E+00
 cg2d: Sum(rhs),rhsMax =  -9.57811607804615E-12  4.22882245885750E+00
 cg2d: Sum(rhs),rhsMax =  -9.43600753089413E-12  4.22711470135583E+00
S/R EXTERNAL_FIELDS_LOAD: Reading new data:    1    2     72015  6.222096000000E+09
(PID.TID 0000.0001)  MDS_READ_FIELD: opening global file: trenberth_taux.bin
(PID.TID 0000.0001)  MDS_READ_FIELD: opening global file: trenberth_taux.bin
(PID.TID 0000.0001)  MDS_READ_FIELD: opening global file: trenberth_tauy.bin
(PID.TID 0000.0001)  MDS_READ_FIELD: opening global file: trenberth_tauy.bin
(PID.TID 0000.0001)  MDS_READ_FIELD: opening global file: shiQnet_cs32.bin
(PID.TID 0000.0001)  MDS_READ_FIELD: opening global file: shiQnet_cs32.bin
(PID.TID 0000.0001)  MDS_READ_FIELD: opening global file: shiEmPR_cs32.bin
(PID.TID 0000.0001)  MDS_READ_FIELD: opening global file: shiEmPR_cs32.bin
(PID.TID 0000.0001)  MDS_READ_FIELD: opening global file: lev_surfT_cs_12m.bin
(PID.TID 0000.0001)  MDS_READ_FIELD: opening global file: lev_surfT_cs_12m.bin
(PID.TID 0000.0001)  MDS_READ_FIELD: opening global file: lev_surfS_cs_12m.bin
(PID.TID 0000.0001)  MDS_READ_FIELD: opening global file: lev_surfS_cs_12m.bin
 cg2d: Sum(rhs),rhsMax =  -9.12336872715969E-12  4.22560897397007E+00
 cg2d: Sum(rhs),rhsMax =  -9.37916411203332E-12  4.22414668726111E+00
 cg2d: Sum(rhs),rhsMax =  -9.49285094975494E-12  4.22297627026518E+00
 cg2d: Sum(rhs),rhsMax =  -1.02602371043758E-11  4.22179769164973E+00
 cg2d: Sum(rhs),rhsMax =  -9.97602001007181E-12  4.22066224628126E+00
(PID.TID 0000.0001) Did not write pickup because writePickupAtEnd = FALSE
(PID.TID 0000.0001)  MDS_READ_FIELD: opening global file: lev_T_cs_15k.bin
 --> objf_test(bi,bj)   =  0.213716662682226E+05
 --> objf_tracer(bi,bj) =  0.000000000000000E+00
 --> objf_atl(bi,bj)    =  0.000000000000000E+00
 --> objf_test(bi,bj)   =  0.114870711258919E+05
 --> objf_tracer(bi,bj) =  0.000000000000000E+00
 --> objf_atl(bi,bj)    =  0.000000000000000E+00
 --> objf_test(bi,bj)   =  0.181705170177179E+05
 --> objf_tracer(bi,bj) =  0.000000000000000E+00
 --> objf_atl(bi,bj)    =  0.000000000000000E+00
 --> objf_test(bi,bj)   =  0.231600599827831E+05
 --> objf_tracer(bi,bj) =  0.000000000000000E+00
 --> objf_atl(bi,bj)    =  0.000000000000000E+00
 --> objf_test(bi,bj)   =  0.145354741066864E+05
 --> objf_tracer(bi,bj) =  0.000000000000000E+00
 --> objf_atl(bi,bj)    =  0.000000000000000E+00
 --> objf_test(bi,bj)   =  0.124705081748033E+05
 --> objf_tracer(bi,bj) =  0.000000000000000E+00
 --> objf_atl(bi,bj)    =  0.000000000000000E+00
  local fc =  0.101195296676105E+06
 global fc =  0.101195296676105E+06
 ph-check fcpertplus =   101195.297
(PID.TID 0000.0001)  MDS_READ_FIELD: opening file: xx_theta.0000000000.001.001.data
(PID.TID 0000.0001)  MDS_READ_FIELD: opening file: xx_theta.0000000000.002.001.data
(PID.TID 0000.0001)  MDS_READ_FIELD: opening file: xx_theta.0000000000.003.001.data
(PID.TID 0000.0001)  MDS_READ_FIELD: opening file: xx_theta.0000000000.004.001.data
(PID.TID 0000.0001)  MDS_READ_FIELD: opening file: xx_theta.0000000000.005.001.data
(PID.TID 0000.0001)  MDS_READ_FIELD: opening file: xx_theta.0000000000.006.001.data
 ph-check fcpertminus =   101195.264
(PID.TID 0000.0001)  MDS_READ_FIELD: opening file: xx_theta.0000000000.001.001.data
(PID.TID 0000.0001)  MDS_READ_FIELD: opening file: xx_theta.0000000000.002.001.data
(PID.TID 0000.0001)  MDS_READ_FIELD: opening file: xx_theta.0000000000.003.001.data
(PID.TID 0000.0001)  MDS_READ_FIELD: opening file: xx_theta.0000000000.004.001.data
(PID.TID 0000.0001)  MDS_READ_FIELD: opening file: xx_theta.0000000000.005.001.data
(PID.TID 0000.0001)  MDS_READ_FIELD: opening file: xx_theta.0000000000.006.001.data
(PID.TID 0000.0001)  MDS_READ_FIELD: opening global file: bathy_Hmin50.bin
(PID.TID 0000.0001) // =======================================================
(PID.TID 0000.0001) // Field Model R_low (ini_masks_etc) at iteration          1
(PID.TID 0000.0001) // CMIN =         -5.200000000000000E+03
(PID.TID 0000.0001) // CMAX =         -5.000000000000000E+01
(PID.TID 0000.0001) // CINT =          1.907407407407407E+02
(PID.TID 0000.0001) // SYMBOLS (CMIN->CMAX): -abcdefghijklmnopqrstuvwxyz+
(PID.TID 0000.0001) //                  0.0: .
(PID.TID 0000.0001) // RANGE I (Lo:Hi:Step):(    -3:   196:     1)
(PID.TID 0000.0001) // RANGE J (Lo:Hi:Step):(    36:    -3:    -1)
(PID.TID 0000.0001) // RANGE K (Lo:Hi:Step):(   1:   1:   1)
(PID.TID 0000.0001) // =======================================================
(PID.TID 0000.0001) K =   1
(PID.TID 0000.0001) //                I=6       I=16      I=26      I=36      I=38      I=48      I=58      I=68      I=70      I=80      I=90      I=100     I=102     I=112     I=122     I=132     I=134     I=144     I=154     I=164     I=166     I=176     I=186     I=196
(PID.TID 0000.0001) // |--J--|321012345|789012345|789012345|789012345|901234567|901234567|901234567|901234567|123456789|123456789|123456789|123456789|345678901|345678901|345678901|345678901|567890123|567890123|567890123|567890123|789012345|789012345|789012345|789012345|
(PID.TID 0000.0001) //     36 cbbc-ddcbcdehkhhmn..++..................................................okn.skko--a-fc----bba-cp.............tfeecccbbdeecccbbdeddedcdcccdddcddffggghiggfffdeeffijlihjlica---a--cgffel.+edfgeedflcbahgfllcbahgfllfhdffhkfffca-aady...llnabdoa--a
(PID.TID 0000.0001) //     35 dcac--cbbeefjkfefw+..........zpu........................................kqnzrqqk--b-da----bbbbfu..............fdddccaadcddccaadcdddcbbbbcdddcccdffffghgffffddefflligfiljfba---aafddehy...pwvlhfffcbagfccfcbagfcceeffffjlkjgaa---bfvheeln-aesaaab
(PID.TID 0000.0001) //     34 d--ba-abcehjnldcclz+........spps.......................................vkqn+xnnncabbcbba--aabfu+..............hcbaaaaaccbaaaaaccdccbaaabbddddccdffffghfeeeeedeffjiffefilhfcaaaacgceei.......zomggfcaecbbgfcaecbbccddefilihecbaacbaajfega-aesfeed
(PID.TID 0000.0001) //     33 --abbbccceiomkfdbbc+.......+s..........................................xsrxzz+z.fdcddb-----adu+...............hcbaa--accbaa--accddba--bbbddddccdfffhhgfeeddcceddhfeddfgikhfffdfgccffw........zohhgebbaaahgebbaaaaaccdfhlhfefdcccaabjefbaaafoosso
(PID.TID 0000.0001) //     32 --bddefhhkqqlgfaakqz..v.+..+.........................................++..u+....zigfdba----adu+................kdcaaa-acccaaa-accdcb---bbbcdddddefffggfeeedcccccbccbbdcdfgghhiihcbeiw.........+ynjgebaaaajgebaaaa-aacccfikkhecccbbbaaabaadfklnqpp
(PID.TID 0000.0001) //     31 abbcffijnpnqneaaat..umrr+s.z.........................................+++++.ztsvdlifeb--dfdfu+................+lkdca--abcdca--abcccb---bbbbddddeffflhfeeeecbbbbaaba-abbacbcdceffbbfw+..........++ujfbaaa-ujfbaaa----aacffiljgfffcca--adfikkiihhhf
(PID.TID 0000.0001) //     30 --adgillkkkifcadcx.ymmqzqikvnnps.....................................+++++wmegt-jlifcacdlqx+++...............mligea---abgea---abbbb---abaaddddeedkmeddefdbbbaaaabc---b--aaaaabaabm..............+viba---+viba-------acdefinmlgiieb-chnnnmlmlgffc
(PID.TID 0000.0001) //     29 --cfiljigfjd--efdozy...+ximpnnuz......................................+++yqddhp-iljhcbbchz+......++.........+mmhffc----affc----aaba------acdddcbcineddgdbaaa----cdd--a------aa-bfz...............+qe---a.+qe---aa---aedeegknmlgiigcdfhpokkimlfdb
(PID.TID 0000.0001) //     28 -abgkhfcccea-bdei........t............................................++zwgfcfk-gknhccbbhwwy.....+++........+njfeed-----eed-----aa-------abddcabcnfddegcaaa-----hlf------------dk+................+ja---..+ja------bffdddehfd--bedaacfhpnligiihd
(PID.TID 0000.0001) //     27 -acghfbaaaa-achmy......................+.......+++....................++vnbbbclefkpkeeecflmqxy....++........+lhfeecc----eecc------------aaadcbabcfhddccba-------zqd-----------irw.................++e---..++e-----mhmijddda--------ahhfiokhedegg
(PID.TID 0000.0001) //     26 -adhfca-----bfiv.......................+.......++sy...................+tq-fdbblcjknqiheddefhiksz++++........zkhfdccb----dccb------------aabdcaaaacfddbca-------a+xfa-abb-----vvv...................+wa--...+wa---mlmkijhc----------cjjffiheb-aad
(PID.TID 0000.0001) //     25 -achfa------ch+..................w.......w.......njo+................+x-----bcgidiqqojfefiiiijmy.++.........zkhfdbaa----dbaa-------daa---acccaaaacccca--------ac.+udaabbb----tei...................++qde...++qdeqnghiljcaaaaidaa----beedeeca--bb
(PID.TID 0000.0001) //     24 aaeifa--acbcei...................w.......w.......likn+.....++.....++znpa----bbdi-fnlmnjhinlksssw............qhfeca------ca--------addc--aeffaaaaaaccb-a----a--bd.++udbbaba---ven....................++xy....++xywnfgllcbbabegkecba----ddddcaacdc
(PID.TID 0000.0001) //     23 abfida-aabchjk...................zz......zz.....nhhijz....tqq.....+ujgzgd---abci-cegklkkknols..xuu..........zgfdba------ba--------bcd---affaaadffabbb-----aa-bcc.+.+ufb-----l.gx...........s.........++z.....++zzkfilfccccoz..ulkcd---bccnfddddd
(PID.TID 0000.0001) //     22 -afhfaa---bfgi....................zz..rn..zz..rnjffggm...nlmn+....+sffzya--aabcieaaffdfhimrmp...yuu.++.......zudba------ba--------adc---dda-adffe-aa--------aaac....+ufc-baaqvhh..........dcfeeh......++......++zggqvifefhz......zobbaccfwuffeee
(PID.TID 0000.0001) //     21 babcgca----abe.....................ysstl...ysstlgeeeeoz..ijklt+....lfjzzf---adfcfdaadcehllotq....yy+++zzs.....+zcba-----cba-------cdd--aaa----df------------aaac.....+upjdcy.vohq.......+idcdfeeefwz....efwz....+hhn.vklox.........gdccfjwrigffh
(PID.TID 0000.0001) //     20 fbbbcgfcaa-aae+.......................lc......lcgfdddhq.+hiilnz++.+oquxyz--adgkfdcaabcfmtooyxz......+yuiiy....++gb------gb--------ddcca-a-----acbaa------bbaaaab........ywxy.lulo.lv...kcdgddffefffilyx+fffilyx+fffk.+xyyy.........mgeimvskjklll
(PID.TID 0000.0001) //     19 zmfeccdghfeegcbt......................aa......aafifccgnrzgghjry.+++sr+lq.--edfkkoxtkblwnnsp.vv......skhggt...+++t-------t---------bdaf---------edd-------adlaaaa+..........vnhzy.tllqiedccdhggfggffiiggfgffiiggfcbdgy..yz..........xigqophijkkii
(PID.TID 0000.0001) //     18 ..wifedfkhfegbbcivlqfoz..............jaa.....jaacfihggokeeffgt..++++..hhlfdeddkez..qcz+.zwxtsttz..ysrkhot++++++zig------ig--------b--f---------egqqqaa----frb---+........+kkrhw.vqmlnieddcdehgggffgigedbffgigedbaaceiy.............zilrddefikkhh
(PID.TID 0000.0001) //     17 ..+wfeefikhgcbbccaaacgn.............icaa....icaaccfihfoedddeedy..++...nnqwgfeekeyy.z++..+zsjjllllljllpjos+++.+zhhi-----ehi-----e-----ea--------foqqoqqo--hlwgea-.........+nk+..xiioonhfefddegihhghigfdbaghigfdbaaabdgx..............nheddefiklhg
(PID.TID 0000.0001) //     16 ....wiheddeccdfhfbabdfl............jdbad...jdbaddddgifkccccdccd+.++..++ynvz.tkkq.mu....++zyslllllkhggkmpy++...ihhi-----ehi-----ea---feb-----a-acnoohfghknvmwnuca..........qhu..hhhkojgffgeefghihhiieedbahiieedbaaabcdy..............ygddeghiljgf
(PID.TID 0000.0001) //     15 ......ylea--acfihebcbbes..........sfcbbn..sfcbbngfffigcaaabdbcac+.+++++zgmpx...y.mm....++..zslwz.yhhhhnz+++...rhgc----abgc----ab----ige----acaaalllkddfiy..yswxb..........thk.xgghiligfghfefhhhhiiheedcdiiheedcdbbabdmz.............zfdeghikkifd
(PID.TID 0000.0001) //     14 ........c---acgkhdcc--di..........ofddch..ofddchohffikaaaaabaaa-aw+.+ysnggox++...qrv..........yzzzzrjil+++....qhgd-----agd-----a-----i---cccdeabkklldinqssy..xxv...........+y.uhghikihgfghefgihhhgeeeeedhgeeeeeddbaadhw.............nedeghjjhfed
(PID.TID 0000.0001) //     13 .......+b----cfkhec---afz.........nhfdff..nhfdffholghkaaaaaba-a---flkkuswyy++++y+zr...........zzzzz++ry++......yd-------d--------------aeecdeidfkkqnqlmqquukqqmf..............iihiijjhfefgefhjihiffgggffiffgggffecaabelx...........zjecehijhfecc
(PID.TID 0000.0001) //     12 .......ec----chjhec---ag..........skiqdd..skiqddeiiiifaaabae--a---dd--iu+++.+++sxq++..........+z+++++.+++....++.s-------s------------a-ceccdejhlllkqlkklssiccdee.............wjkkkjjjigeefffgjiiighiiihhighiiihhhdaabdffghtxx......mfccehjiffdb-
(PID.TID 0000.0001) //     11 ......pdca--achlheba--ai..........nkn.fd..nkn.fdemijidaaaabi-------a--q+....++.ziis...........+++++..........+yyza----b-za----b-----a--ccccddkhieekkossssfbbbbcd............njjijhhihijhgggggjjjjijkkkkjjijkkkkjjhcaacddeegpy.....xfdccdhjgfdda-
(PID.TID 0000.0001) //     10 ......wfdb--achlhea---an.........uos..dc.uos..dcemikkfdcaabi-------equ+.........mk...........................zyvuq----ccuq----cc----a---dcfhkopqjeissrnpfbbcccde..........zslihhigghgijjihhhhkllkkkkkkjkkkkkkkjkkkedccdeeeeipz..zwhccbcdhgfddcam
(PID.TID 0000.0001) //      9 ......vgec---bfikca--cjl+.......+nnv.+cc+nnv.+ccffhkkiddaadha-----as++..........pvz++........................zxuuk------uk------a---a----djmqrrnlllsoiddcccccdjf.........+zjijhfgfggffhjkkkiillljihhghgijihhghgihighdeeffgghimnnjgecbbcdgfeccbas
(PID.TID 0000.0001) //      8 .....zleca---afjfca--hdfz.......vkky.jcevkky.jceddefijffdddhb--a-afv............nn..ss.........................+yku-----yku--------------ejnpqqnninnritqdccchkmf+.......wihgghgeffffeefhijkjkljiigeeffefigeeffefffhjhhikkklljklmhffeeeggfdcbaay.
(PID.TID 0000.0001) //      7 ...+zohec--abcfkhecbchbdx.......qiht.faaqiht.faaaabdgijgfededcdcb-f+............nn...pz.........................+zu-----+zu--------------edefqgqddsz+......+yuddmm+....tiggfggfeeeefeeefiiiijkiihhedddddhheddddddddjjllliijhfkmmkkjjhijgdcba--q.
(PID.TID 0000.0001) //      6 ..+yomfddcaabefkifdchaadt......uqdeisc--qdeisc----dfefgifffkklldc--v............up...pp.........................v.x-----v.x---------a----fbbpqgzenx+........zdbcmllkhhfffffffgfeeeeeeeefhhhhijihhffddcbbhffddcbbbbdhhiihedddb-cfhhhjjjieca----+.
(PID.TID 0000.0001) //      5 ..+nhgffkghccfhkhffgdaackz....uoibcimlaaibcimlaaacfbddfjjhijeehf-a-c............zs...su.........................qk.yi---qk.yi-------gha-fjddqs+xkrz.........q-bchikdccdeeeeeeedddedddddgghhhhjhhgffcbbaagffcbbaaaaddfegecca----dfeefhfgdb-----+.
(PID.TID 0000.0001) //      4 .+ujhgfllfhdffhkfffca-aady...llnabdopfcbabdopfcbdgdbcdehlihgfddc--ms............................................okn.zd--okn.zd---eciiiicfkeeqy.ysz..........n-aafgdcbbdeddedcdcccdddcddffggghiggfffdbaa-fffdbaa---acdcccba--abvfedeffdcca----b+.
(PID.TID 0000.0001) //      3 +vjggfcceeffffjlkjgaa---bfvheeln-aesphfd-aesphfdhgabddeflihhgfecbaaayq+++++.....................................kqnz.vtpkqnz.vtpkllgdccfkkkkk..++..........+g---fecaaadcdddcbbbbcdddcccdffffghgffffdcaa-fffdcaa----abcaaaa-acxxmecdjmdbba----r+.
(PID.TID 0000.0001) //      2 qifeecbbccddefilihecbaacbaajfega-aesqhff-aesqhffiea-cdeflkkljifeddcba---bry+...................................vkqn+.sghkqn+.sghfcbcbbbdgfdek.++++.........+l---caaaaaccdccbaaabbddddccdffffghfeeeeecba-eeeecba------baaaa-euwxqdbcdkud-----sy+.
(PID.TID 0000.0001) //      1 ebbbbaaaaaccdfhlhfefdcccaabjefbaaafonhglaafonhglid--adfgkkkklkhffddca-----s++++................................xsrxz.tedsrxz.tedcbbbbaaadddet.++++.........+l------a-accddba--bbbddddccdfffhhgfeeddccba-eddccba-------aaaabgns.qcbcchyzqngll++..
(PID.TID 0000.0001) //      0 -aaaaaaa-aacccfikkhecccbbbaaabaadfkllilmdfkllilmgebaadfijjiiikjhffdcba-----lllgn.............................++..u+..zmd.u+..zmdfbd---a-aeef.xx+..........+++s-------accdcb---bbbcdddddefffggfeeedcccbbaedcccbba----aa--alrwwy.kcbccc+...++++...
(PID.TID 0000.0001) //     -1 --aaaaa----aacffiljgfffcca--adfikkiikimikkiikimiiheccfurkiffhijjigfecb-----l----.............................+++++.z+.wq++.z+.wqgbf-------dgzpoy+........+ys+yrb--aa-abcccb---bbbbddddeffflhfeeeecbbcbbaecbbcbbaa----a--bdflm.yuibbcc.......+...
(PID.TID 0000.0001) //     -2 --aaa-------acdefinmlgiieb-chnnnmlmlfklkmlmlfklklkhednwwsheeghhijjgfdca----g---a.............................+++++wmu++y++wmu++ywn--------fwvmgy+........+r-.+++-abc--abbbb---abaaddddeedkmeddefdbbbdcbadbbbdcbaa-------ba-hv.susfbcc.......+...
(PID.TID 0000.0001) //     -3 a--a---aa---aedeegknmlgiigcdfhpokkimdkmkkkimdkmknoiedcfjvpddegghhhhgfdcbaa-n---a..............................+++yqd.++++yqd.+++zvq--dafz.lqnggw+........+b-....abcc---aaba------acdddcbcineddgdbaaaeedbbaaaeedbaa----------nysqssfcd...........
(PID.TID 0000.0001) // =======================================================
(PID.TID 0000.0001) // END OF FIELD                                          =
(PID.TID 0000.0001) // =======================================================
(PID.TID 0000.0001) 
(PID.TID 0000.0001) // =======================================================
(PID.TID 0000.0001) // Field Model Ro_surf (ini_masks_etc) at iteration          1
(PID.TID 0000.0001) // CMIN =         -7.105427357601002E-15
(PID.TID 0000.0001) // CMAX =         -7.105427357601002E-15
(PID.TID 0000.0001) // CINT =          0.000000000000000E+00
(PID.TID 0000.0001) // SYMBOLS (CMIN->CMAX): -abcdefghijklmnopqrstuvwxyz+
(PID.TID 0000.0001) //                  0.0: .
(PID.TID 0000.0001) // RANGE I (Lo:Hi:Step):(    -3:   196:     1)
(PID.TID 0000.0001) // RANGE J (Lo:Hi:Step):(    36:    -3:    -1)
(PID.TID 0000.0001) // RANGE K (Lo:Hi:Step):(   1:   1:   1)
(PID.TID 0000.0001) // =======================================================
(PID.TID 0000.0001) // =======================================================
(PID.TID 0000.0001) // END OF FIELD                                          =
(PID.TID 0000.0001) // =======================================================
(PID.TID 0000.0001) 
(PID.TID 0000.0001) // =======================================================
(PID.TID 0000.0001) // Field hFacC at iteration          1
(PID.TID 0000.0001) // CMIN =          1.000000000000000E+00
(PID.TID 0000.0001) // CMAX =          1.000000000000000E+00
(PID.TID 0000.0001) // CINT =          0.000000000000000E+00
(PID.TID 0000.0001) // SYMBOLS (CMIN->CMAX): -abcdefghijklmnopqrstuvwxyz+
(PID.TID 0000.0001) //                  0.0: .
(PID.TID 0000.0001) // RANGE I (Lo:Hi:Step):(    -3:   196:     1)
(PID.TID 0000.0001) // RANGE J (Lo:Hi:Step):(    36:    -3:    -1)
(PID.TID 0000.0001) // RANGE K (Lo:Hi:Step):(   1:   1:   1)
(PID.TID 0000.0001) // =======================================================
(PID.TID 0000.0001) // =======================================================
(PID.TID 0000.0001) // END OF FIELD                                          =
(PID.TID 0000.0001) // =======================================================
(PID.TID 0000.0001) 
(PID.TID 0000.0001) // =======================================================
(PID.TID 0000.0001) // Field hFacW at iteration          1
(PID.TID 0000.0001) // CMIN =          1.000000000000000E+00
(PID.TID 0000.0001) // CMAX =          1.000000000000000E+00
(PID.TID 0000.0001) // CINT =          0.000000000000000E+00
(PID.TID 0000.0001) // SYMBOLS (CMIN->CMAX): -abcdefghijklmnopqrstuvwxyz+
(PID.TID 0000.0001) //                  0.0: .
(PID.TID 0000.0001) // RANGE I (Lo:Hi:Step):(    -3:   196:     1)
(PID.TID 0000.0001) // RANGE J (Lo:Hi:Step):(    36:    -3:    -1)
(PID.TID 0000.0001) // RANGE K (Lo:Hi:Step):(   1:   1:   1)
(PID.TID 0000.0001) // =======================================================
(PID.TID 0000.0001) // =======================================================
(PID.TID 0000.0001) // END OF FIELD                                          =
(PID.TID 0000.0001) // =======================================================
(PID.TID 0000.0001) 
(PID.TID 0000.0001) // =======================================================
(PID.TID 0000.0001) // Field hFacS at iteration          1
(PID.TID 0000.0001) // CMIN =          1.000000000000000E+00
(PID.TID 0000.0001) // CMAX =          1.000000000000000E+00
(PID.TID 0000.0001) // CINT =          0.000000000000000E+00
(PID.TID 0000.0001) // SYMBOLS (CMIN->CMAX): -abcdefghijklmnopqrstuvwxyz+
(PID.TID 0000.0001) //                  0.0: .
(PID.TID 0000.0001) // RANGE I (Lo:Hi:Step):(    -3:   196:     1)
(PID.TID 0000.0001) // RANGE J (Lo:Hi:Step):(    36:    -3:    -1)
(PID.TID 0000.0001) // RANGE K (Lo:Hi:Step):(   1:   1:   1)
(PID.TID 0000.0001) // =======================================================
(PID.TID 0000.0001) // =======================================================
(PID.TID 0000.0001) // END OF FIELD                                          =
(PID.TID 0000.0001) // =======================================================
(PID.TID 0000.0001) 
(PID.TID 0000.0001) INI_CG2D: CG2D normalisation factor =  1.9156564154949553E-04
(PID.TID 0000.0001) INI_CG2D: cg2dTolerance = 5.809016360175293E-07 (Area=3.6388673751E+14)
(PID.TID 0000.0001) 
(PID.TID 0000.0001)  MDS_READ_META: opening file: pickup.0000072000.meta
(PID.TID 0000.0001)  nRecords = 123 ; filePrec =  64 ; fileIter =     72000
(PID.TID 0000.0001)     nDims =   2 , dims:
(PID.TID 0000.0001)    1: 192   1 192
(PID.TID 0000.0001)    2:  32   1  32
(PID.TID 0000.0001)     nFlds =  11 , nFl3D =   8 , fields:
(PID.TID 0000.0001)  >Uvel    < >GuNm1   < >Vvel    < >GvNm1   < >Theta   < >GtNm1   < >Salt    < >GsNm1   < >EtaN    < >dEtaHdt < >EtaH    <
(PID.TID 0000.0001)   nTimRec =   0 , timeList:
(PID.TID 0000.0001) READ_MFLDS_3D_RL: read field: "Uvel    ", #   1 in fldList, rec=   1
(PID.TID 0000.0001)  MDS_READ_FIELD: opening global file: pickup.0000072000
(PID.TID 0000.0001) READ_MFLDS_3D_RL: read field: "Vvel    ", #   3 in fldList, rec=   3
(PID.TID 0000.0001)  MDS_READ_FIELD: opening global file: pickup.0000072000
(PID.TID 0000.0001) READ_MFLDS_3D_RL: read field: "Theta   ", #   5 in fldList, rec=   5
(PID.TID 0000.0001)  MDS_READ_FIELD: opening global file: pickup.0000072000
(PID.TID 0000.0001) READ_MFLDS_3D_RL: read field: "Salt    ", #   7 in fldList, rec=   7
(PID.TID 0000.0001)  MDS_READ_FIELD: opening global file: pickup.0000072000
(PID.TID 0000.0001) READ_MFLDS_3D_RL: read field: "GuNm1   ", #   2 in fldList, rec=   2
(PID.TID 0000.0001)  MDS_READ_FIELD: opening global file: pickup.0000072000
(PID.TID 0000.0001) READ_MFLDS_3D_RL: field: "GuNm2   " missing in file: pickup.0000072000
(PID.TID 0000.0001) READ_MFLDS_3D_RL: read field: "GvNm1   ", #   4 in fldList, rec=   4
(PID.TID 0000.0001)  MDS_READ_FIELD: opening global file: pickup.0000072000
(PID.TID 0000.0001) READ_MFLDS_3D_RL: field: "GvNm2   " missing in file: pickup.0000072000
(PID.TID 0000.0001) READ_MFLDS_3D_RL: read field: "EtaN    ", #   9 in fldList, rec= 121
(PID.TID 0000.0001)  MDS_READ_FIELD: opening global file: pickup.0000072000
(PID.TID 0000.0001) READ_MFLDS_3D_RL: read field: "dEtaHdt ", #  10 in fldList, rec= 122
(PID.TID 0000.0001)  MDS_READ_FIELD: opening global file: pickup.0000072000
(PID.TID 0000.0001) READ_MFLDS_3D_RL: read field: "EtaH    ", #  11 in fldList, rec= 123
(PID.TID 0000.0001)  MDS_READ_FIELD: opening global file: pickup.0000072000
(PID.TID 0000.0001)  MDS_READ_FIELD: opening global file: trenberth_taux.bin
(PID.TID 0000.0001)  MDS_READ_FIELD: opening global file: trenberth_tauy.bin
(PID.TID 0000.0001)  MDS_READ_FIELD: opening global file: shiQnet_cs32.bin
(PID.TID 0000.0001)  MDS_READ_FIELD: opening global file: shiEmPR_cs32.bin
(PID.TID 0000.0001)  MDS_READ_FIELD: opening global file: lev_surfT_cs_12m.bin
(PID.TID 0000.0001)  MDS_READ_FIELD: opening global file: lev_surfS_cs_12m.bin
(PID.TID 0000.0001)  MDS_READ_FIELD: opening file: xx_theta.0000000000.001.001.data
(PID.TID 0000.0001)  MDS_READ_FIELD: opening file: xx_theta.0000000000.002.001.data
(PID.TID 0000.0001)  MDS_READ_FIELD: opening file: xx_theta.0000000000.003.001.data
(PID.TID 0000.0001)  MDS_READ_FIELD: opening file: xx_theta.0000000000.004.001.data
(PID.TID 0000.0001)  MDS_READ_FIELD: opening file: xx_theta.0000000000.005.001.data
(PID.TID 0000.0001)  MDS_READ_FIELD: opening file: xx_theta.0000000000.006.001.data
(PID.TID 0000.0001)  MDS_READ_FIELD: opening file: xx_salt.0000000000.001.001.data
(PID.TID 0000.0001)  MDS_READ_FIELD: opening file: xx_salt.0000000000.002.001.data
(PID.TID 0000.0001)  MDS_READ_FIELD: opening file: xx_salt.0000000000.003.001.data
(PID.TID 0000.0001)  MDS_READ_FIELD: opening file: xx_salt.0000000000.004.001.data
(PID.TID 0000.0001)  MDS_READ_FIELD: opening file: xx_salt.0000000000.005.001.data
(PID.TID 0000.0001)  MDS_READ_FIELD: opening file: xx_salt.0000000000.006.001.data
(PID.TID 0000.0001)  MDS_READ_FIELD: opening file: xx_diffkr.0000000000.001.001.data
(PID.TID 0000.0001)  MDS_READ_FIELD: opening file: xx_diffkr.0000000000.002.001.data
(PID.TID 0000.0001)  MDS_READ_FIELD: opening file: xx_diffkr.0000000000.003.001.data
(PID.TID 0000.0001)  MDS_READ_FIELD: opening file: xx_diffkr.0000000000.004.001.data
(PID.TID 0000.0001)  MDS_READ_FIELD: opening file: xx_diffkr.0000000000.005.001.data
(PID.TID 0000.0001)  MDS_READ_FIELD: opening file: xx_diffkr.0000000000.006.001.data
(PID.TID 0000.0001) // =======================================================
(PID.TID 0000.0001) // Model current state
(PID.TID 0000.0001) // =======================================================
(PID.TID 0000.0001) 
S/R EXTERNAL_FIELDS_LOAD: Reading new data:   12    1     72000  6.220800000000E+09
(PID.TID 0000.0001)  MDS_READ_FIELD: opening global file: trenberth_taux.bin
(PID.TID 0000.0001)  MDS_READ_FIELD: opening global file: trenberth_taux.bin
(PID.TID 0000.0001)  MDS_READ_FIELD: opening global file: trenberth_tauy.bin
(PID.TID 0000.0001)  MDS_READ_FIELD: opening global file: trenberth_tauy.bin
(PID.TID 0000.0001)  MDS_READ_FIELD: opening global file: shiQnet_cs32.bin
(PID.TID 0000.0001)  MDS_READ_FIELD: opening global file: shiQnet_cs32.bin
(PID.TID 0000.0001)  MDS_READ_FIELD: opening global file: shiEmPR_cs32.bin
(PID.TID 0000.0001)  MDS_READ_FIELD: opening global file: shiEmPR_cs32.bin
(PID.TID 0000.0001)  MDS_READ_FIELD: opening global file: lev_surfT_cs_12m.bin
(PID.TID 0000.0001)  MDS_READ_FIELD: opening global file: lev_surfT_cs_12m.bin
(PID.TID 0000.0001)  MDS_READ_FIELD: opening global file: lev_surfS_cs_12m.bin
(PID.TID 0000.0001)  MDS_READ_FIELD: opening global file: lev_surfS_cs_12m.bin
(PID.TID 0000.0001)  MDS_READ_FIELD: opening file: xx_tauu.0000000000.001.001.data
(PID.TID 0000.0001)  MDS_READ_FIELD: opening file: xx_tauu.0000000000.002.001.data
(PID.TID 0000.0001)  MDS_READ_FIELD: opening file: xx_tauu.0000000000.003.001.data
(PID.TID 0000.0001)  MDS_READ_FIELD: opening file: xx_tauu.0000000000.004.001.data
(PID.TID 0000.0001)  MDS_READ_FIELD: opening file: xx_tauu.0000000000.005.001.data
(PID.TID 0000.0001)  MDS_READ_FIELD: opening file: xx_tauu.0000000000.006.001.data
(PID.TID 0000.0001)  MDS_READ_FIELD: opening file: xx_tauv.0000000000.001.001.data
(PID.TID 0000.0001)  MDS_READ_FIELD: opening file: xx_tauv.0000000000.002.001.data
(PID.TID 0000.0001)  MDS_READ_FIELD: opening file: xx_tauv.0000000000.003.001.data
(PID.TID 0000.0001)  MDS_READ_FIELD: opening file: xx_tauv.0000000000.004.001.data
(PID.TID 0000.0001)  MDS_READ_FIELD: opening file: xx_tauv.0000000000.005.001.data
(PID.TID 0000.0001)  MDS_READ_FIELD: opening file: xx_tauv.0000000000.006.001.data
(PID.TID 0000.0001)  MDS_READ_FIELD: opening file: xx_sfl.0000000000.001.001.data
(PID.TID 0000.0001)  MDS_READ_FIELD: opening file: xx_sfl.0000000000.002.001.data
(PID.TID 0000.0001)  MDS_READ_FIELD: opening file: xx_sfl.0000000000.003.001.data
(PID.TID 0000.0001)  MDS_READ_FIELD: opening file: xx_sfl.0000000000.004.001.data
(PID.TID 0000.0001)  MDS_READ_FIELD: opening file: xx_sfl.0000000000.005.001.data
(PID.TID 0000.0001)  MDS_READ_FIELD: opening file: xx_sfl.0000000000.006.001.data
(PID.TID 0000.0001)  MDS_READ_FIELD: opening file: xx_hfl.0000000000.001.001.data
(PID.TID 0000.0001)  MDS_READ_FIELD: opening file: xx_hfl.0000000000.002.001.data
(PID.TID 0000.0001)  MDS_READ_FIELD: opening file: xx_hfl.0000000000.003.001.data
(PID.TID 0000.0001)  MDS_READ_FIELD: opening file: xx_hfl.0000000000.004.001.data
(PID.TID 0000.0001)  MDS_READ_FIELD: opening file: xx_hfl.0000000000.005.001.data
(PID.TID 0000.0001)  MDS_READ_FIELD: opening file: xx_hfl.0000000000.006.001.data
(PID.TID 0000.0001) SOLVE_FOR_PRESSURE: putPmEinXvector =    F
 cg2d: Sum(rhs),rhsMax =  -9.77706804405898E-12  4.27829651258201E+00
 cg2d: Sum(rhs),rhsMax =  -9.80548975348938E-12  4.27316012286082E+00
 cg2d: Sum(rhs),rhsMax =  -9.43600753089413E-12  4.26762372431501E+00
 cg2d: Sum(rhs),rhsMax =  -9.52127265918534E-12  4.26250700431281E+00
 cg2d: Sum(rhs),rhsMax =  -9.35074240260292E-12  4.25770388780867E+00
 cg2d: Sum(rhs),rhsMax =  -9.60653778747655E-12  4.25319685157871E+00
 cg2d: Sum(rhs),rhsMax =  -9.46442924032453E-12  4.24900188193494E+00
 cg2d: Sum(rhs),rhsMax =  -9.63495949690696E-12  4.24513385658045E+00
 cg2d: Sum(rhs),rhsMax =  -9.37916411203332E-12  4.24159888509093E+00
 cg2d: Sum(rhs),rhsMax =  -9.37916411203332E-12  4.23840118914076E+00
 cg2d: Sum(rhs),rhsMax =  -9.86233317235019E-12  4.23553911420672E+00
 cg2d: Sum(rhs),rhsMax =  -9.60653778747655E-12  4.23300290719626E+00
 cg2d: Sum(rhs),rhsMax =  -9.83391146291979E-12  4.23077338212047E+00
 cg2d: Sum(rhs),rhsMax =  -9.32232069317251E-12  4.22882246411641E+00
 cg2d: Sum(rhs),rhsMax =  -9.57811607804615E-12  4.22711470648854E+00
S/R EXTERNAL_FIELDS_LOAD: Reading new data:    1    2     72015  6.222096000000E+09
(PID.TID 0000.0001)  MDS_READ_FIELD: opening global file: trenberth_taux.bin
(PID.TID 0000.0001)  MDS_READ_FIELD: opening global file: trenberth_taux.bin
(PID.TID 0000.0001)  MDS_READ_FIELD: opening global file: trenberth_tauy.bin
(PID.TID 0000.0001)  MDS_READ_FIELD: opening global file: trenberth_tauy.bin
(PID.TID 0000.0001)  MDS_READ_FIELD: opening global file: shiQnet_cs32.bin
(PID.TID 0000.0001)  MDS_READ_FIELD: opening global file: shiQnet_cs32.bin
(PID.TID 0000.0001)  MDS_READ_FIELD: opening global file: shiEmPR_cs32.bin
(PID.TID 0000.0001)  MDS_READ_FIELD: opening global file: shiEmPR_cs32.bin
(PID.TID 0000.0001)  MDS_READ_FIELD: opening global file: lev_surfT_cs_12m.bin
(PID.TID 0000.0001)  MDS_READ_FIELD: opening global file: lev_surfT_cs_12m.bin
(PID.TID 0000.0001)  MDS_READ_FIELD: opening global file: lev_surfS_cs_12m.bin
(PID.TID 0000.0001)  MDS_READ_FIELD: opening global file: lev_surfS_cs_12m.bin
 cg2d: Sum(rhs),rhsMax =  -9.60653778747655E-12  4.22560897879699E+00
 cg2d: Sum(rhs),rhsMax =  -9.94759830064140E-12  4.22414669159926E+00
 cg2d: Sum(rhs),rhsMax =  -9.91917659121100E-12  4.22297627394952E+00
 cg2d: Sum(rhs),rhsMax =  -9.49285094975494E-12  4.22179769455128E+00
 cg2d: Sum(rhs),rhsMax =  -9.60653778747655E-12  4.22066224835980E+00
(PID.TID 0000.0001) Did not write pickup because writePickupAtEnd = FALSE
(PID.TID 0000.0001)  MDS_READ_FIELD: opening global file: lev_T_cs_15k.bin
 --> objf_test(bi,bj)   =  0.213716218948999E+05
 --> objf_tracer(bi,bj) =  0.000000000000000E+00
 --> objf_atl(bi,bj)    =  0.000000000000000E+00
 --> objf_test(bi,bj)   =  0.114870711253769E+05
 --> objf_tracer(bi,bj) =  0.000000000000000E+00
 --> objf_atl(bi,bj)    =  0.000000000000000E+00
 --> objf_test(bi,bj)   =  0.181705170178938E+05
 --> objf_tracer(bi,bj) =  0.000000000000000E+00
 --> objf_atl(bi,bj)    =  0.000000000000000E+00
 --> objf_test(bi,bj)   =  0.231600599827213E+05
 --> objf_tracer(bi,bj) =  0.000000000000000E+00
 --> objf_atl(bi,bj)    =  0.000000000000000E+00
 --> objf_test(bi,bj)   =  0.145354662490744E+05
 --> objf_tracer(bi,bj) =  0.000000000000000E+00
 --> objf_atl(bi,bj)    =  0.000000000000000E+00
 --> objf_test(bi,bj)   =  0.124704944386116E+05
 --> objf_tracer(bi,bj) =  0.000000000000000E+00
 --> objf_atl(bi,bj)    =  0.000000000000000E+00
  local fc =  0.101195230708578E+06
 global fc =  0.101195230708578E+06
(PID.TID 0000.0001)  MDS_READ_FIELD: opening file: xx_theta.0000000000.001.001.data
(PID.TID 0000.0001)  MDS_READ_FIELD: opening file: xx_theta.0000000000.002.001.data
(PID.TID 0000.0001)  MDS_READ_FIELD: opening file: xx_theta.0000000000.003.001.data
(PID.TID 0000.0001)  MDS_READ_FIELD: opening file: xx_theta.0000000000.004.001.data
(PID.TID 0000.0001)  MDS_READ_FIELD: opening file: xx_theta.0000000000.005.001.data
(PID.TID 0000.0001)  MDS_READ_FIELD: opening file: xx_theta.0000000000.006.001.data
grad-res -------------------------------
 grad-res     0    1    1    1    1    1    1    1   0.101195263679E+06 0.101195296676E+06 0.101195230709E+06
 grad-res     0    1    1    1  639    1    1    1   0.329816732152E+01 0.329837637182E+01 -.633837781494E-04
(PID.TID 0000.0001)   ADM  precision_derivative_cost =    1.01195263678726E+05
(PID.TID 0000.0001)   ADM  precision_derivative_grad =    3.29816732151628E+00
 ph-grd  ierr ---------------------------
 ph-grd  ierr =  0, icomp =  1, ichknum =  1
 ph-grd -->hit<--  2 1 1 1
(PID.TID 0000.0001)  MDS_READ_FIELD: opening file: adxx_theta.0000000000.001.001.data
(PID.TID 0000.0001)  MDS_READ_FIELD: opening file: adxx_theta.0000000000.002.001.data
(PID.TID 0000.0001)  MDS_READ_FIELD: opening file: adxx_theta.0000000000.003.001.data
(PID.TID 0000.0001)  MDS_READ_FIELD: opening file: adxx_theta.0000000000.004.001.data
(PID.TID 0000.0001)  MDS_READ_FIELD: opening file: adxx_theta.0000000000.005.001.data
(PID.TID 0000.0001)  MDS_READ_FIELD: opening file: adxx_theta.0000000000.006.001.data
(PID.TID 0000.0001)  MDS_READ_FIELD: opening file: xx_theta.0000000000.001.001.data
(PID.TID 0000.0001)  MDS_READ_FIELD: opening file: xx_theta.0000000000.002.001.data
(PID.TID 0000.0001)  MDS_READ_FIELD: opening file: xx_theta.0000000000.003.001.data
(PID.TID 0000.0001)  MDS_READ_FIELD: opening file: xx_theta.0000000000.004.001.data
(PID.TID 0000.0001)  MDS_READ_FIELD: opening file: xx_theta.0000000000.005.001.data
(PID.TID 0000.0001)  MDS_READ_FIELD: opening file: xx_theta.0000000000.006.001.data
(PID.TID 0000.0001)  MDS_READ_FIELD: opening global file: bathy_Hmin50.bin
(PID.TID 0000.0001) // =======================================================
(PID.TID 0000.0001) // Field Model R_low (ini_masks_etc) at iteration          1
(PID.TID 0000.0001) // CMIN =         -5.200000000000000E+03
(PID.TID 0000.0001) // CMAX =         -5.000000000000000E+01
(PID.TID 0000.0001) // CINT =          1.907407407407407E+02
(PID.TID 0000.0001) // SYMBOLS (CMIN->CMAX): -abcdefghijklmnopqrstuvwxyz+
(PID.TID 0000.0001) //                  0.0: .
(PID.TID 0000.0001) // RANGE I (Lo:Hi:Step):(    -3:   196:     1)
(PID.TID 0000.0001) // RANGE J (Lo:Hi:Step):(    36:    -3:    -1)
(PID.TID 0000.0001) // RANGE K (Lo:Hi:Step):(   1:   1:   1)
(PID.TID 0000.0001) // =======================================================
(PID.TID 0000.0001) K =   1
(PID.TID 0000.0001) //                I=6       I=16      I=26      I=36      I=38      I=48      I=58      I=68      I=70      I=80      I=90      I=100     I=102     I=112     I=122     I=132     I=134     I=144     I=154     I=164     I=166     I=176     I=186     I=196
(PID.TID 0000.0001) // |--J--|321012345|789012345|789012345|789012345|901234567|901234567|901234567|901234567|123456789|123456789|123456789|123456789|345678901|345678901|345678901|345678901|567890123|567890123|567890123|567890123|789012345|789012345|789012345|789012345|
(PID.TID 0000.0001) //     36 cbbc-ddcbcdehkhhmn..++..................................................okn.skko--a-fc----bba-cp.............tfeecccbbdeecccbbdeddedcdcccdddcddffggghiggfffdeeffijlihjlica---a--cgffel.+edfgeedflcbahgfllcbahgfllfhdffhkfffca-aady...llnabdoa--a
(PID.TID 0000.0001) //     35 dcac--cbbeefjkfefw+..........zpu........................................kqnzrqqk--b-da----bbbbfu..............fdddccaadcddccaadcdddcbbbbcdddcccdffffghgffffddefflligfiljfba---aafddehy...pwvlhfffcbagfccfcbagfcceeffffjlkjgaa---bfvheeln-aesaaab
(PID.TID 0000.0001) //     34 d--ba-abcehjnldcclz+........spps.......................................vkqn+xnnncabbcbba--aabfu+..............hcbaaaaaccbaaaaaccdccbaaabbddddccdffffghfeeeeedeffjiffefilhfcaaaacgceei.......zomggfcaecbbgfcaecbbccddefilihecbaacbaajfega-aesfeed
(PID.TID 0000.0001) //     33 --abbbccceiomkfdbbc+.......+s..........................................xsrxzz+z.fdcddb-----adu+...............hcbaa--accbaa--accddba--bbbddddccdfffhhgfeeddcceddhfeddfgikhfffdfgccffw........zohhgebbaaahgebbaaaaaccdfhlhfefdcccaabjefbaaafoosso
(PID.TID 0000.0001) //     32 --bddefhhkqqlgfaakqz..v.+..+.........................................++..u+....zigfdba----adu+................kdcaaa-acccaaa-accdcb---bbbcdddddefffggfeeedcccccbccbbdcdfgghhiihcbeiw.........+ynjgebaaaajgebaaaa-aacccfikkhecccbbbaaabaadfklnqpp
(PID.TID 0000.0001) //     31 abbcffijnpnqneaaat..umrr+s.z.........................................+++++.ztsvdlifeb--dfdfu+................+lkdca--abcdca--abcccb---bbbbddddeffflhfeeeecbbbbaaba-abbacbcdceffbbfw+..........++ujfbaaa-ujfbaaa----aacffiljgfffcca--adfikkiihhhf
(PID.TID 0000.0001) //     30 --adgillkkkifcadcx.ymmqzqikvnnps.....................................+++++wmegt-jlifcacdlqx+++...............mligea---abgea---abbbb---abaaddddeedkmeddefdbbbaaaabc---b--aaaaabaabm..............+viba---+viba-------acdefinmlgiieb-chnnnmlmlgffc
(PID.TID 0000.0001) //     29 --cfiljigfjd--efdozy...+ximpnnuz......................................+++yqddhp-iljhcbbchz+......++.........+mmhffc----affc----aaba------acdddcbcineddgdbaaa----cdd--a------aa-bfz...............+qe---a.+qe---aa---aedeegknmlgiigcdfhpokkimlfdb
(PID.TID 0000.0001) //     28 -abgkhfcccea-bdei........t............................................++zwgfcfk-gknhccbbhwwy.....+++........+njfeed-----eed-----aa-------abddcabcnfddegcaaa-----hlf------------dk+................+ja---..+ja------bffdddehfd--bedaacfhpnligiihd
(PID.TID 0000.0001) //     27 -acghfbaaaa-achmy......................+.......+++....................++vnbbbclefkpkeeecflmqxy....++........+lhfeecc----eecc------------aaadcbabcfhddccba-------zqd-----------irw.................++e---..++e-----mhmijddda--------ahhfiokhedegg
(PID.TID 0000.0001) //     26 -adhfca-----bfiv.......................+.......++sy...................+tq-fdbblcjknqiheddefhiksz++++........zkhfdccb----dccb------------aabdcaaaacfddbca-------a+xfa-abb-----vvv...................+wa--...+wa---mlmkijhc----------cjjffiheb-aad
(PID.TID 0000.0001) //     25 -achfa------ch+..................w.......w.......njo+................+x-----bcgidiqqojfefiiiijmy.++.........zkhfdbaa----dbaa-------daa---acccaaaacccca--------ac.+udaabbb----tei...................++qde...++qdeqnghiljcaaaaidaa----beedeeca--bb
(PID.TID 0000.0001) //     24 aaeifa--acbcei...................w.......w.......likn+.....++.....++znpa----bbdi-fnlmnjhinlksssw............qhfeca------ca--------addc--aeffaaaaaaccb-a----a--bd.++udbbaba---ven....................++xy....++xywnfgllcbbabegkecba----ddddcaacdc
(PID.TID 0000.0001) //     23 abfida-aabchjk...................zz......zz.....nhhijz....tqq.....+ujgzgd---abci-cegklkkknols..xuu..........zgfdba------ba--------bcd---affaaadffabbb-----aa-bcc.+.+ufb-----l.gx...........s.........++z.....++zzkfilfccccoz..ulkcd---bccnfddddd
(PID.TID 0000.0001) //     22 -afhfaa---bfgi....................zz..rn..zz..rnjffggm...nlmn+....+sffzya--aabcieaaffdfhimrmp...yuu.++.......zudba------ba--------adc---dda-adffe-aa--------aaac....+ufc-baaqvhh..........dcfeeh......++......++zggqvifefhz......zobbaccfwuffeee
(PID.TID 0000.0001) //     21 babcgca----abe.....................ysstl...ysstlgeeeeoz..ijklt+....lfjzzf---adfcfdaadcehllotq....yy+++zzs.....+zcba-----cba-------cdd--aaa----df------------aaac.....+upjdcy.vohq.......+idcdfeeefwz....efwz....+hhn.vklox.........gdccfjwrigffh
(PID.TID 0000.0001) //     20 fbbbcgfcaa-aae+.......................lc......lcgfdddhq.+hiilnz++.+oquxyz--adgkfdcaabcfmtooyxz......+yuiiy....++gb------gb--------ddcca-a-----acbaa------bbaaaab........ywxy.lulo.lv...kcdgddffefffilyx+fffilyx+fffk.+xyyy.........mgeimvskjklll
(PID.TID 0000.0001) //     19 zmfeccdghfeegcbt......................aa......aafifccgnrzgghjry.+++sr+lq.--edfkkoxtkblwnnsp.vv......skhggt...+++t-------t---------bdaf---------edd-------adlaaaa+..........vnhzy.tllqiedccdhggfggffiiggfgffiiggfcbdgy..yz..........xigqophijkkii
(PID.TID 0000.0001) //     18 ..wifedfkhfegbbcivlqfoz..............jaa.....jaacfihggokeeffgt..++++..hhlfdeddkez..qcz+.zwxtsttz..ysrkhot++++++zig------ig--------b--f---------egqqqaa----frb---+........+kkrhw.vqmlnieddcdehgggffgigedbffgigedbaaceiy.............zilrddefikkhh
(PID.TID 0000.0001) //     17 ..+wfeefikhgcbbccaaacgn.............icaa....icaaccfihfoedddeedy..++...nnqwgfeekeyy.z++..+zsjjllllljllpjos+++.+zhhi-----ehi-----e-----ea--------foqqoqqo--hlwgea-.........+nk+..xiioonhfefddegihhghigfdbaghigfdbaaabdgx..............nheddefiklhg
(PID.TID 0000.0001) //     16 ....wiheddeccdfhfbabdfl............jdbad...jdbaddddgifkccccdccd+.++..++ynvz.tkkq.mu....++zyslllllkhggkmpy++...ihhi-----ehi-----ea---feb-----a-acnoohfghknvmwnuca..........qhu..hhhkojgffgeefghihhiieedbahiieedbaaabcdy..............ygddeghiljgf
(PID.TID 0000.0001) //     15 ......ylea--acfihebcbbes..........sfcbbn..sfcbbngfffigcaaabdbcac+.+++++zgmpx...y.mm....++..zslwz.yhhhhnz+++...rhgc----abgc----ab----ige----acaaalllkddfiy..yswxb..........thk.xgghiligfghfefhhhhiiheedcdiiheedcdbbabdmz.............zfdeghikkifd
(PID.TID 0000.0001) //     14 ........c---acgkhdcc--di..........ofddch..ofddchohffikaaaaabaaa-aw+.+ysnggox++...qrv..........yzzzzrjil+++....qhgd-----agd-----a-----i---cccdeabkklldinqssy..xxv...........+y.uhghikihgfghefgihhhgeeeeedhgeeeeeddbaadhw.............nedeghjjhfed
(PID.TID 0000.0001) //     13 .......+b----cfkhec---afz.........nhfdff..nhfdffholghkaaaaaba-a---flkkuswyy++++y+zr...........zzzzz++ry++......yd-------d--------------aeecdeidfkkqnqlmqquukqqmf..............iihiijjhfefgefhjihiffgggffiffgggffecaabelx...........zjecehijhfecc
(PID.TID 0000.0001) //     12 .......ec----chjhec---ag..........skiqdd..skiqddeiiiifaaabae--a---dd--iu+++.+++sxq++..........+z+++++.+++....++.s-------s------------a-ceccdejhlllkqlkklssiccdee.............wjkkkjjjigeefffgjiiighiiihhighiiihhhdaabdffghtxx......mfccehjiffdb-
(PID.TID 0000.0001) //     11 ......pdca--achlheba--ai..........nkn.fd..nkn.fdemijidaaaabi-------a--q+....++.ziis...........+++++..........+yyza----b-za----b-----a--ccccddkhieekkossssfbbbbcd............njjijhhihijhgggggjjjjijkkkkjjijkkkkjjhcaacddeegpy.....xfdccdhjgfdda-
(PID.TID 0000.0001) //     10 ......wfdb--achlhea---an.........uos..dc.uos..dcemikkfdcaabi-------equ+.........mk...........................zyvuq----ccuq----cc----a---dcfhkopqjeissrnpfbbcccde..........zslihhigghgijjihhhhkllkkkkkkjkkkkkkkjkkkedccdeeeeipz..zwhccbcdhgfddcam
(PID.TID 0000.0001) //      9 ......vgec---bfikca--cjl+.......+nnv.+cc+nnv.+ccffhkkiddaadha-----as++..........pvz++........................zxuuk------uk------a---a----djmqrrnlllsoiddcccccdjf.........+zjijhfgfggffhjkkkiillljihhghgijihhghgihighdeeffgghimnnjgecbbcdgfeccbas
(PID.TID 0000.0001) //      8 .....zleca---afjfca--hdfz.......vkky.jcevkky.jceddefijffdddhb--a-afv............nn..ss.........................+yku-----yku--------------ejnpqqnninnritqdccchkmf+.......wihgghgeffffeefhijkjkljiigeeffefigeeffefffhjhhikkklljklmhffeeeggfdcbaay.
(PID.TID 0000.0001) //      7 ...+zohec--abcfkhecbchbdx.......qiht.faaqiht.faaaabdgijgfededcdcb-f+............nn...pz.........................+zu-----+zu--------------edefqgqddsz+......+yuddmm+....tiggfggfeeeefeeefiiiijkiihhedddddhheddddddddjjllliijhfkmmkkjjhijgdcba--q.
(PID.TID 0000.0001) //      6 ..+yomfddcaabefkifdchaadt......uqdeisc--qdeisc----dfefgifffkklldc--v............up...pp.........................v.x-----v.x---------a----fbbpqgzenx+........zdbcmllkhhfffffffgfeeeeeeeefhhhhijihhffddcbbhffddcbbbbdhhiihedddb-cfhhhjjjieca----+.
(PID.TID 0000.0001) //      5 ..+nhgffkghccfhkhffgdaackz....uoibcimlaaibcimlaaacfbddfjjhijeehf-a-c............zs...su.........................qk.yi---qk.yi-------gha-fjddqs+xkrz.........q-bchikdccdeeeeeeedddedddddgghhhhjhhgffcbbaagffcbbaaaaddfegecca----dfeefhfgdb-----+.
(PID.TID 0000.0001) //      4 .+ujhgfllfhdffhkfffca-aady...llnabdopfcbabdopfcbdgdbcdehlihgfddc--ms............................................okn.zd--okn.zd---eciiiicfkeeqy.ysz..........n-aafgdcbbdeddedcdcccdddcddffggghiggfffdbaa-fffdbaa---acdcccba--abvfedeffdcca----b+.
(PID.TID 0000.0001) //      3 +vjggfcceeffffjlkjgaa---bfvheeln-aesphfd-aesphfdhgabddeflihhgfecbaaayq+++++.....................................kqnz.vtpkqnz.vtpkllgdccfkkkkk..++..........+g---fecaaadcdddcbbbbcdddcccdffffghgffffdcaa-fffdcaa----abcaaaa-acxxmecdjmdbba----r+.
(PID.TID 0000.0001) //      2 qifeecbbccddefilihecbaacbaajfega-aesqhff-aesqhffiea-cdeflkkljifeddcba---bry+...................................vkqn+.sghkqn+.sghfcbcbbbdgfdek.++++.........+l---caaaaaccdccbaaabbddddccdffffghfeeeeecba-eeeecba------baaaa-euwxqdbcdkud-----sy+.
(PID.TID 0000.0001) //      1 ebbbbaaaaaccdfhlhfefdcccaabjefbaaafonhglaafonhglid--adfgkkkklkhffddca-----s++++................................xsrxz.tedsrxz.tedcbbbbaaadddet.++++.........+l------a-accddba--bbbddddccdfffhhgfeeddccba-eddccba-------aaaabgns.qcbcchyzqngll++..
(PID.TID 0000.0001) //      0 -aaaaaaa-aacccfikkhecccbbbaaabaadfkllilmdfkllilmgebaadfijjiiikjhffdcba-----lllgn.............................++..u+..zmd.u+..zmdfbd---a-aeef.xx+..........+++s-------accdcb---bbbcdddddefffggfeeedcccbbaedcccbba----aa--alrwwy.kcbccc+...++++...
(PID.TID 0000.0001) //     -1 --aaaaa----aacffiljgfffcca--adfikkiikimikkiikimiiheccfurkiffhijjigfecb-----l----.............................+++++.z+.wq++.z+.wqgbf-------dgzpoy+........+ys+yrb--aa-abcccb---bbbbddddeffflhfeeeecbbcbbaecbbcbbaa----a--bdflm.yuibbcc.......+...
(PID.TID 0000.0001) //     -2 --aaa-------acdefinmlgiieb-chnnnmlmlfklkmlmlfklklkhednwwsheeghhijjgfdca----g---a.............................+++++wmu++y++wmu++ywn--------fwvmgy+........+r-.+++-abc--abbbb---abaaddddeedkmeddefdbbbdcbadbbbdcbaa-------ba-hv.susfbcc.......+...
(PID.TID 0000.0001) //     -3 a--a---aa---aedeegknmlgiigcdfhpokkimdkmkkkimdkmknoiedcfjvpddegghhhhgfdcbaa-n---a..............................+++yqd.++++yqd.+++zvq--dafz.lqnggw+........+b-....abcc---aaba------acdddcbcineddgdbaaaeedbbaaaeedbaa----------nysqssfcd...........
(PID.TID 0000.0001) // =======================================================
(PID.TID 0000.0001) // END OF FIELD                                          =
(PID.TID 0000.0001) // =======================================================
(PID.TID 0000.0001) 
(PID.TID 0000.0001) // =======================================================
(PID.TID 0000.0001) // Field Model Ro_surf (ini_masks_etc) at iteration          1
(PID.TID 0000.0001) // CMIN =         -7.105427357601002E-15
(PID.TID 0000.0001) // CMAX =         -7.105427357601002E-15
(PID.TID 0000.0001) // CINT =          0.000000000000000E+00
(PID.TID 0000.0001) // SYMBOLS (CMIN->CMAX): -abcdefghijklmnopqrstuvwxyz+
(PID.TID 0000.0001) //                  0.0: .
(PID.TID 0000.0001) // RANGE I (Lo:Hi:Step):(    -3:   196:     1)
(PID.TID 0000.0001) // RANGE J (Lo:Hi:Step):(    36:    -3:    -1)
(PID.TID 0000.0001) // RANGE K (Lo:Hi:Step):(   1:   1:   1)
(PID.TID 0000.0001) // =======================================================
(PID.TID 0000.0001) // =======================================================
(PID.TID 0000.0001) // END OF FIELD                                          =
(PID.TID 0000.0001) // =======================================================
(PID.TID 0000.0001) 
(PID.TID 0000.0001) // =======================================================
(PID.TID 0000.0001) // Field hFacC at iteration          1
(PID.TID 0000.0001) // CMIN =          1.000000000000000E+00
(PID.TID 0000.0001) // CMAX =          1.000000000000000E+00
(PID.TID 0000.0001) // CINT =          0.000000000000000E+00
(PID.TID 0000.0001) // SYMBOLS (CMIN->CMAX): -abcdefghijklmnopqrstuvwxyz+
(PID.TID 0000.0001) //                  0.0: .
(PID.TID 0000.0001) // RANGE I (Lo:Hi:Step):(    -3:   196:     1)
(PID.TID 0000.0001) // RANGE J (Lo:Hi:Step):(    36:    -3:    -1)
(PID.TID 0000.0001) // RANGE K (Lo:Hi:Step):(   1:   1:   1)
(PID.TID 0000.0001) // =======================================================
(PID.TID 0000.0001) // =======================================================
(PID.TID 0000.0001) // END OF FIELD                                          =
(PID.TID 0000.0001) // =======================================================
(PID.TID 0000.0001) 
(PID.TID 0000.0001) // =======================================================
(PID.TID 0000.0001) // Field hFacW at iteration          1
(PID.TID 0000.0001) // CMIN =          1.000000000000000E+00
(PID.TID 0000.0001) // CMAX =          1.000000000000000E+00
(PID.TID 0000.0001) // CINT =          0.000000000000000E+00
(PID.TID 0000.0001) // SYMBOLS (CMIN->CMAX): -abcdefghijklmnopqrstuvwxyz+
(PID.TID 0000.0001) //                  0.0: .
(PID.TID 0000.0001) // RANGE I (Lo:Hi:Step):(    -3:   196:     1)
(PID.TID 0000.0001) // RANGE J (Lo:Hi:Step):(    36:    -3:    -1)
(PID.TID 0000.0001) // RANGE K (Lo:Hi:Step):(   1:   1:   1)
(PID.TID 0000.0001) // =======================================================
(PID.TID 0000.0001) // =======================================================
(PID.TID 0000.0001) // END OF FIELD                                          =
(PID.TID 0000.0001) // =======================================================
(PID.TID 0000.0001) 
(PID.TID 0000.0001) // =======================================================
(PID.TID 0000.0001) // Field hFacS at iteration          1
(PID.TID 0000.0001) // CMIN =          1.000000000000000E+00
(PID.TID 0000.0001) // CMAX =          1.000000000000000E+00
(PID.TID 0000.0001) // CINT =          0.000000000000000E+00
(PID.TID 0000.0001) // SYMBOLS (CMIN->CMAX): -abcdefghijklmnopqrstuvwxyz+
(PID.TID 0000.0001) //                  0.0: .
(PID.TID 0000.0001) // RANGE I (Lo:Hi:Step):(    -3:   196:     1)
(PID.TID 0000.0001) // RANGE J (Lo:Hi:Step):(    36:    -3:    -1)
(PID.TID 0000.0001) // RANGE K (Lo:Hi:Step):(   1:   1:   1)
(PID.TID 0000.0001) // =======================================================
(PID.TID 0000.0001) // =======================================================
(PID.TID 0000.0001) // END OF FIELD                                          =
(PID.TID 0000.0001) // =======================================================
(PID.TID 0000.0001) 
(PID.TID 0000.0001) INI_CG2D: CG2D normalisation factor =  1.9156564154949553E-04
(PID.TID 0000.0001) INI_CG2D: cg2dTolerance = 5.809016360175293E-07 (Area=3.6388673751E+14)
(PID.TID 0000.0001) 
(PID.TID 0000.0001)  MDS_READ_META: opening file: pickup.0000072000.meta
(PID.TID 0000.0001)  nRecords = 123 ; filePrec =  64 ; fileIter =     72000
(PID.TID 0000.0001)     nDims =   2 , dims:
(PID.TID 0000.0001)    1: 192   1 192
(PID.TID 0000.0001)    2:  32   1  32
(PID.TID 0000.0001)     nFlds =  11 , nFl3D =   8 , fields:
(PID.TID 0000.0001)  >Uvel    < >GuNm1   < >Vvel    < >GvNm1   < >Theta   < >GtNm1   < >Salt    < >GsNm1   < >EtaN    < >dEtaHdt < >EtaH    <
(PID.TID 0000.0001)   nTimRec =   0 , timeList:
(PID.TID 0000.0001) READ_MFLDS_3D_RL: read field: "Uvel    ", #   1 in fldList, rec=   1
(PID.TID 0000.0001)  MDS_READ_FIELD: opening global file: pickup.0000072000
(PID.TID 0000.0001) READ_MFLDS_3D_RL: read field: "Vvel    ", #   3 in fldList, rec=   3
(PID.TID 0000.0001)  MDS_READ_FIELD: opening global file: pickup.0000072000
(PID.TID 0000.0001) READ_MFLDS_3D_RL: read field: "Theta   ", #   5 in fldList, rec=   5
(PID.TID 0000.0001)  MDS_READ_FIELD: opening global file: pickup.0000072000
(PID.TID 0000.0001) READ_MFLDS_3D_RL: read field: "Salt    ", #   7 in fldList, rec=   7
(PID.TID 0000.0001)  MDS_READ_FIELD: opening global file: pickup.0000072000
(PID.TID 0000.0001) READ_MFLDS_3D_RL: read field: "GuNm1   ", #   2 in fldList, rec=   2
(PID.TID 0000.0001)  MDS_READ_FIELD: opening global file: pickup.0000072000
(PID.TID 0000.0001) READ_MFLDS_3D_RL: field: "GuNm2   " missing in file: pickup.0000072000
(PID.TID 0000.0001) READ_MFLDS_3D_RL: read field: "GvNm1   ", #   4 in fldList, rec=   4
(PID.TID 0000.0001)  MDS_READ_FIELD: opening global file: pickup.0000072000
(PID.TID 0000.0001) READ_MFLDS_3D_RL: field: "GvNm2   " missing in file: pickup.0000072000
(PID.TID 0000.0001) READ_MFLDS_3D_RL: read field: "EtaN    ", #   9 in fldList, rec= 121
(PID.TID 0000.0001)  MDS_READ_FIELD: opening global file: pickup.0000072000
(PID.TID 0000.0001) READ_MFLDS_3D_RL: read field: "dEtaHdt ", #  10 in fldList, rec= 122
(PID.TID 0000.0001)  MDS_READ_FIELD: opening global file: pickup.0000072000
(PID.TID 0000.0001) READ_MFLDS_3D_RL: read field: "EtaH    ", #  11 in fldList, rec= 123
(PID.TID 0000.0001)  MDS_READ_FIELD: opening global file: pickup.0000072000
(PID.TID 0000.0001)  MDS_READ_FIELD: opening global file: trenberth_taux.bin
(PID.TID 0000.0001)  MDS_READ_FIELD: opening global file: trenberth_tauy.bin
(PID.TID 0000.0001)  MDS_READ_FIELD: opening global file: shiQnet_cs32.bin
(PID.TID 0000.0001)  MDS_READ_FIELD: opening global file: shiEmPR_cs32.bin
(PID.TID 0000.0001)  MDS_READ_FIELD: opening global file: lev_surfT_cs_12m.bin
(PID.TID 0000.0001)  MDS_READ_FIELD: opening global file: lev_surfS_cs_12m.bin
(PID.TID 0000.0001)  MDS_READ_FIELD: opening file: xx_theta.0000000000.001.001.data
(PID.TID 0000.0001)  MDS_READ_FIELD: opening file: xx_theta.0000000000.002.001.data
(PID.TID 0000.0001)  MDS_READ_FIELD: opening file: xx_theta.0000000000.003.001.data
(PID.TID 0000.0001)  MDS_READ_FIELD: opening file: xx_theta.0000000000.004.001.data
(PID.TID 0000.0001)  MDS_READ_FIELD: opening file: xx_theta.0000000000.005.001.data
(PID.TID 0000.0001)  MDS_READ_FIELD: opening file: xx_theta.0000000000.006.001.data
(PID.TID 0000.0001)  MDS_READ_FIELD: opening file: xx_salt.0000000000.001.001.data
(PID.TID 0000.0001)  MDS_READ_FIELD: opening file: xx_salt.0000000000.002.001.data
(PID.TID 0000.0001)  MDS_READ_FIELD: opening file: xx_salt.0000000000.003.001.data
(PID.TID 0000.0001)  MDS_READ_FIELD: opening file: xx_salt.0000000000.004.001.data
(PID.TID 0000.0001)  MDS_READ_FIELD: opening file: xx_salt.0000000000.005.001.data
(PID.TID 0000.0001)  MDS_READ_FIELD: opening file: xx_salt.0000000000.006.001.data
(PID.TID 0000.0001)  MDS_READ_FIELD: opening file: xx_diffkr.0000000000.001.001.data
(PID.TID 0000.0001)  MDS_READ_FIELD: opening file: xx_diffkr.0000000000.002.001.data
(PID.TID 0000.0001)  MDS_READ_FIELD: opening file: xx_diffkr.0000000000.003.001.data
(PID.TID 0000.0001)  MDS_READ_FIELD: opening file: xx_diffkr.0000000000.004.001.data
(PID.TID 0000.0001)  MDS_READ_FIELD: opening file: xx_diffkr.0000000000.005.001.data
(PID.TID 0000.0001)  MDS_READ_FIELD: opening file: xx_diffkr.0000000000.006.001.data
(PID.TID 0000.0001) // =======================================================
(PID.TID 0000.0001) // Model current state
(PID.TID 0000.0001) // =======================================================
(PID.TID 0000.0001) 
S/R EXTERNAL_FIELDS_LOAD: Reading new data:   12    1     72000  6.220800000000E+09
(PID.TID 0000.0001)  MDS_READ_FIELD: opening global file: trenberth_taux.bin
(PID.TID 0000.0001)  MDS_READ_FIELD: opening global file: trenberth_taux.bin
(PID.TID 0000.0001)  MDS_READ_FIELD: opening global file: trenberth_tauy.bin
(PID.TID 0000.0001)  MDS_READ_FIELD: opening global file: trenberth_tauy.bin
(PID.TID 0000.0001)  MDS_READ_FIELD: opening global file: shiQnet_cs32.bin
(PID.TID 0000.0001)  MDS_READ_FIELD: opening global file: shiQnet_cs32.bin
(PID.TID 0000.0001)  MDS_READ_FIELD: opening global file: shiEmPR_cs32.bin
(PID.TID 0000.0001)  MDS_READ_FIELD: opening global file: shiEmPR_cs32.bin
(PID.TID 0000.0001)  MDS_READ_FIELD: opening global file: lev_surfT_cs_12m.bin
(PID.TID 0000.0001)  MDS_READ_FIELD: opening global file: lev_surfT_cs_12m.bin
(PID.TID 0000.0001)  MDS_READ_FIELD: opening global file: lev_surfS_cs_12m.bin
(PID.TID 0000.0001)  MDS_READ_FIELD: opening global file: lev_surfS_cs_12m.bin
(PID.TID 0000.0001)  MDS_READ_FIELD: opening file: xx_tauu.0000000000.001.001.data
(PID.TID 0000.0001)  MDS_READ_FIELD: opening file: xx_tauu.0000000000.002.001.data
(PID.TID 0000.0001)  MDS_READ_FIELD: opening file: xx_tauu.0000000000.003.001.data
(PID.TID 0000.0001)  MDS_READ_FIELD: opening file: xx_tauu.0000000000.004.001.data
(PID.TID 0000.0001)  MDS_READ_FIELD: opening file: xx_tauu.0000000000.005.001.data
(PID.TID 0000.0001)  MDS_READ_FIELD: opening file: xx_tauu.0000000000.006.001.data
(PID.TID 0000.0001)  MDS_READ_FIELD: opening file: xx_tauv.0000000000.001.001.data
(PID.TID 0000.0001)  MDS_READ_FIELD: opening file: xx_tauv.0000000000.002.001.data
(PID.TID 0000.0001)  MDS_READ_FIELD: opening file: xx_tauv.0000000000.003.001.data
(PID.TID 0000.0001)  MDS_READ_FIELD: opening file: xx_tauv.0000000000.004.001.data
(PID.TID 0000.0001)  MDS_READ_FIELD: opening file: xx_tauv.0000000000.005.001.data
(PID.TID 0000.0001)  MDS_READ_FIELD: opening file: xx_tauv.0000000000.006.001.data
(PID.TID 0000.0001)  MDS_READ_FIELD: opening file: xx_sfl.0000000000.001.001.data
(PID.TID 0000.0001)  MDS_READ_FIELD: opening file: xx_sfl.0000000000.002.001.data
(PID.TID 0000.0001)  MDS_READ_FIELD: opening file: xx_sfl.0000000000.003.001.data
(PID.TID 0000.0001)  MDS_READ_FIELD: opening file: xx_sfl.0000000000.004.001.data
(PID.TID 0000.0001)  MDS_READ_FIELD: opening file: xx_sfl.0000000000.005.001.data
(PID.TID 0000.0001)  MDS_READ_FIELD: opening file: xx_sfl.0000000000.006.001.data
(PID.TID 0000.0001)  MDS_READ_FIELD: opening file: xx_hfl.0000000000.001.001.data
(PID.TID 0000.0001)  MDS_READ_FIELD: opening file: xx_hfl.0000000000.002.001.data
(PID.TID 0000.0001)  MDS_READ_FIELD: opening file: xx_hfl.0000000000.003.001.data
(PID.TID 0000.0001)  MDS_READ_FIELD: opening file: xx_hfl.0000000000.004.001.data
(PID.TID 0000.0001)  MDS_READ_FIELD: opening file: xx_hfl.0000000000.005.001.data
(PID.TID 0000.0001)  MDS_READ_FIELD: opening file: xx_hfl.0000000000.006.001.data
(PID.TID 0000.0001) SOLVE_FOR_PRESSURE: putPmEinXvector =    F
 cg2d: Sum(rhs),rhsMax =  -9.77706804405898E-12  4.27829651258201E+00
 cg2d: Sum(rhs),rhsMax =  -9.49285094975494E-12  4.27316012237895E+00
 cg2d: Sum(rhs),rhsMax =  -9.74864633462857E-12  4.26762372387557E+00
 cg2d: Sum(rhs),rhsMax =  -9.72022462519817E-12  4.26250700303667E+00
 cg2d: Sum(rhs),rhsMax =  -9.57811607804615E-12  4.25770388544138E+00
 cg2d: Sum(rhs),rhsMax =  -9.86233317235019E-12  4.25319684812137E+00
 cg2d: Sum(rhs),rhsMax =  -9.46442924032453E-12  4.24900187741474E+00
 cg2d: Sum(rhs),rhsMax =  -9.54969436861575E-12  4.24513385112940E+00
 cg2d: Sum(rhs),rhsMax =  -9.72022462519817E-12  4.24159887893947E+00
 cg2d: Sum(rhs),rhsMax =  -9.52127265918534E-12  4.23840118252576E+00
 cg2d: Sum(rhs),rhsMax =  -9.54969436861575E-12  4.23553910731538E+00
 cg2d: Sum(rhs),rhsMax =  -9.83391146291979E-12  4.23300290013564E+00
 cg2d: Sum(rhs),rhsMax =  -9.80548975348938E-12  4.23077337496350E+00
 cg2d: Sum(rhs),rhsMax =  -9.66338120633736E-12  4.22882245696565E+00
 cg2d: Sum(rhs),rhsMax =  -9.77706804405898E-12  4.22711469953150E+00
S/R EXTERNAL_FIELDS_LOAD: Reading new data:    1    2     72015  6.222096000000E+09
(PID.TID 0000.0001)  MDS_READ_FIELD: opening global file: trenberth_taux.bin
(PID.TID 0000.0001)  MDS_READ_FIELD: opening global file: trenberth_taux.bin
(PID.TID 0000.0001)  MDS_READ_FIELD: opening global file: trenberth_tauy.bin
(PID.TID 0000.0001)  MDS_READ_FIELD: opening global file: trenberth_tauy.bin
(PID.TID 0000.0001)  MDS_READ_FIELD: opening global file: shiQnet_cs32.bin
(PID.TID 0000.0001)  MDS_READ_FIELD: opening global file: shiQnet_cs32.bin
(PID.TID 0000.0001)  MDS_READ_FIELD: opening global file: shiEmPR_cs32.bin
(PID.TID 0000.0001)  MDS_READ_FIELD: opening global file: shiEmPR_cs32.bin
(PID.TID 0000.0001)  MDS_READ_FIELD: opening global file: lev_surfT_cs_12m.bin
(PID.TID 0000.0001)  MDS_READ_FIELD: opening global file: lev_surfT_cs_12m.bin
(PID.TID 0000.0001)  MDS_READ_FIELD: opening global file: lev_surfS_cs_12m.bin
(PID.TID 0000.0001)  MDS_READ_FIELD: opening global file: lev_surfS_cs_12m.bin
 cg2d: Sum(rhs),rhsMax =  -9.49285094975494E-12  4.22560897225903E+00
 cg2d: Sum(rhs),rhsMax =  -9.63495949690696E-12  4.22414668574739E+00
 cg2d: Sum(rhs),rhsMax =  -9.57811607804615E-12  4.22297626900009E+00
 cg2d: Sum(rhs),rhsMax =  -9.29389898374211E-12  4.22179769066799E+00
 cg2d: Sum(rhs),rhsMax =  -9.52127265918534E-12  4.22066224560078E+00
(PID.TID 0000.0001) Did not write pickup because writePickupAtEnd = FALSE
(PID.TID 0000.0001)  MDS_READ_FIELD: opening global file: lev_T_cs_15k.bin
 --> objf_test(bi,bj)   =  0.213716747113408E+05
 --> objf_tracer(bi,bj) =  0.000000000000000E+00
 --> objf_atl(bi,bj)    =  0.000000000000000E+00
 --> objf_test(bi,bj)   =  0.114870711260829E+05
 --> objf_tracer(bi,bj) =  0.000000000000000E+00
 --> objf_atl(bi,bj)    =  0.000000000000000E+00
 --> objf_test(bi,bj)   =  0.181705170176743E+05
 --> objf_tracer(bi,bj) =  0.000000000000000E+00
 --> objf_atl(bi,bj)    =  0.000000000000000E+00
 --> objf_test(bi,bj)   =  0.231600599827939E+05
 --> objf_tracer(bi,bj) =  0.000000000000000E+00
 --> objf_atl(bi,bj)    =  0.000000000000000E+00
 --> objf_test(bi,bj)   =  0.145354710876476E+05
 --> objf_tracer(bi,bj) =  0.000000000000000E+00
 --> objf_atl(bi,bj)    =  0.000000000000000E+00
 --> objf_test(bi,bj)   =  0.124705071217673E+05
 --> objf_tracer(bi,bj) =  0.000000000000000E+00
 --> objf_atl(bi,bj)    =  0.000000000000000E+00
  local fc =  0.101195301047307E+06
 global fc =  0.101195301047307E+06
 ph-check fcpertplus =   101195.301
(PID.TID 0000.0001)  MDS_READ_FIELD: opening file: xx_theta.0000000000.001.001.data
(PID.TID 0000.0001)  MDS_READ_FIELD: opening file: xx_theta.0000000000.002.001.data
(PID.TID 0000.0001)  MDS_READ_FIELD: opening file: xx_theta.0000000000.003.001.data
(PID.TID 0000.0001)  MDS_READ_FIELD: opening file: xx_theta.0000000000.004.001.data
(PID.TID 0000.0001)  MDS_READ_FIELD: opening file: xx_theta.0000000000.005.001.data
(PID.TID 0000.0001)  MDS_READ_FIELD: opening file: xx_theta.0000000000.006.001.data
 ph-check fcpertminus =   101195.264
(PID.TID 0000.0001)  MDS_READ_FIELD: opening file: xx_theta.0000000000.001.001.data
(PID.TID 0000.0001)  MDS_READ_FIELD: opening file: xx_theta.0000000000.002.001.data
(PID.TID 0000.0001)  MDS_READ_FIELD: opening file: xx_theta.0000000000.003.001.data
(PID.TID 0000.0001)  MDS_READ_FIELD: opening file: xx_theta.0000000000.004.001.data
(PID.TID 0000.0001)  MDS_READ_FIELD: opening file: xx_theta.0000000000.005.001.data
(PID.TID 0000.0001)  MDS_READ_FIELD: opening file: xx_theta.0000000000.006.001.data
(PID.TID 0000.0001)  MDS_READ_FIELD: opening global file: bathy_Hmin50.bin
(PID.TID 0000.0001) // =======================================================
(PID.TID 0000.0001) // Field Model R_low (ini_masks_etc) at iteration          1
(PID.TID 0000.0001) // CMIN =         -5.200000000000000E+03
(PID.TID 0000.0001) // CMAX =         -5.000000000000000E+01
(PID.TID 0000.0001) // CINT =          1.907407407407407E+02
(PID.TID 0000.0001) // SYMBOLS (CMIN->CMAX): -abcdefghijklmnopqrstuvwxyz+
(PID.TID 0000.0001) //                  0.0: .
(PID.TID 0000.0001) // RANGE I (Lo:Hi:Step):(    -3:   196:     1)
(PID.TID 0000.0001) // RANGE J (Lo:Hi:Step):(    36:    -3:    -1)
(PID.TID 0000.0001) // RANGE K (Lo:Hi:Step):(   1:   1:   1)
(PID.TID 0000.0001) // =======================================================
(PID.TID 0000.0001) K =   1
(PID.TID 0000.0001) //                I=6       I=16      I=26      I=36      I=38      I=48      I=58      I=68      I=70      I=80      I=90      I=100     I=102     I=112     I=122     I=132     I=134     I=144     I=154     I=164     I=166     I=176     I=186     I=196
(PID.TID 0000.0001) // |--J--|321012345|789012345|789012345|789012345|901234567|901234567|901234567|901234567|123456789|123456789|123456789|123456789|345678901|345678901|345678901|345678901|567890123|567890123|567890123|567890123|789012345|789012345|789012345|789012345|
(PID.TID 0000.0001) //     36 cbbc-ddcbcdehkhhmn..++..................................................okn.skko--a-fc----bba-cp.............tfeecccbbdeecccbbdeddedcdcccdddcddffggghiggfffdeeffijlihjlica---a--cgffel.+edfgeedflcbahgfllcbahgfllfhdffhkfffca-aady...llnabdoa--a
(PID.TID 0000.0001) //     35 dcac--cbbeefjkfefw+..........zpu........................................kqnzrqqk--b-da----bbbbfu..............fdddccaadcddccaadcdddcbbbbcdddcccdffffghgffffddefflligfiljfba---aafddehy...pwvlhfffcbagfccfcbagfcceeffffjlkjgaa---bfvheeln-aesaaab
(PID.TID 0000.0001) //     34 d--ba-abcehjnldcclz+........spps.......................................vkqn+xnnncabbcbba--aabfu+..............hcbaaaaaccbaaaaaccdccbaaabbddddccdffffghfeeeeedeffjiffefilhfcaaaacgceei.......zomggfcaecbbgfcaecbbccddefilihecbaacbaajfega-aesfeed
(PID.TID 0000.0001) //     33 --abbbccceiomkfdbbc+.......+s..........................................xsrxzz+z.fdcddb-----adu+...............hcbaa--accbaa--accddba--bbbddddccdfffhhgfeeddcceddhfeddfgikhfffdfgccffw........zohhgebbaaahgebbaaaaaccdfhlhfefdcccaabjefbaaafoosso
(PID.TID 0000.0001) //     32 --bddefhhkqqlgfaakqz..v.+..+.........................................++..u+....zigfdba----adu+................kdcaaa-acccaaa-accdcb---bbbcdddddefffggfeeedcccccbccbbdcdfgghhiihcbeiw.........+ynjgebaaaajgebaaaa-aacccfikkhecccbbbaaabaadfklnqpp
(PID.TID 0000.0001) //     31 abbcffijnpnqneaaat..umrr+s.z.........................................+++++.ztsvdlifeb--dfdfu+................+lkdca--abcdca--abcccb---bbbbddddeffflhfeeeecbbbbaaba-abbacbcdceffbbfw+..........++ujfbaaa-ujfbaaa----aacffiljgfffcca--adfikkiihhhf
(PID.TID 0000.0001) //     30 --adgillkkkifcadcx.ymmqzqikvnnps.....................................+++++wmegt-jlifcacdlqx+++...............mligea---abgea---abbbb---abaaddddeedkmeddefdbbbaaaabc---b--aaaaabaabm..............+viba---+viba-------acdefinmlgiieb-chnnnmlmlgffc
(PID.TID 0000.0001) //     29 --cfiljigfjd--efdozy...+ximpnnuz......................................+++yqddhp-iljhcbbchz+......++.........+mmhffc----affc----aaba------acdddcbcineddgdbaaa----cdd--a------aa-bfz...............+qe---a.+qe---aa---aedeegknmlgiigcdfhpokkimlfdb
(PID.TID 0000.0001) //     28 -abgkhfcccea-bdei........t............................................++zwgfcfk-gknhccbbhwwy.....+++........+njfeed-----eed-----aa-------abddcabcnfddegcaaa-----hlf------------dk+................+ja---..+ja------bffdddehfd--bedaacfhpnligiihd
(PID.TID 0000.0001) //     27 -acghfbaaaa-achmy......................+.......+++....................++vnbbbclefkpkeeecflmqxy....++........+lhfeecc----eecc------------aaadcbabcfhddccba-------zqd-----------irw.................++e---..++e-----mhmijddda--------ahhfiokhedegg
(PID.TID 0000.0001) //     26 -adhfca-----bfiv.......................+.......++sy...................+tq-fdbblcjknqiheddefhiksz++++........zkhfdccb----dccb------------aabdcaaaacfddbca-------a+xfa-abb-----vvv...................+wa--...+wa---mlmkijhc----------cjjffiheb-aad
(PID.TID 0000.0001) //     25 -achfa------ch+..................w.......w.......njo+................+x-----bcgidiqqojfefiiiijmy.++.........zkhfdbaa----dbaa-------daa---acccaaaacccca--------ac.+udaabbb----tei...................++qde...++qdeqnghiljcaaaaidaa----beedeeca--bb
(PID.TID 0000.0001) //     24 aaeifa--acbcei...................w.......w.......likn+.....++.....++znpa----bbdi-fnlmnjhinlksssw............qhfeca------ca--------addc--aeffaaaaaaccb-a----a--bd.++udbbaba---ven....................++xy....++xywnfgllcbbabegkecba----ddddcaacdc
(PID.TID 0000.0001) //     23 abfida-aabchjk...................zz......zz.....nhhijz....tqq.....+ujgzgd---abci-cegklkkknols..xuu..........zgfdba------ba--------bcd---affaaadffabbb-----aa-bcc.+.+ufb-----l.gx...........s.........++z.....++zzkfilfccccoz..ulkcd---bccnfddddd
(PID.TID 0000.0001) //     22 -afhfaa---bfgi....................zz..rn..zz..rnjffggm...nlmn+....+sffzya--aabcieaaffdfhimrmp...yuu.++.......zudba------ba--------adc---dda-adffe-aa--------aaac....+ufc-baaqvhh..........dcfeeh......++......++zggqvifefhz......zobbaccfwuffeee
(PID.TID 0000.0001) //     21 babcgca----abe.....................ysstl...ysstlgeeeeoz..ijklt+....lfjzzf---adfcfdaadcehllotq....yy+++zzs.....+zcba-----cba-------cdd--aaa----df------------aaac.....+upjdcy.vohq.......+idcdfeeefwz....efwz....+hhn.vklox.........gdccfjwrigffh
(PID.TID 0000.0001) //     20 fbbbcgfcaa-aae+.......................lc......lcgfdddhq.+hiilnz++.+oquxyz--adgkfdcaabcfmtooyxz......+yuiiy....++gb------gb--------ddcca-a-----acbaa------bbaaaab........ywxy.lulo.lv...kcdgddffefffilyx+fffilyx+fffk.+xyyy.........mgeimvskjklll
(PID.TID 0000.0001) //     19 zmfeccdghfeegcbt......................aa......aafifccgnrzgghjry.+++sr+lq.--edfkkoxtkblwnnsp.vv......skhggt...+++t-------t---------bdaf---------edd-------adlaaaa+..........vnhzy.tllqiedccdhggfggffiiggfgffiiggfcbdgy..yz..........xigqophijkkii
(PID.TID 0000.0001) //     18 ..wifedfkhfegbbcivlqfoz..............jaa.....jaacfihggokeeffgt..++++..hhlfdeddkez..qcz+.zwxtsttz..ysrkhot++++++zig------ig--------b--f---------egqqqaa----frb---+........+kkrhw.vqmlnieddcdehgggffgigedbffgigedbaaceiy.............zilrddefikkhh
(PID.TID 0000.0001) //     17 ..+wfeefikhgcbbccaaacgn.............icaa....icaaccfihfoedddeedy..++...nnqwgfeekeyy.z++..+zsjjllllljllpjos+++.+zhhi-----ehi-----e-----ea--------foqqoqqo--hlwgea-.........+nk+..xiioonhfefddegihhghigfdbaghigfdbaaabdgx..............nheddefiklhg
(PID.TID 0000.0001) //     16 ....wiheddeccdfhfbabdfl............jdbad...jdbaddddgifkccccdccd+.++..++ynvz.tkkq.mu....++zyslllllkhggkmpy++...ihhi-----ehi-----ea---feb-----a-acnoohfghknvmwnuca..........qhu..hhhkojgffgeefghihhiieedbahiieedbaaabcdy..............ygddeghiljgf
(PID.TID 0000.0001) //     15 ......ylea--acfihebcbbes..........sfcbbn..sfcbbngfffigcaaabdbcac+.+++++zgmpx...y.mm....++..zslwz.yhhhhnz+++...rhgc----abgc----ab----ige----acaaalllkddfiy..yswxb..........thk.xgghiligfghfefhhhhiiheedcdiiheedcdbbabdmz.............zfdeghikkifd
(PID.TID 0000.0001) //     14 ........c---acgkhdcc--di..........ofddch..ofddchohffikaaaaabaaa-aw+.+ysnggox++...qrv..........yzzzzrjil+++....qhgd-----agd-----a-----i---cccdeabkklldinqssy..xxv...........+y.uhghikihgfghefgihhhgeeeeedhgeeeeeddbaadhw.............nedeghjjhfed
(PID.TID 0000.0001) //     13 .......+b----cfkhec---afz.........nhfdff..nhfdffholghkaaaaaba-a---flkkuswyy++++y+zr...........zzzzz++ry++......yd-------d--------------aeecdeidfkkqnqlmqquukqqmf..............iihiijjhfefgefhjihiffgggffiffgggffecaabelx...........zjecehijhfecc
(PID.TID 0000.0001) //     12 .......ec----chjhec---ag..........skiqdd..skiqddeiiiifaaabae--a---dd--iu+++.+++sxq++..........+z+++++.+++....++.s-------s------------a-ceccdejhlllkqlkklssiccdee.............wjkkkjjjigeefffgjiiighiiihhighiiihhhdaabdffghtxx......mfccehjiffdb-
(PID.TID 0000.0001) //     11 ......pdca--achlheba--ai..........nkn.fd..nkn.fdemijidaaaabi-------a--q+....++.ziis...........+++++..........+yyza----b-za----b-----a--ccccddkhieekkossssfbbbbcd............njjijhhihijhgggggjjjjijkkkkjjijkkkkjjhcaacddeegpy.....xfdccdhjgfdda-
(PID.TID 0000.0001) //     10 ......wfdb--achlhea---an.........uos..dc.uos..dcemikkfdcaabi-------equ+.........mk...........................zyvuq----ccuq----cc----a---dcfhkopqjeissrnpfbbcccde..........zslihhigghgijjihhhhkllkkkkkkjkkkkkkkjkkkedccdeeeeipz..zwhccbcdhgfddcam
(PID.TID 0000.0001) //      9 ......vgec---bfikca--cjl+.......+nnv.+cc+nnv.+ccffhkkiddaadha-----as++..........pvz++........................zxuuk------uk------a---a----djmqrrnlllsoiddcccccdjf.........+zjijhfgfggffhjkkkiillljihhghgijihhghgihighdeeffgghimnnjgecbbcdgfeccbas
(PID.TID 0000.0001) //      8 .....zleca---afjfca--hdfz.......vkky.jcevkky.jceddefijffdddhb--a-afv............nn..ss.........................+yku-----yku--------------ejnpqqnninnritqdccchkmf+.......wihgghgeffffeefhijkjkljiigeeffefigeeffefffhjhhikkklljklmhffeeeggfdcbaay.
(PID.TID 0000.0001) //      7 ...+zohec--abcfkhecbchbdx.......qiht.faaqiht.faaaabdgijgfededcdcb-f+............nn...pz.........................+zu-----+zu--------------edefqgqddsz+......+yuddmm+....tiggfggfeeeefeeefiiiijkiihhedddddhheddddddddjjllliijhfkmmkkjjhijgdcba--q.
(PID.TID 0000.0001) //      6 ..+yomfddcaabefkifdchaadt......uqdeisc--qdeisc----dfefgifffkklldc--v............up...pp.........................v.x-----v.x---------a----fbbpqgzenx+........zdbcmllkhhfffffffgfeeeeeeeefhhhhijihhffddcbbhffddcbbbbdhhiihedddb-cfhhhjjjieca----+.
(PID.TID 0000.0001) //      5 ..+nhgffkghccfhkhffgdaackz....uoibcimlaaibcimlaaacfbddfjjhijeehf-a-c............zs...su.........................qk.yi---qk.yi-------gha-fjddqs+xkrz.........q-bchikdccdeeeeeeedddedddddgghhhhjhhgffcbbaagffcbbaaaaddfegecca----dfeefhfgdb-----+.
(PID.TID 0000.0001) //      4 .+ujhgfllfhdffhkfffca-aady...llnabdopfcbabdopfcbdgdbcdehlihgfddc--ms............................................okn.zd--okn.zd---eciiiicfkeeqy.ysz..........n-aafgdcbbdeddedcdcccdddcddffggghiggfffdbaa-fffdbaa---acdcccba--abvfedeffdcca----b+.
(PID.TID 0000.0001) //      3 +vjggfcceeffffjlkjgaa---bfvheeln-aesphfd-aesphfdhgabddeflihhgfecbaaayq+++++.....................................kqnz.vtpkqnz.vtpkllgdccfkkkkk..++..........+g---fecaaadcdddcbbbbcdddcccdffffghgffffdcaa-fffdcaa----abcaaaa-acxxmecdjmdbba----r+.
(PID.TID 0000.0001) //      2 qifeecbbccddefilihecbaacbaajfega-aesqhff-aesqhffiea-cdeflkkljifeddcba---bry+...................................vkqn+.sghkqn+.sghfcbcbbbdgfdek.++++.........+l---caaaaaccdccbaaabbddddccdffffghfeeeeecba-eeeecba------baaaa-euwxqdbcdkud-----sy+.
(PID.TID 0000.0001) //      1 ebbbbaaaaaccdfhlhfefdcccaabjefbaaafonhglaafonhglid--adfgkkkklkhffddca-----s++++................................xsrxz.tedsrxz.tedcbbbbaaadddet.++++.........+l------a-accddba--bbbddddccdfffhhgfeeddccba-eddccba-------aaaabgns.qcbcchyzqngll++..
(PID.TID 0000.0001) //      0 -aaaaaaa-aacccfikkhecccbbbaaabaadfkllilmdfkllilmgebaadfijjiiikjhffdcba-----lllgn.............................++..u+..zmd.u+..zmdfbd---a-aeef.xx+..........+++s-------accdcb---bbbcdddddefffggfeeedcccbbaedcccbba----aa--alrwwy.kcbccc+...++++...
(PID.TID 0000.0001) //     -1 --aaaaa----aacffiljgfffcca--adfikkiikimikkiikimiiheccfurkiffhijjigfecb-----l----.............................+++++.z+.wq++.z+.wqgbf-------dgzpoy+........+ys+yrb--aa-abcccb---bbbbddddeffflhfeeeecbbcbbaecbbcbbaa----a--bdflm.yuibbcc.......+...
(PID.TID 0000.0001) //     -2 --aaa-------acdefinmlgiieb-chnnnmlmlfklkmlmlfklklkhednwwsheeghhijjgfdca----g---a.............................+++++wmu++y++wmu++ywn--------fwvmgy+........+r-.+++-abc--abbbb---abaaddddeedkmeddefdbbbdcbadbbbdcbaa-------ba-hv.susfbcc.......+...
(PID.TID 0000.0001) //     -3 a--a---aa---aedeegknmlgiigcdfhpokkimdkmkkkimdkmknoiedcfjvpddegghhhhgfdcbaa-n---a..............................+++yqd.++++yqd.+++zvq--dafz.lqnggw+........+b-....abcc---aaba------acdddcbcineddgdbaaaeedbbaaaeedbaa----------nysqssfcd...........
(PID.TID 0000.0001) // =======================================================
(PID.TID 0000.0001) // END OF FIELD                                          =
(PID.TID 0000.0001) // =======================================================
(PID.TID 0000.0001) 
(PID.TID 0000.0001) // =======================================================
(PID.TID 0000.0001) // Field Model Ro_surf (ini_masks_etc) at iteration          1
(PID.TID 0000.0001) // CMIN =         -7.105427357601002E-15
(PID.TID 0000.0001) // CMAX =         -7.105427357601002E-15
(PID.TID 0000.0001) // CINT =          0.000000000000000E+00
(PID.TID 0000.0001) // SYMBOLS (CMIN->CMAX): -abcdefghijklmnopqrstuvwxyz+
(PID.TID 0000.0001) //                  0.0: .
(PID.TID 0000.0001) // RANGE I (Lo:Hi:Step):(    -3:   196:     1)
(PID.TID 0000.0001) // RANGE J (Lo:Hi:Step):(    36:    -3:    -1)
(PID.TID 0000.0001) // RANGE K (Lo:Hi:Step):(   1:   1:   1)
(PID.TID 0000.0001) // =======================================================
(PID.TID 0000.0001) // =======================================================
(PID.TID 0000.0001) // END OF FIELD                                          =
(PID.TID 0000.0001) // =======================================================
(PID.TID 0000.0001) 
(PID.TID 0000.0001) // =======================================================
(PID.TID 0000.0001) // Field hFacC at iteration          1
(PID.TID 0000.0001) // CMIN =          1.000000000000000E+00
(PID.TID 0000.0001) // CMAX =          1.000000000000000E+00
(PID.TID 0000.0001) // CINT =          0.000000000000000E+00
(PID.TID 0000.0001) // SYMBOLS (CMIN->CMAX): -abcdefghijklmnopqrstuvwxyz+
(PID.TID 0000.0001) //                  0.0: .
(PID.TID 0000.0001) // RANGE I (Lo:Hi:Step):(    -3:   196:     1)
(PID.TID 0000.0001) // RANGE J (Lo:Hi:Step):(    36:    -3:    -1)
(PID.TID 0000.0001) // RANGE K (Lo:Hi:Step):(   1:   1:   1)
(PID.TID 0000.0001) // =======================================================
(PID.TID 0000.0001) // =======================================================
(PID.TID 0000.0001) // END OF FIELD                                          =
(PID.TID 0000.0001) // =======================================================
(PID.TID 0000.0001) 
(PID.TID 0000.0001) // =======================================================
(PID.TID 0000.0001) // Field hFacW at iteration          1
(PID.TID 0000.0001) // CMIN =          1.000000000000000E+00
(PID.TID 0000.0001) // CMAX =          1.000000000000000E+00
(PID.TID 0000.0001) // CINT =          0.000000000000000E+00
(PID.TID 0000.0001) // SYMBOLS (CMIN->CMAX): -abcdefghijklmnopqrstuvwxyz+
(PID.TID 0000.0001) //                  0.0: .
(PID.TID 0000.0001) // RANGE I (Lo:Hi:Step):(    -3:   196:     1)
(PID.TID 0000.0001) // RANGE J (Lo:Hi:Step):(    36:    -3:    -1)
(PID.TID 0000.0001) // RANGE K (Lo:Hi:Step):(   1:   1:   1)
(PID.TID 0000.0001) // =======================================================
(PID.TID 0000.0001) // =======================================================
(PID.TID 0000.0001) // END OF FIELD                                          =
(PID.TID 0000.0001) // =======================================================
(PID.TID 0000.0001) 
(PID.TID 0000.0001) // =======================================================
(PID.TID 0000.0001) // Field hFacS at iteration          1
(PID.TID 0000.0001) // CMIN =          1.000000000000000E+00
(PID.TID 0000.0001) // CMAX =          1.000000000000000E+00
(PID.TID 0000.0001) // CINT =          0.000000000000000E+00
(PID.TID 0000.0001) // SYMBOLS (CMIN->CMAX): -abcdefghijklmnopqrstuvwxyz+
(PID.TID 0000.0001) //                  0.0: .
(PID.TID 0000.0001) // RANGE I (Lo:Hi:Step):(    -3:   196:     1)
(PID.TID 0000.0001) // RANGE J (Lo:Hi:Step):(    36:    -3:    -1)
(PID.TID 0000.0001) // RANGE K (Lo:Hi:Step):(   1:   1:   1)
(PID.TID 0000.0001) // =======================================================
(PID.TID 0000.0001) // =======================================================
(PID.TID 0000.0001) // END OF FIELD                                          =
(PID.TID 0000.0001) // =======================================================
(PID.TID 0000.0001) 
(PID.TID 0000.0001) INI_CG2D: CG2D normalisation factor =  1.9156564154949553E-04
(PID.TID 0000.0001) INI_CG2D: cg2dTolerance = 5.809016360175293E-07 (Area=3.6388673751E+14)
(PID.TID 0000.0001) 
(PID.TID 0000.0001)  MDS_READ_META: opening file: pickup.0000072000.meta
(PID.TID 0000.0001)  nRecords = 123 ; filePrec =  64 ; fileIter =     72000
(PID.TID 0000.0001)     nDims =   2 , dims:
(PID.TID 0000.0001)    1: 192   1 192
(PID.TID 0000.0001)    2:  32   1  32
(PID.TID 0000.0001)     nFlds =  11 , nFl3D =   8 , fields:
(PID.TID 0000.0001)  >Uvel    < >GuNm1   < >Vvel    < >GvNm1   < >Theta   < >GtNm1   < >Salt    < >GsNm1   < >EtaN    < >dEtaHdt < >EtaH    <
(PID.TID 0000.0001)   nTimRec =   0 , timeList:
(PID.TID 0000.0001) READ_MFLDS_3D_RL: read field: "Uvel    ", #   1 in fldList, rec=   1
(PID.TID 0000.0001)  MDS_READ_FIELD: opening global file: pickup.0000072000
(PID.TID 0000.0001) READ_MFLDS_3D_RL: read field: "Vvel    ", #   3 in fldList, rec=   3
(PID.TID 0000.0001)  MDS_READ_FIELD: opening global file: pickup.0000072000
(PID.TID 0000.0001) READ_MFLDS_3D_RL: read field: "Theta   ", #   5 in fldList, rec=   5
(PID.TID 0000.0001)  MDS_READ_FIELD: opening global file: pickup.0000072000
(PID.TID 0000.0001) READ_MFLDS_3D_RL: read field: "Salt    ", #   7 in fldList, rec=   7
(PID.TID 0000.0001)  MDS_READ_FIELD: opening global file: pickup.0000072000
(PID.TID 0000.0001) READ_MFLDS_3D_RL: read field: "GuNm1   ", #   2 in fldList, rec=   2
(PID.TID 0000.0001)  MDS_READ_FIELD: opening global file: pickup.0000072000
(PID.TID 0000.0001) READ_MFLDS_3D_RL: field: "GuNm2   " missing in file: pickup.0000072000
(PID.TID 0000.0001) READ_MFLDS_3D_RL: read field: "GvNm1   ", #   4 in fldList, rec=   4
(PID.TID 0000.0001)  MDS_READ_FIELD: opening global file: pickup.0000072000
(PID.TID 0000.0001) READ_MFLDS_3D_RL: field: "GvNm2   " missing in file: pickup.0000072000
(PID.TID 0000.0001) READ_MFLDS_3D_RL: read field: "EtaN    ", #   9 in fldList, rec= 121
(PID.TID 0000.0001)  MDS_READ_FIELD: opening global file: pickup.0000072000
(PID.TID 0000.0001) READ_MFLDS_3D_RL: read field: "dEtaHdt ", #  10 in fldList, rec= 122
(PID.TID 0000.0001)  MDS_READ_FIELD: opening global file: pickup.0000072000
(PID.TID 0000.0001) READ_MFLDS_3D_RL: read field: "EtaH    ", #  11 in fldList, rec= 123
(PID.TID 0000.0001)  MDS_READ_FIELD: opening global file: pickup.0000072000
(PID.TID 0000.0001)  MDS_READ_FIELD: opening global file: trenberth_taux.bin
(PID.TID 0000.0001)  MDS_READ_FIELD: opening global file: trenberth_tauy.bin
(PID.TID 0000.0001)  MDS_READ_FIELD: opening global file: shiQnet_cs32.bin
(PID.TID 0000.0001)  MDS_READ_FIELD: opening global file: shiEmPR_cs32.bin
(PID.TID 0000.0001)  MDS_READ_FIELD: opening global file: lev_surfT_cs_12m.bin
(PID.TID 0000.0001)  MDS_READ_FIELD: opening global file: lev_surfS_cs_12m.bin
(PID.TID 0000.0001)  MDS_READ_FIELD: opening file: xx_theta.0000000000.001.001.data
(PID.TID 0000.0001)  MDS_READ_FIELD: opening file: xx_theta.0000000000.002.001.data
(PID.TID 0000.0001)  MDS_READ_FIELD: opening file: xx_theta.0000000000.003.001.data
(PID.TID 0000.0001)  MDS_READ_FIELD: opening file: xx_theta.0000000000.004.001.data
(PID.TID 0000.0001)  MDS_READ_FIELD: opening file: xx_theta.0000000000.005.001.data
(PID.TID 0000.0001)  MDS_READ_FIELD: opening file: xx_theta.0000000000.006.001.data
(PID.TID 0000.0001)  MDS_READ_FIELD: opening file: xx_salt.0000000000.001.001.data
(PID.TID 0000.0001)  MDS_READ_FIELD: opening file: xx_salt.0000000000.002.001.data
(PID.TID 0000.0001)  MDS_READ_FIELD: opening file: xx_salt.0000000000.003.001.data
(PID.TID 0000.0001)  MDS_READ_FIELD: opening file: xx_salt.0000000000.004.001.data
(PID.TID 0000.0001)  MDS_READ_FIELD: opening file: xx_salt.0000000000.005.001.data
(PID.TID 0000.0001)  MDS_READ_FIELD: opening file: xx_salt.0000000000.006.001.data
(PID.TID 0000.0001)  MDS_READ_FIELD: opening file: xx_diffkr.0000000000.001.001.data
(PID.TID 0000.0001)  MDS_READ_FIELD: opening file: xx_diffkr.0000000000.002.001.data
(PID.TID 0000.0001)  MDS_READ_FIELD: opening file: xx_diffkr.0000000000.003.001.data
(PID.TID 0000.0001)  MDS_READ_FIELD: opening file: xx_diffkr.0000000000.004.001.data
(PID.TID 0000.0001)  MDS_READ_FIELD: opening file: xx_diffkr.0000000000.005.001.data
(PID.TID 0000.0001)  MDS_READ_FIELD: opening file: xx_diffkr.0000000000.006.001.data
(PID.TID 0000.0001) // =======================================================
(PID.TID 0000.0001) // Model current state
(PID.TID 0000.0001) // =======================================================
(PID.TID 0000.0001) 
S/R EXTERNAL_FIELDS_LOAD: Reading new data:   12    1     72000  6.220800000000E+09
(PID.TID 0000.0001)  MDS_READ_FIELD: opening global file: trenberth_taux.bin
(PID.TID 0000.0001)  MDS_READ_FIELD: opening global file: trenberth_taux.bin
(PID.TID 0000.0001)  MDS_READ_FIELD: opening global file: trenberth_tauy.bin
(PID.TID 0000.0001)  MDS_READ_FIELD: opening global file: trenberth_tauy.bin
(PID.TID 0000.0001)  MDS_READ_FIELD: opening global file: shiQnet_cs32.bin
(PID.TID 0000.0001)  MDS_READ_FIELD: opening global file: shiQnet_cs32.bin
(PID.TID 0000.0001)  MDS_READ_FIELD: opening global file: shiEmPR_cs32.bin
(PID.TID 0000.0001)  MDS_READ_FIELD: opening global file: shiEmPR_cs32.bin
(PID.TID 0000.0001)  MDS_READ_FIELD: opening global file: lev_surfT_cs_12m.bin
(PID.TID 0000.0001)  MDS_READ_FIELD: opening global file: lev_surfT_cs_12m.bin
(PID.TID 0000.0001)  MDS_READ_FIELD: opening global file: lev_surfS_cs_12m.bin
(PID.TID 0000.0001)  MDS_READ_FIELD: opening global file: lev_surfS_cs_12m.bin
(PID.TID 0000.0001)  MDS_READ_FIELD: opening file: xx_tauu.0000000000.001.001.data
(PID.TID 0000.0001)  MDS_READ_FIELD: opening file: xx_tauu.0000000000.002.001.data
(PID.TID 0000.0001)  MDS_READ_FIELD: opening file: xx_tauu.0000000000.003.001.data
(PID.TID 0000.0001)  MDS_READ_FIELD: opening file: xx_tauu.0000000000.004.001.data
(PID.TID 0000.0001)  MDS_READ_FIELD: opening file: xx_tauu.0000000000.005.001.data
(PID.TID 0000.0001)  MDS_READ_FIELD: opening file: xx_tauu.0000000000.006.001.data
(PID.TID 0000.0001)  MDS_READ_FIELD: opening file: xx_tauv.0000000000.001.001.data
(PID.TID 0000.0001)  MDS_READ_FIELD: opening file: xx_tauv.0000000000.002.001.data
(PID.TID 0000.0001)  MDS_READ_FIELD: opening file: xx_tauv.0000000000.003.001.data
(PID.TID 0000.0001)  MDS_READ_FIELD: opening file: xx_tauv.0000000000.004.001.data
(PID.TID 0000.0001)  MDS_READ_FIELD: opening file: xx_tauv.0000000000.005.001.data
(PID.TID 0000.0001)  MDS_READ_FIELD: opening file: xx_tauv.0000000000.006.001.data
(PID.TID 0000.0001)  MDS_READ_FIELD: opening file: xx_sfl.0000000000.001.001.data
(PID.TID 0000.0001)  MDS_READ_FIELD: opening file: xx_sfl.0000000000.002.001.data
(PID.TID 0000.0001)  MDS_READ_FIELD: opening file: xx_sfl.0000000000.003.001.data
(PID.TID 0000.0001)  MDS_READ_FIELD: opening file: xx_sfl.0000000000.004.001.data
(PID.TID 0000.0001)  MDS_READ_FIELD: opening file: xx_sfl.0000000000.005.001.data
(PID.TID 0000.0001)  MDS_READ_FIELD: opening file: xx_sfl.0000000000.006.001.data
(PID.TID 0000.0001)  MDS_READ_FIELD: opening file: xx_hfl.0000000000.001.001.data
(PID.TID 0000.0001)  MDS_READ_FIELD: opening file: xx_hfl.0000000000.002.001.data
(PID.TID 0000.0001)  MDS_READ_FIELD: opening file: xx_hfl.0000000000.003.001.data
(PID.TID 0000.0001)  MDS_READ_FIELD: opening file: xx_hfl.0000000000.004.001.data
(PID.TID 0000.0001)  MDS_READ_FIELD: opening file: xx_hfl.0000000000.005.001.data
(PID.TID 0000.0001)  MDS_READ_FIELD: opening file: xx_hfl.0000000000.006.001.data
(PID.TID 0000.0001) SOLVE_FOR_PRESSURE: putPmEinXvector =    F
 cg2d: Sum(rhs),rhsMax =  -9.77706804405898E-12  4.27829651258201E+00
 cg2d: Sum(rhs),rhsMax =  -1.00044417195022E-11  4.27316012278118E+00
 cg2d: Sum(rhs),rhsMax =  -9.91917659121100E-12  4.26762372445847E+00
 cg2d: Sum(rhs),rhsMax =  -9.89075488178059E-12  4.26250700472070E+00
 cg2d: Sum(rhs),rhsMax =  -9.43600753089413E-12  4.25770388845405E+00
 cg2d: Sum(rhs),rhsMax =  -9.86233317235019E-12  4.25319685254106E+00
 cg2d: Sum(rhs),rhsMax =  -9.57811607804615E-12  4.24900188318967E+00
 cg2d: Sum(rhs),rhsMax =  -1.00328634289326E-11  4.24513385807277E+00
 cg2d: Sum(rhs),rhsMax =  -9.74864633462857E-12  4.24159888677718E+00
 cg2d: Sum(rhs),rhsMax =  -1.01749719760846E-11  4.23840119094698E+00
 cg2d: Sum(rhs),rhsMax =  -9.80548975348938E-12  4.23553911608009E+00
 cg2d: Sum(rhs),rhsMax =  -9.77706804405898E-12  4.23300290910564E+00
 cg2d: Sum(rhs),rhsMax =  -9.66338120633736E-12  4.23077338404495E+00
 cg2d: Sum(rhs),rhsMax =  -9.12336872715969E-12  4.22882246603074E+00
 cg2d: Sum(rhs),rhsMax =  -9.80548975348938E-12  4.22711470833936E+00
S/R EXTERNAL_FIELDS_LOAD: Reading new data:    1    2     72015  6.222096000000E+09
(PID.TID 0000.0001)  MDS_READ_FIELD: opening global file: trenberth_taux.bin
(PID.TID 0000.0001)  MDS_READ_FIELD: opening global file: trenberth_taux.bin
(PID.TID 0000.0001)  MDS_READ_FIELD: opening global file: trenberth_tauy.bin
(PID.TID 0000.0001)  MDS_READ_FIELD: opening global file: trenberth_tauy.bin
(PID.TID 0000.0001)  MDS_READ_FIELD: opening global file: shiQnet_cs32.bin
(PID.TID 0000.0001)  MDS_READ_FIELD: opening global file: shiQnet_cs32.bin
(PID.TID 0000.0001)  MDS_READ_FIELD: opening global file: shiEmPR_cs32.bin
(PID.TID 0000.0001)  MDS_READ_FIELD: opening global file: shiEmPR_cs32.bin
(PID.TID 0000.0001)  MDS_READ_FIELD: opening global file: lev_surfT_cs_12m.bin
(PID.TID 0000.0001)  MDS_READ_FIELD: opening global file: lev_surfT_cs_12m.bin
(PID.TID 0000.0001)  MDS_READ_FIELD: opening global file: lev_surfS_cs_12m.bin
(PID.TID 0000.0001)  MDS_READ_FIELD: opening global file: lev_surfS_cs_12m.bin
 cg2d: Sum(rhs),rhsMax =  -9.35074240260292E-12  4.22560898052677E+00
 cg2d: Sum(rhs),rhsMax =  -9.74864633462857E-12  4.22414669313628E+00
 cg2d: Sum(rhs),rhsMax =  -9.89075488178059E-12  4.22297627522703E+00
 cg2d: Sum(rhs),rhsMax =  -9.91917659121100E-12  4.22179769554195E+00
 cg2d: Sum(rhs),rhsMax =  -9.57811607804615E-12  4.22066224904267E+00
(PID.TID 0000.0001) Did not write pickup because writePickupAtEnd = FALSE
(PID.TID 0000.0001)  MDS_READ_FIELD: opening global file: lev_T_cs_15k.bin
 --> objf_test(bi,bj)   =  0.213716134713440E+05
 --> objf_tracer(bi,bj) =  0.000000000000000E+00
 --> objf_atl(bi,bj)    =  0.000000000000000E+00
 --> objf_test(bi,bj)   =  0.114870711251828E+05
 --> objf_tracer(bi,bj) =  0.000000000000000E+00
 --> objf_atl(bi,bj)    =  0.000000000000000E+00
 --> objf_test(bi,bj)   =  0.181705170179230E+05
 --> objf_tracer(bi,bj) =  0.000000000000000E+00
 --> objf_atl(bi,bj)    =  0.000000000000000E+00
 --> objf_test(bi,bj)   =  0.231600599827264E+05
 --> objf_tracer(bi,bj) =  0.000000000000000E+00
 --> objf_atl(bi,bj)    =  0.000000000000000E+00
 --> objf_test(bi,bj)   =  0.145354692620559E+05
 --> objf_tracer(bi,bj) =  0.000000000000000E+00
 --> objf_atl(bi,bj)    =  0.000000000000000E+00
 --> objf_test(bi,bj)   =  0.124704954854560E+05
 --> objf_tracer(bi,bj) =  0.000000000000000E+00
 --> objf_atl(bi,bj)    =  0.000000000000000E+00
  local fc =  0.101195226344688E+06
 global fc =  0.101195226344688E+06
(PID.TID 0000.0001)  MDS_READ_FIELD: opening file: xx_theta.0000000000.001.001.data
(PID.TID 0000.0001)  MDS_READ_FIELD: opening file: xx_theta.0000000000.002.001.data
(PID.TID 0000.0001)  MDS_READ_FIELD: opening file: xx_theta.0000000000.003.001.data
(PID.TID 0000.0001)  MDS_READ_FIELD: opening file: xx_theta.0000000000.004.001.data
(PID.TID 0000.0001)  MDS_READ_FIELD: opening file: xx_theta.0000000000.005.001.data
(PID.TID 0000.0001)  MDS_READ_FIELD: opening file: xx_theta.0000000000.006.001.data
grad-res -------------------------------
 grad-res     0    2    2    1    1    1    1    1   0.101195263679E+06 0.101195301047E+06 0.101195226345E+06
 grad-res     0    2    2    2  639    1    1    1   0.373506461763E+01 0.373513093291E+01 -.177547872198E-04
(PID.TID 0000.0001)   ADM  precision_derivative_cost =    1.01195263678726E+05
(PID.TID 0000.0001)   ADM  precision_derivative_grad =    3.73506461763213E+00
 ph-grd  ierr ---------------------------
 ph-grd  ierr =  0, icomp =  2, ichknum =  2
 ph-grd -->hit<--  3 1 1 1
(PID.TID 0000.0001)  MDS_READ_FIELD: opening file: adxx_theta.0000000000.001.001.data
(PID.TID 0000.0001)  MDS_READ_FIELD: opening file: adxx_theta.0000000000.002.001.data
(PID.TID 0000.0001)  MDS_READ_FIELD: opening file: adxx_theta.0000000000.003.001.data
(PID.TID 0000.0001)  MDS_READ_FIELD: opening file: adxx_theta.0000000000.004.001.data
(PID.TID 0000.0001)  MDS_READ_FIELD: opening file: adxx_theta.0000000000.005.001.data
(PID.TID 0000.0001)  MDS_READ_FIELD: opening file: adxx_theta.0000000000.006.001.data
(PID.TID 0000.0001)  MDS_READ_FIELD: opening file: xx_theta.0000000000.001.001.data
(PID.TID 0000.0001)  MDS_READ_FIELD: opening file: xx_theta.0000000000.002.001.data
(PID.TID 0000.0001)  MDS_READ_FIELD: opening file: xx_theta.0000000000.003.001.data
(PID.TID 0000.0001)  MDS_READ_FIELD: opening file: xx_theta.0000000000.004.001.data
(PID.TID 0000.0001)  MDS_READ_FIELD: opening file: xx_theta.0000000000.005.001.data
(PID.TID 0000.0001)  MDS_READ_FIELD: opening file: xx_theta.0000000000.006.001.data
(PID.TID 0000.0001)  MDS_READ_FIELD: opening global file: bathy_Hmin50.bin
(PID.TID 0000.0001) // =======================================================
(PID.TID 0000.0001) // Field Model R_low (ini_masks_etc) at iteration          1
(PID.TID 0000.0001) // CMIN =         -5.200000000000000E+03
(PID.TID 0000.0001) // CMAX =         -5.000000000000000E+01
(PID.TID 0000.0001) // CINT =          1.907407407407407E+02
(PID.TID 0000.0001) // SYMBOLS (CMIN->CMAX): -abcdefghijklmnopqrstuvwxyz+
(PID.TID 0000.0001) //                  0.0: .
(PID.TID 0000.0001) // RANGE I (Lo:Hi:Step):(    -3:   196:     1)
(PID.TID 0000.0001) // RANGE J (Lo:Hi:Step):(    36:    -3:    -1)
(PID.TID 0000.0001) // RANGE K (Lo:Hi:Step):(   1:   1:   1)
(PID.TID 0000.0001) // =======================================================
(PID.TID 0000.0001) K =   1
(PID.TID 0000.0001) //                I=6       I=16      I=26      I=36      I=38      I=48      I=58      I=68      I=70      I=80      I=90      I=100     I=102     I=112     I=122     I=132     I=134     I=144     I=154     I=164     I=166     I=176     I=186     I=196
(PID.TID 0000.0001) // |--J--|321012345|789012345|789012345|789012345|901234567|901234567|901234567|901234567|123456789|123456789|123456789|123456789|345678901|345678901|345678901|345678901|567890123|567890123|567890123|567890123|789012345|789012345|789012345|789012345|
(PID.TID 0000.0001) //     36 cbbc-ddcbcdehkhhmn..++..................................................okn.skko--a-fc----bba-cp.............tfeecccbbdeecccbbdeddedcdcccdddcddffggghiggfffdeeffijlihjlica---a--cgffel.+edfgeedflcbahgfllcbahgfllfhdffhkfffca-aady...llnabdoa--a
(PID.TID 0000.0001) //     35 dcac--cbbeefjkfefw+..........zpu........................................kqnzrqqk--b-da----bbbbfu..............fdddccaadcddccaadcdddcbbbbcdddcccdffffghgffffddefflligfiljfba---aafddehy...pwvlhfffcbagfccfcbagfcceeffffjlkjgaa---bfvheeln-aesaaab
(PID.TID 0000.0001) //     34 d--ba-abcehjnldcclz+........spps.......................................vkqn+xnnncabbcbba--aabfu+..............hcbaaaaaccbaaaaaccdccbaaabbddddccdffffghfeeeeedeffjiffefilhfcaaaacgceei.......zomggfcaecbbgfcaecbbccddefilihecbaacbaajfega-aesfeed
(PID.TID 0000.0001) //     33 --abbbccceiomkfdbbc+.......+s..........................................xsrxzz+z.fdcddb-----adu+...............hcbaa--accbaa--accddba--bbbddddccdfffhhgfeeddcceddhfeddfgikhfffdfgccffw........zohhgebbaaahgebbaaaaaccdfhlhfefdcccaabjefbaaafoosso
(PID.TID 0000.0001) //     32 --bddefhhkqqlgfaakqz..v.+..+.........................................++..u+....zigfdba----adu+................kdcaaa-acccaaa-accdcb---bbbcdddddefffggfeeedcccccbccbbdcdfgghhiihcbeiw.........+ynjgebaaaajgebaaaa-aacccfikkhecccbbbaaabaadfklnqpp
(PID.TID 0000.0001) //     31 abbcffijnpnqneaaat..umrr+s.z.........................................+++++.ztsvdlifeb--dfdfu+................+lkdca--abcdca--abcccb---bbbbddddeffflhfeeeecbbbbaaba-abbacbcdceffbbfw+..........++ujfbaaa-ujfbaaa----aacffiljgfffcca--adfikkiihhhf
(PID.TID 0000.0001) //     30 --adgillkkkifcadcx.ymmqzqikvnnps.....................................+++++wmegt-jlifcacdlqx+++...............mligea---abgea---abbbb---abaaddddeedkmeddefdbbbaaaabc---b--aaaaabaabm..............+viba---+viba-------acdefinmlgiieb-chnnnmlmlgffc
(PID.TID 0000.0001) //     29 --cfiljigfjd--efdozy...+ximpnnuz......................................+++yqddhp-iljhcbbchz+......++.........+mmhffc----affc----aaba------acdddcbcineddgdbaaa----cdd--a------aa-bfz...............+qe---a.+qe---aa---aedeegknmlgiigcdfhpokkimlfdb
(PID.TID 0000.0001) //     28 -abgkhfcccea-bdei........t............................................++zwgfcfk-gknhccbbhwwy.....+++........+njfeed-----eed-----aa-------abddcabcnfddegcaaa-----hlf------------dk+................+ja---..+ja------bffdddehfd--bedaacfhpnligiihd
(PID.TID 0000.0001) //     27 -acghfbaaaa-achmy......................+.......+++....................++vnbbbclefkpkeeecflmqxy....++........+lhfeecc----eecc------------aaadcbabcfhddccba-------zqd-----------irw.................++e---..++e-----mhmijddda--------ahhfiokhedegg
(PID.TID 0000.0001) //     26 -adhfca-----bfiv.......................+.......++sy...................+tq-fdbblcjknqiheddefhiksz++++........zkhfdccb----dccb------------aabdcaaaacfddbca-------a+xfa-abb-----vvv...................+wa--...+wa---mlmkijhc----------cjjffiheb-aad
(PID.TID 0000.0001) //     25 -achfa------ch+..................w.......w.......njo+................+x-----bcgidiqqojfefiiiijmy.++.........zkhfdbaa----dbaa-------daa---acccaaaacccca--------ac.+udaabbb----tei...................++qde...++qdeqnghiljcaaaaidaa----beedeeca--bb
(PID.TID 0000.0001) //     24 aaeifa--acbcei...................w.......w.......likn+.....++.....++znpa----bbdi-fnlmnjhinlksssw............qhfeca------ca--------addc--aeffaaaaaaccb-a----a--bd.++udbbaba---ven....................++xy....++xywnfgllcbbabegkecba----ddddcaacdc
(PID.TID 0000.0001) //     23 abfida-aabchjk...................zz......zz.....nhhijz....tqq.....+ujgzgd---abci-cegklkkknols..xuu..........zgfdba------ba--------bcd---affaaadffabbb-----aa-bcc.+.+ufb-----l.gx...........s.........++z.....++zzkfilfccccoz..ulkcd---bccnfddddd
(PID.TID 0000.0001) //     22 -afhfaa---bfgi....................zz..rn..zz..rnjffggm...nlmn+....+sffzya--aabcieaaffdfhimrmp...yuu.++.......zudba------ba--------adc---dda-adffe-aa--------aaac....+ufc-baaqvhh..........dcfeeh......++......++zggqvifefhz......zobbaccfwuffeee
(PID.TID 0000.0001) //     21 babcgca----abe.....................ysstl...ysstlgeeeeoz..ijklt+....lfjzzf---adfcfdaadcehllotq....yy+++zzs.....+zcba-----cba-------cdd--aaa----df------------aaac.....+upjdcy.vohq.......+idcdfeeefwz....efwz....+hhn.vklox.........gdccfjwrigffh
(PID.TID 0000.0001) //     20 fbbbcgfcaa-aae+.......................lc......lcgfdddhq.+hiilnz++.+oquxyz--adgkfdcaabcfmtooyxz......+yuiiy....++gb------gb--------ddcca-a-----acbaa------bbaaaab........ywxy.lulo.lv...kcdgddffefffilyx+fffilyx+fffk.+xyyy.........mgeimvskjklll
(PID.TID 0000.0001) //     19 zmfeccdghfeegcbt......................aa......aafifccgnrzgghjry.+++sr+lq.--edfkkoxtkblwnnsp.vv......skhggt...+++t-------t---------bdaf---------edd-------adlaaaa+..........vnhzy.tllqiedccdhggfggffiiggfgffiiggfcbdgy..yz..........xigqophijkkii
(PID.TID 0000.0001) //     18 ..wifedfkhfegbbcivlqfoz..............jaa.....jaacfihggokeeffgt..++++..hhlfdeddkez..qcz+.zwxtsttz..ysrkhot++++++zig------ig--------b--f---------egqqqaa----frb---+........+kkrhw.vqmlnieddcdehgggffgigedbffgigedbaaceiy.............zilrddefikkhh
(PID.TID 0000.0001) //     17 ..+wfeefikhgcbbccaaacgn.............icaa....icaaccfihfoedddeedy..++...nnqwgfeekeyy.z++..+zsjjllllljllpjos+++.+zhhi-----ehi-----e-----ea--------foqqoqqo--hlwgea-.........+nk+..xiioonhfefddegihhghigfdbaghigfdbaaabdgx..............nheddefiklhg
(PID.TID 0000.0001) //     16 ....wiheddeccdfhfbabdfl............jdbad...jdbaddddgifkccccdccd+.++..++ynvz.tkkq.mu....++zyslllllkhggkmpy++...ihhi-----ehi-----ea---feb-----a-acnoohfghknvmwnuca..........qhu..hhhkojgffgeefghihhiieedbahiieedbaaabcdy..............ygddeghiljgf
(PID.TID 0000.0001) //     15 ......ylea--acfihebcbbes..........sfcbbn..sfcbbngfffigcaaabdbcac+.+++++zgmpx...y.mm....++..zslwz.yhhhhnz+++...rhgc----abgc----ab----ige----acaaalllkddfiy..yswxb..........thk.xgghiligfghfefhhhhiiheedcdiiheedcdbbabdmz.............zfdeghikkifd
(PID.TID 0000.0001) //     14 ........c---acgkhdcc--di..........ofddch..ofddchohffikaaaaabaaa-aw+.+ysnggox++...qrv..........yzzzzrjil+++....qhgd-----agd-----a-----i---cccdeabkklldinqssy..xxv...........+y.uhghikihgfghefgihhhgeeeeedhgeeeeeddbaadhw.............nedeghjjhfed
(PID.TID 0000.0001) //     13 .......+b----cfkhec---afz.........nhfdff..nhfdffholghkaaaaaba-a---flkkuswyy++++y+zr...........zzzzz++ry++......yd-------d--------------aeecdeidfkkqnqlmqquukqqmf..............iihiijjhfefgefhjihiffgggffiffgggffecaabelx...........zjecehijhfecc
(PID.TID 0000.0001) //     12 .......ec----chjhec---ag..........skiqdd..skiqddeiiiifaaabae--a---dd--iu+++.+++sxq++..........+z+++++.+++....++.s-------s------------a-ceccdejhlllkqlkklssiccdee.............wjkkkjjjigeefffgjiiighiiihhighiiihhhdaabdffghtxx......mfccehjiffdb-
(PID.TID 0000.0001) //     11 ......pdca--achlheba--ai..........nkn.fd..nkn.fdemijidaaaabi-------a--q+....++.ziis...........+++++..........+yyza----b-za----b-----a--ccccddkhieekkossssfbbbbcd............njjijhhihijhgggggjjjjijkkkkjjijkkkkjjhcaacddeegpy.....xfdccdhjgfdda-
(PID.TID 0000.0001) //     10 ......wfdb--achlhea---an.........uos..dc.uos..dcemikkfdcaabi-------equ+.........mk...........................zyvuq----ccuq----cc----a---dcfhkopqjeissrnpfbbcccde..........zslihhigghgijjihhhhkllkkkkkkjkkkkkkkjkkkedccdeeeeipz..zwhccbcdhgfddcam
(PID.TID 0000.0001) //      9 ......vgec---bfikca--cjl+.......+nnv.+cc+nnv.+ccffhkkiddaadha-----as++..........pvz++........................zxuuk------uk------a---a----djmqrrnlllsoiddcccccdjf.........+zjijhfgfggffhjkkkiillljihhghgijihhghgihighdeeffgghimnnjgecbbcdgfeccbas
(PID.TID 0000.0001) //      8 .....zleca---afjfca--hdfz.......vkky.jcevkky.jceddefijffdddhb--a-afv............nn..ss.........................+yku-----yku--------------ejnpqqnninnritqdccchkmf+.......wihgghgeffffeefhijkjkljiigeeffefigeeffefffhjhhikkklljklmhffeeeggfdcbaay.
(PID.TID 0000.0001) //      7 ...+zohec--abcfkhecbchbdx.......qiht.faaqiht.faaaabdgijgfededcdcb-f+............nn...pz.........................+zu-----+zu--------------edefqgqddsz+......+yuddmm+....tiggfggfeeeefeeefiiiijkiihhedddddhheddddddddjjllliijhfkmmkkjjhijgdcba--q.
(PID.TID 0000.0001) //      6 ..+yomfddcaabefkifdchaadt......uqdeisc--qdeisc----dfefgifffkklldc--v............up...pp.........................v.x-----v.x---------a----fbbpqgzenx+........zdbcmllkhhfffffffgfeeeeeeeefhhhhijihhffddcbbhffddcbbbbdhhiihedddb-cfhhhjjjieca----+.
(PID.TID 0000.0001) //      5 ..+nhgffkghccfhkhffgdaackz....uoibcimlaaibcimlaaacfbddfjjhijeehf-a-c............zs...su.........................qk.yi---qk.yi-------gha-fjddqs+xkrz.........q-bchikdccdeeeeeeedddedddddgghhhhjhhgffcbbaagffcbbaaaaddfegecca----dfeefhfgdb-----+.
(PID.TID 0000.0001) //      4 .+ujhgfllfhdffhkfffca-aady...llnabdopfcbabdopfcbdgdbcdehlihgfddc--ms............................................okn.zd--okn.zd---eciiiicfkeeqy.ysz..........n-aafgdcbbdeddedcdcccdddcddffggghiggfffdbaa-fffdbaa---acdcccba--abvfedeffdcca----b+.
(PID.TID 0000.0001) //      3 +vjggfcceeffffjlkjgaa---bfvheeln-aesphfd-aesphfdhgabddeflihhgfecbaaayq+++++.....................................kqnz.vtpkqnz.vtpkllgdccfkkkkk..++..........+g---fecaaadcdddcbbbbcdddcccdffffghgffffdcaa-fffdcaa----abcaaaa-acxxmecdjmdbba----r+.
(PID.TID 0000.0001) //      2 qifeecbbccddefilihecbaacbaajfega-aesqhff-aesqhffiea-cdeflkkljifeddcba---bry+...................................vkqn+.sghkqn+.sghfcbcbbbdgfdek.++++.........+l---caaaaaccdccbaaabbddddccdffffghfeeeeecba-eeeecba------baaaa-euwxqdbcdkud-----sy+.
(PID.TID 0000.0001) //      1 ebbbbaaaaaccdfhlhfefdcccaabjefbaaafonhglaafonhglid--adfgkkkklkhffddca-----s++++................................xsrxz.tedsrxz.tedcbbbbaaadddet.++++.........+l------a-accddba--bbbddddccdfffhhgfeeddccba-eddccba-------aaaabgns.qcbcchyzqngll++..
(PID.TID 0000.0001) //      0 -aaaaaaa-aacccfikkhecccbbbaaabaadfkllilmdfkllilmgebaadfijjiiikjhffdcba-----lllgn.............................++..u+..zmd.u+..zmdfbd---a-aeef.xx+..........+++s-------accdcb---bbbcdddddefffggfeeedcccbbaedcccbba----aa--alrwwy.kcbccc+...++++...
(PID.TID 0000.0001) //     -1 --aaaaa----aacffiljgfffcca--adfikkiikimikkiikimiiheccfurkiffhijjigfecb-----l----.............................+++++.z+.wq++.z+.wqgbf-------dgzpoy+........+ys+yrb--aa-abcccb---bbbbddddeffflhfeeeecbbcbbaecbbcbbaa----a--bdflm.yuibbcc.......+...
(PID.TID 0000.0001) //     -2 --aaa-------acdefinmlgiieb-chnnnmlmlfklkmlmlfklklkhednwwsheeghhijjgfdca----g---a.............................+++++wmu++y++wmu++ywn--------fwvmgy+........+r-.+++-abc--abbbb---abaaddddeedkmeddefdbbbdcbadbbbdcbaa-------ba-hv.susfbcc.......+...
(PID.TID 0000.0001) //     -3 a--a---aa---aedeegknmlgiigcdfhpokkimdkmkkkimdkmknoiedcfjvpddegghhhhgfdcbaa-n---a..............................+++yqd.++++yqd.+++zvq--dafz.lqnggw+........+b-....abcc---aaba------acdddcbcineddgdbaaaeedbbaaaeedbaa----------nysqssfcd...........
(PID.TID 0000.0001) // =======================================================
(PID.TID 0000.0001) // END OF FIELD                                          =
(PID.TID 0000.0001) // =======================================================
(PID.TID 0000.0001) 
(PID.TID 0000.0001) // =======================================================
(PID.TID 0000.0001) // Field Model Ro_surf (ini_masks_etc) at iteration          1
(PID.TID 0000.0001) // CMIN =         -7.105427357601002E-15
(PID.TID 0000.0001) // CMAX =         -7.105427357601002E-15
(PID.TID 0000.0001) // CINT =          0.000000000000000E+00
(PID.TID 0000.0001) // SYMBOLS (CMIN->CMAX): -abcdefghijklmnopqrstuvwxyz+
(PID.TID 0000.0001) //                  0.0: .
(PID.TID 0000.0001) // RANGE I (Lo:Hi:Step):(    -3:   196:     1)
(PID.TID 0000.0001) // RANGE J (Lo:Hi:Step):(    36:    -3:    -1)
(PID.TID 0000.0001) // RANGE K (Lo:Hi:Step):(   1:   1:   1)
(PID.TID 0000.0001) // =======================================================
(PID.TID 0000.0001) // =======================================================
(PID.TID 0000.0001) // END OF FIELD                                          =
(PID.TID 0000.0001) // =======================================================
(PID.TID 0000.0001) 
(PID.TID 0000.0001) // =======================================================
(PID.TID 0000.0001) // Field hFacC at iteration          1
(PID.TID 0000.0001) // CMIN =          1.000000000000000E+00
(PID.TID 0000.0001) // CMAX =          1.000000000000000E+00
(PID.TID 0000.0001) // CINT =          0.000000000000000E+00
(PID.TID 0000.0001) // SYMBOLS (CMIN->CMAX): -abcdefghijklmnopqrstuvwxyz+
(PID.TID 0000.0001) //                  0.0: .
(PID.TID 0000.0001) // RANGE I (Lo:Hi:Step):(    -3:   196:     1)
(PID.TID 0000.0001) // RANGE J (Lo:Hi:Step):(    36:    -3:    -1)
(PID.TID 0000.0001) // RANGE K (Lo:Hi:Step):(   1:   1:   1)
(PID.TID 0000.0001) // =======================================================
(PID.TID 0000.0001) // =======================================================
(PID.TID 0000.0001) // END OF FIELD                                          =
(PID.TID 0000.0001) // =======================================================
(PID.TID 0000.0001) 
(PID.TID 0000.0001) // =======================================================
(PID.TID 0000.0001) // Field hFacW at iteration          1
(PID.TID 0000.0001) // CMIN =          1.000000000000000E+00
(PID.TID 0000.0001) // CMAX =          1.000000000000000E+00
(PID.TID 0000.0001) // CINT =          0.000000000000000E+00
(PID.TID 0000.0001) // SYMBOLS (CMIN->CMAX): -abcdefghijklmnopqrstuvwxyz+
(PID.TID 0000.0001) //                  0.0: .
(PID.TID 0000.0001) // RANGE I (Lo:Hi:Step):(    -3:   196:     1)
(PID.TID 0000.0001) // RANGE J (Lo:Hi:Step):(    36:    -3:    -1)
(PID.TID 0000.0001) // RANGE K (Lo:Hi:Step):(   1:   1:   1)
(PID.TID 0000.0001) // =======================================================
(PID.TID 0000.0001) // =======================================================
(PID.TID 0000.0001) // END OF FIELD                                          =
(PID.TID 0000.0001) // =======================================================
(PID.TID 0000.0001) 
(PID.TID 0000.0001) // =======================================================
(PID.TID 0000.0001) // Field hFacS at iteration          1
(PID.TID 0000.0001) // CMIN =          1.000000000000000E+00
(PID.TID 0000.0001) // CMAX =          1.000000000000000E+00
(PID.TID 0000.0001) // CINT =          0.000000000000000E+00
(PID.TID 0000.0001) // SYMBOLS (CMIN->CMAX): -abcdefghijklmnopqrstuvwxyz+
(PID.TID 0000.0001) //                  0.0: .
(PID.TID 0000.0001) // RANGE I (Lo:Hi:Step):(    -3:   196:     1)
(PID.TID 0000.0001) // RANGE J (Lo:Hi:Step):(    36:    -3:    -1)
(PID.TID 0000.0001) // RANGE K (Lo:Hi:Step):(   1:   1:   1)
(PID.TID 0000.0001) // =======================================================
(PID.TID 0000.0001) // =======================================================
(PID.TID 0000.0001) // END OF FIELD                                          =
(PID.TID 0000.0001) // =======================================================
(PID.TID 0000.0001) 
(PID.TID 0000.0001) INI_CG2D: CG2D normalisation factor =  1.9156564154949553E-04
(PID.TID 0000.0001) INI_CG2D: cg2dTolerance = 5.809016360175293E-07 (Area=3.6388673751E+14)
(PID.TID 0000.0001) 
(PID.TID 0000.0001)  MDS_READ_META: opening file: pickup.0000072000.meta
(PID.TID 0000.0001)  nRecords = 123 ; filePrec =  64 ; fileIter =     72000
(PID.TID 0000.0001)     nDims =   2 , dims:
(PID.TID 0000.0001)    1: 192   1 192
(PID.TID 0000.0001)    2:  32   1  32
(PID.TID 0000.0001)     nFlds =  11 , nFl3D =   8 , fields:
(PID.TID 0000.0001)  >Uvel    < >GuNm1   < >Vvel    < >GvNm1   < >Theta   < >GtNm1   < >Salt    < >GsNm1   < >EtaN    < >dEtaHdt < >EtaH    <
(PID.TID 0000.0001)   nTimRec =   0 , timeList:
(PID.TID 0000.0001) READ_MFLDS_3D_RL: read field: "Uvel    ", #   1 in fldList, rec=   1
(PID.TID 0000.0001)  MDS_READ_FIELD: opening global file: pickup.0000072000
(PID.TID 0000.0001) READ_MFLDS_3D_RL: read field: "Vvel    ", #   3 in fldList, rec=   3
(PID.TID 0000.0001)  MDS_READ_FIELD: opening global file: pickup.0000072000
(PID.TID 0000.0001) READ_MFLDS_3D_RL: read field: "Theta   ", #   5 in fldList, rec=   5
(PID.TID 0000.0001)  MDS_READ_FIELD: opening global file: pickup.0000072000
(PID.TID 0000.0001) READ_MFLDS_3D_RL: read field: "Salt    ", #   7 in fldList, rec=   7
(PID.TID 0000.0001)  MDS_READ_FIELD: opening global file: pickup.0000072000
(PID.TID 0000.0001) READ_MFLDS_3D_RL: read field: "GuNm1   ", #   2 in fldList, rec=   2
(PID.TID 0000.0001)  MDS_READ_FIELD: opening global file: pickup.0000072000
(PID.TID 0000.0001) READ_MFLDS_3D_RL: field: "GuNm2   " missing in file: pickup.0000072000
(PID.TID 0000.0001) READ_MFLDS_3D_RL: read field: "GvNm1   ", #   4 in fldList, rec=   4
(PID.TID 0000.0001)  MDS_READ_FIELD: opening global file: pickup.0000072000
(PID.TID 0000.0001) READ_MFLDS_3D_RL: field: "GvNm2   " missing in file: pickup.0000072000
(PID.TID 0000.0001) READ_MFLDS_3D_RL: read field: "EtaN    ", #   9 in fldList, rec= 121
(PID.TID 0000.0001)  MDS_READ_FIELD: opening global file: pickup.0000072000
(PID.TID 0000.0001) READ_MFLDS_3D_RL: read field: "dEtaHdt ", #  10 in fldList, rec= 122
(PID.TID 0000.0001)  MDS_READ_FIELD: opening global file: pickup.0000072000
(PID.TID 0000.0001) READ_MFLDS_3D_RL: read field: "EtaH    ", #  11 in fldList, rec= 123
(PID.TID 0000.0001)  MDS_READ_FIELD: opening global file: pickup.0000072000
(PID.TID 0000.0001)  MDS_READ_FIELD: opening global file: trenberth_taux.bin
(PID.TID 0000.0001)  MDS_READ_FIELD: opening global file: trenberth_tauy.bin
(PID.TID 0000.0001)  MDS_READ_FIELD: opening global file: shiQnet_cs32.bin
(PID.TID 0000.0001)  MDS_READ_FIELD: opening global file: shiEmPR_cs32.bin
(PID.TID 0000.0001)  MDS_READ_FIELD: opening global file: lev_surfT_cs_12m.bin
(PID.TID 0000.0001)  MDS_READ_FIELD: opening global file: lev_surfS_cs_12m.bin
(PID.TID 0000.0001)  MDS_READ_FIELD: opening file: xx_theta.0000000000.001.001.data
(PID.TID 0000.0001)  MDS_READ_FIELD: opening file: xx_theta.0000000000.002.001.data
(PID.TID 0000.0001)  MDS_READ_FIELD: opening file: xx_theta.0000000000.003.001.data
(PID.TID 0000.0001)  MDS_READ_FIELD: opening file: xx_theta.0000000000.004.001.data
(PID.TID 0000.0001)  MDS_READ_FIELD: opening file: xx_theta.0000000000.005.001.data
(PID.TID 0000.0001)  MDS_READ_FIELD: opening file: xx_theta.0000000000.006.001.data
(PID.TID 0000.0001)  MDS_READ_FIELD: opening file: xx_salt.0000000000.001.001.data
(PID.TID 0000.0001)  MDS_READ_FIELD: opening file: xx_salt.0000000000.002.001.data
(PID.TID 0000.0001)  MDS_READ_FIELD: opening file: xx_salt.0000000000.003.001.data
(PID.TID 0000.0001)  MDS_READ_FIELD: opening file: xx_salt.0000000000.004.001.data
(PID.TID 0000.0001)  MDS_READ_FIELD: opening file: xx_salt.0000000000.005.001.data
(PID.TID 0000.0001)  MDS_READ_FIELD: opening file: xx_salt.0000000000.006.001.data
(PID.TID 0000.0001)  MDS_READ_FIELD: opening file: xx_diffkr.0000000000.001.001.data
(PID.TID 0000.0001)  MDS_READ_FIELD: opening file: xx_diffkr.0000000000.002.001.data
(PID.TID 0000.0001)  MDS_READ_FIELD: opening file: xx_diffkr.0000000000.003.001.data
(PID.TID 0000.0001)  MDS_READ_FIELD: opening file: xx_diffkr.0000000000.004.001.data
(PID.TID 0000.0001)  MDS_READ_FIELD: opening file: xx_diffkr.0000000000.005.001.data
(PID.TID 0000.0001)  MDS_READ_FIELD: opening file: xx_diffkr.0000000000.006.001.data
(PID.TID 0000.0001) // =======================================================
(PID.TID 0000.0001) // Model current state
(PID.TID 0000.0001) // =======================================================
(PID.TID 0000.0001) 
S/R EXTERNAL_FIELDS_LOAD: Reading new data:   12    1     72000  6.220800000000E+09
(PID.TID 0000.0001)  MDS_READ_FIELD: opening global file: trenberth_taux.bin
(PID.TID 0000.0001)  MDS_READ_FIELD: opening global file: trenberth_taux.bin
(PID.TID 0000.0001)  MDS_READ_FIELD: opening global file: trenberth_tauy.bin
(PID.TID 0000.0001)  MDS_READ_FIELD: opening global file: trenberth_tauy.bin
(PID.TID 0000.0001)  MDS_READ_FIELD: opening global file: shiQnet_cs32.bin
(PID.TID 0000.0001)  MDS_READ_FIELD: opening global file: shiQnet_cs32.bin
(PID.TID 0000.0001)  MDS_READ_FIELD: opening global file: shiEmPR_cs32.bin
(PID.TID 0000.0001)  MDS_READ_FIELD: opening global file: shiEmPR_cs32.bin
(PID.TID 0000.0001)  MDS_READ_FIELD: opening global file: lev_surfT_cs_12m.bin
(PID.TID 0000.0001)  MDS_READ_FIELD: opening global file: lev_surfT_cs_12m.bin
(PID.TID 0000.0001)  MDS_READ_FIELD: opening global file: lev_surfS_cs_12m.bin
(PID.TID 0000.0001)  MDS_READ_FIELD: opening global file: lev_surfS_cs_12m.bin
(PID.TID 0000.0001)  MDS_READ_FIELD: opening file: xx_tauu.0000000000.001.001.data
(PID.TID 0000.0001)  MDS_READ_FIELD: opening file: xx_tauu.0000000000.002.001.data
(PID.TID 0000.0001)  MDS_READ_FIELD: opening file: xx_tauu.0000000000.003.001.data
(PID.TID 0000.0001)  MDS_READ_FIELD: opening file: xx_tauu.0000000000.004.001.data
(PID.TID 0000.0001)  MDS_READ_FIELD: opening file: xx_tauu.0000000000.005.001.data
(PID.TID 0000.0001)  MDS_READ_FIELD: opening file: xx_tauu.0000000000.006.001.data
(PID.TID 0000.0001)  MDS_READ_FIELD: opening file: xx_tauv.0000000000.001.001.data
(PID.TID 0000.0001)  MDS_READ_FIELD: opening file: xx_tauv.0000000000.002.001.data
(PID.TID 0000.0001)  MDS_READ_FIELD: opening file: xx_tauv.0000000000.003.001.data
(PID.TID 0000.0001)  MDS_READ_FIELD: opening file: xx_tauv.0000000000.004.001.data
(PID.TID 0000.0001)  MDS_READ_FIELD: opening file: xx_tauv.0000000000.005.001.data
(PID.TID 0000.0001)  MDS_READ_FIELD: opening file: xx_tauv.0000000000.006.001.data
(PID.TID 0000.0001)  MDS_READ_FIELD: opening file: xx_sfl.0000000000.001.001.data
(PID.TID 0000.0001)  MDS_READ_FIELD: opening file: xx_sfl.0000000000.002.001.data
(PID.TID 0000.0001)  MDS_READ_FIELD: opening file: xx_sfl.0000000000.003.001.data
(PID.TID 0000.0001)  MDS_READ_FIELD: opening file: xx_sfl.0000000000.004.001.data
(PID.TID 0000.0001)  MDS_READ_FIELD: opening file: xx_sfl.0000000000.005.001.data
(PID.TID 0000.0001)  MDS_READ_FIELD: opening file: xx_sfl.0000000000.006.001.data
(PID.TID 0000.0001)  MDS_READ_FIELD: opening file: xx_hfl.0000000000.001.001.data
(PID.TID 0000.0001)  MDS_READ_FIELD: opening file: xx_hfl.0000000000.002.001.data
(PID.TID 0000.0001)  MDS_READ_FIELD: opening file: xx_hfl.0000000000.003.001.data
(PID.TID 0000.0001)  MDS_READ_FIELD: opening file: xx_hfl.0000000000.004.001.data
(PID.TID 0000.0001)  MDS_READ_FIELD: opening file: xx_hfl.0000000000.005.001.data
(PID.TID 0000.0001)  MDS_READ_FIELD: opening file: xx_hfl.0000000000.006.001.data
(PID.TID 0000.0001) SOLVE_FOR_PRESSURE: putPmEinXvector =    F
 cg2d: Sum(rhs),rhsMax =  -9.74864633462857E-12  4.27829651258201E+00
 cg2d: Sum(rhs),rhsMax =  -9.69180291576777E-12  4.27316012262243E+00
 cg2d: Sum(rhs),rhsMax =  -9.52127265918534E-12  4.26762372366358E+00
 cg2d: Sum(rhs),rhsMax =  -9.46442924032453E-12  4.26250700272166E+00
 cg2d: Sum(rhs),rhsMax =  -9.83391146291979E-12  4.25770388492126E+00
 cg2d: Sum(rhs),rhsMax =  -9.32232069317251E-12  4.25319684735887E+00
 cg2d: Sum(rhs),rhsMax =  -9.60653778747655E-12  4.24900187642622E+00
 cg2d: Sum(rhs),rhsMax =  -9.29389898374211E-12  4.24513384995906E+00
 cg2d: Sum(rhs),rhsMax =  -9.49285094975494E-12  4.24159887763013E+00
 cg2d: Sum(rhs),rhsMax =  -9.89075488178059E-12  4.23840118112076E+00
 cg2d: Sum(rhs),rhsMax =  -1.00612851383630E-11  4.23553910584345E+00
 cg2d: Sum(rhs),rhsMax =  -9.43600753089413E-12  4.23300289862431E+00
 cg2d: Sum(rhs),rhsMax =  -9.52127265918534E-12  4.23077337343123E+00
 cg2d: Sum(rhs),rhsMax =  -9.97602001007181E-12  4.22882245544180E+00
 cg2d: Sum(rhs),rhsMax =  -9.23705556488130E-12  4.22711469805323E+00
S/R EXTERNAL_FIELDS_LOAD: Reading new data:    1    2     72015  6.222096000000E+09
(PID.TID 0000.0001)  MDS_READ_FIELD: opening global file: trenberth_taux.bin
(PID.TID 0000.0001)  MDS_READ_FIELD: opening global file: trenberth_taux.bin
(PID.TID 0000.0001)  MDS_READ_FIELD: opening global file: trenberth_tauy.bin
(PID.TID 0000.0001)  MDS_READ_FIELD: opening global file: trenberth_tauy.bin
(PID.TID 0000.0001)  MDS_READ_FIELD: opening global file: shiQnet_cs32.bin
(PID.TID 0000.0001)  MDS_READ_FIELD: opening global file: shiQnet_cs32.bin
(PID.TID 0000.0001)  MDS_READ_FIELD: opening global file: shiEmPR_cs32.bin
(PID.TID 0000.0001)  MDS_READ_FIELD: opening global file: shiEmPR_cs32.bin
(PID.TID 0000.0001)  MDS_READ_FIELD: opening global file: lev_surfT_cs_12m.bin
(PID.TID 0000.0001)  MDS_READ_FIELD: opening global file: lev_surfT_cs_12m.bin
(PID.TID 0000.0001)  MDS_READ_FIELD: opening global file: lev_surfS_cs_12m.bin
(PID.TID 0000.0001)  MDS_READ_FIELD: opening global file: lev_surfS_cs_12m.bin
 cg2d: Sum(rhs),rhsMax =  -9.91917659121100E-12  4.22560897088560E+00
 cg2d: Sum(rhs),rhsMax =  -9.80548975348938E-12  4.22414668453979E+00
 cg2d: Sum(rhs),rhsMax =  -9.91917659121100E-12  4.22297626800997E+00
 cg2d: Sum(rhs),rhsMax =  -9.69180291576777E-12  4.22179768991877E+00
 cg2d: Sum(rhs),rhsMax =  -9.52127265918534E-12  4.22066224511089E+00
(PID.TID 0000.0001) Did not write pickup because writePickupAtEnd = FALSE
(PID.TID 0000.0001)  MDS_READ_FIELD: opening global file: lev_T_cs_15k.bin
 --> objf_test(bi,bj)   =  0.213716748404938E+05
 --> objf_tracer(bi,bj) =  0.000000000000000E+00
 --> objf_atl(bi,bj)    =  0.000000000000000E+00
 --> objf_test(bi,bj)   =  0.114870711262453E+05
 --> objf_tracer(bi,bj) =  0.000000000000000E+00
 --> objf_atl(bi,bj)    =  0.000000000000000E+00
 --> objf_test(bi,bj)   =  0.181705170176577E+05
 --> objf_tracer(bi,bj) =  0.000000000000000E+00
 --> objf_atl(bi,bj)    =  0.000000000000000E+00
 --> objf_test(bi,bj)   =  0.231600599828042E+05
 --> objf_tracer(bi,bj) =  0.000000000000000E+00
 --> objf_atl(bi,bj)    =  0.000000000000000E+00
 --> objf_test(bi,bj)   =  0.145354702786667E+05
 --> objf_tracer(bi,bj) =  0.000000000000000E+00
 --> objf_atl(bi,bj)    =  0.000000000000000E+00
 --> objf_test(bi,bj)   =  0.124705044161155E+05
 --> objf_tracer(bi,bj) =  0.000000000000000E+00
 --> objf_atl(bi,bj)    =  0.000000000000000E+00
  local fc =  0.101195297661983E+06
 global fc =  0.101195297661983E+06
 ph-check fcpertplus =   101195.298
(PID.TID 0000.0001)  MDS_READ_FIELD: opening file: xx_theta.0000000000.001.001.data
(PID.TID 0000.0001)  MDS_READ_FIELD: opening file: xx_theta.0000000000.002.001.data
(PID.TID 0000.0001)  MDS_READ_FIELD: opening file: xx_theta.0000000000.003.001.data
(PID.TID 0000.0001)  MDS_READ_FIELD: opening file: xx_theta.0000000000.004.001.data
(PID.TID 0000.0001)  MDS_READ_FIELD: opening file: xx_theta.0000000000.005.001.data
(PID.TID 0000.0001)  MDS_READ_FIELD: opening file: xx_theta.0000000000.006.001.data
 ph-check fcpertminus =   101195.264
(PID.TID 0000.0001)  MDS_READ_FIELD: opening file: xx_theta.0000000000.001.001.data
(PID.TID 0000.0001)  MDS_READ_FIELD: opening file: xx_theta.0000000000.002.001.data
(PID.TID 0000.0001)  MDS_READ_FIELD: opening file: xx_theta.0000000000.003.001.data
(PID.TID 0000.0001)  MDS_READ_FIELD: opening file: xx_theta.0000000000.004.001.data
(PID.TID 0000.0001)  MDS_READ_FIELD: opening file: xx_theta.0000000000.005.001.data
(PID.TID 0000.0001)  MDS_READ_FIELD: opening file: xx_theta.0000000000.006.001.data
(PID.TID 0000.0001)  MDS_READ_FIELD: opening global file: bathy_Hmin50.bin
(PID.TID 0000.0001) // =======================================================
(PID.TID 0000.0001) // Field Model R_low (ini_masks_etc) at iteration          1
(PID.TID 0000.0001) // CMIN =         -5.200000000000000E+03
(PID.TID 0000.0001) // CMAX =         -5.000000000000000E+01
(PID.TID 0000.0001) // CINT =          1.907407407407407E+02
(PID.TID 0000.0001) // SYMBOLS (CMIN->CMAX): -abcdefghijklmnopqrstuvwxyz+
(PID.TID 0000.0001) //                  0.0: .
(PID.TID 0000.0001) // RANGE I (Lo:Hi:Step):(    -3:   196:     1)
(PID.TID 0000.0001) // RANGE J (Lo:Hi:Step):(    36:    -3:    -1)
(PID.TID 0000.0001) // RANGE K (Lo:Hi:Step):(   1:   1:   1)
(PID.TID 0000.0001) // =======================================================
(PID.TID 0000.0001) K =   1
(PID.TID 0000.0001) //                I=6       I=16      I=26      I=36      I=38      I=48      I=58      I=68      I=70      I=80      I=90      I=100     I=102     I=112     I=122     I=132     I=134     I=144     I=154     I=164     I=166     I=176     I=186     I=196
(PID.TID 0000.0001) // |--J--|321012345|789012345|789012345|789012345|901234567|901234567|901234567|901234567|123456789|123456789|123456789|123456789|345678901|345678901|345678901|345678901|567890123|567890123|567890123|567890123|789012345|789012345|789012345|789012345|
(PID.TID 0000.0001) //     36 cbbc-ddcbcdehkhhmn..++..................................................okn.skko--a-fc----bba-cp.............tfeecccbbdeecccbbdeddedcdcccdddcddffggghiggfffdeeffijlihjlica---a--cgffel.+edfgeedflcbahgfllcbahgfllfhdffhkfffca-aady...llnabdoa--a
(PID.TID 0000.0001) //     35 dcac--cbbeefjkfefw+..........zpu........................................kqnzrqqk--b-da----bbbbfu..............fdddccaadcddccaadcdddcbbbbcdddcccdffffghgffffddefflligfiljfba---aafddehy...pwvlhfffcbagfccfcbagfcceeffffjlkjgaa---bfvheeln-aesaaab
(PID.TID 0000.0001) //     34 d--ba-abcehjnldcclz+........spps.......................................vkqn+xnnncabbcbba--aabfu+..............hcbaaaaaccbaaaaaccdccbaaabbddddccdffffghfeeeeedeffjiffefilhfcaaaacgceei.......zomggfcaecbbgfcaecbbccddefilihecbaacbaajfega-aesfeed
(PID.TID 0000.0001) //     33 --abbbccceiomkfdbbc+.......+s..........................................xsrxzz+z.fdcddb-----adu+...............hcbaa--accbaa--accddba--bbbddddccdfffhhgfeeddcceddhfeddfgikhfffdfgccffw........zohhgebbaaahgebbaaaaaccdfhlhfefdcccaabjefbaaafoosso
(PID.TID 0000.0001) //     32 --bddefhhkqqlgfaakqz..v.+..+.........................................++..u+....zigfdba----adu+................kdcaaa-acccaaa-accdcb---bbbcdddddefffggfeeedcccccbccbbdcdfgghhiihcbeiw.........+ynjgebaaaajgebaaaa-aacccfikkhecccbbbaaabaadfklnqpp
(PID.TID 0000.0001) //     31 abbcffijnpnqneaaat..umrr+s.z.........................................+++++.ztsvdlifeb--dfdfu+................+lkdca--abcdca--abcccb---bbbbddddeffflhfeeeecbbbbaaba-abbacbcdceffbbfw+..........++ujfbaaa-ujfbaaa----aacffiljgfffcca--adfikkiihhhf
(PID.TID 0000.0001) //     30 --adgillkkkifcadcx.ymmqzqikvnnps.....................................+++++wmegt-jlifcacdlqx+++...............mligea---abgea---abbbb---abaaddddeedkmeddefdbbbaaaabc---b--aaaaabaabm..............+viba---+viba-------acdefinmlgiieb-chnnnmlmlgffc
(PID.TID 0000.0001) //     29 --cfiljigfjd--efdozy...+ximpnnuz......................................+++yqddhp-iljhcbbchz+......++.........+mmhffc----affc----aaba------acdddcbcineddgdbaaa----cdd--a------aa-bfz...............+qe---a.+qe---aa---aedeegknmlgiigcdfhpokkimlfdb
(PID.TID 0000.0001) //     28 -abgkhfcccea-bdei........t............................................++zwgfcfk-gknhccbbhwwy.....+++........+njfeed-----eed-----aa-------abddcabcnfddegcaaa-----hlf------------dk+................+ja---..+ja------bffdddehfd--bedaacfhpnligiihd
(PID.TID 0000.0001) //     27 -acghfbaaaa-achmy......................+.......+++....................++vnbbbclefkpkeeecflmqxy....++........+lhfeecc----eecc------------aaadcbabcfhddccba-------zqd-----------irw.................++e---..++e-----mhmijddda--------ahhfiokhedegg
(PID.TID 0000.0001) //     26 -adhfca-----bfiv.......................+.......++sy...................+tq-fdbblcjknqiheddefhiksz++++........zkhfdccb----dccb------------aabdcaaaacfddbca-------a+xfa-abb-----vvv...................+wa--...+wa---mlmkijhc----------cjjffiheb-aad
(PID.TID 0000.0001) //     25 -achfa------ch+..................w.......w.......njo+................+x-----bcgidiqqojfefiiiijmy.++.........zkhfdbaa----dbaa-------daa---acccaaaacccca--------ac.+udaabbb----tei...................++qde...++qdeqnghiljcaaaaidaa----beedeeca--bb
(PID.TID 0000.0001) //     24 aaeifa--acbcei...................w.......w.......likn+.....++.....++znpa----bbdi-fnlmnjhinlksssw............qhfeca------ca--------addc--aeffaaaaaaccb-a----a--bd.++udbbaba---ven....................++xy....++xywnfgllcbbabegkecba----ddddcaacdc
(PID.TID 0000.0001) //     23 abfida-aabchjk...................zz......zz.....nhhijz....tqq.....+ujgzgd---abci-cegklkkknols..xuu..........zgfdba------ba--------bcd---affaaadffabbb-----aa-bcc.+.+ufb-----l.gx...........s.........++z.....++zzkfilfccccoz..ulkcd---bccnfddddd
(PID.TID 0000.0001) //     22 -afhfaa---bfgi....................zz..rn..zz..rnjffggm...nlmn+....+sffzya--aabcieaaffdfhimrmp...yuu.++.......zudba------ba--------adc---dda-adffe-aa--------aaac....+ufc-baaqvhh..........dcfeeh......++......++zggqvifefhz......zobbaccfwuffeee
(PID.TID 0000.0001) //     21 babcgca----abe.....................ysstl...ysstlgeeeeoz..ijklt+....lfjzzf---adfcfdaadcehllotq....yy+++zzs.....+zcba-----cba-------cdd--aaa----df------------aaac.....+upjdcy.vohq.......+idcdfeeefwz....efwz....+hhn.vklox.........gdccfjwrigffh
(PID.TID 0000.0001) //     20 fbbbcgfcaa-aae+.......................lc......lcgfdddhq.+hiilnz++.+oquxyz--adgkfdcaabcfmtooyxz......+yuiiy....++gb------gb--------ddcca-a-----acbaa------bbaaaab........ywxy.lulo.lv...kcdgddffefffilyx+fffilyx+fffk.+xyyy.........mgeimvskjklll
(PID.TID 0000.0001) //     19 zmfeccdghfeegcbt......................aa......aafifccgnrzgghjry.+++sr+lq.--edfkkoxtkblwnnsp.vv......skhggt...+++t-------t---------bdaf---------edd-------adlaaaa+..........vnhzy.tllqiedccdhggfggffiiggfgffiiggfcbdgy..yz..........xigqophijkkii
(PID.TID 0000.0001) //     18 ..wifedfkhfegbbcivlqfoz..............jaa.....jaacfihggokeeffgt..++++..hhlfdeddkez..qcz+.zwxtsttz..ysrkhot++++++zig------ig--------b--f---------egqqqaa----frb---+........+kkrhw.vqmlnieddcdehgggffgigedbffgigedbaaceiy.............zilrddefikkhh
(PID.TID 0000.0001) //     17 ..+wfeefikhgcbbccaaacgn.............icaa....icaaccfihfoedddeedy..++...nnqwgfeekeyy.z++..+zsjjllllljllpjos+++.+zhhi-----ehi-----e-----ea--------foqqoqqo--hlwgea-.........+nk+..xiioonhfefddegihhghigfdbaghigfdbaaabdgx..............nheddefiklhg
(PID.TID 0000.0001) //     16 ....wiheddeccdfhfbabdfl............jdbad...jdbaddddgifkccccdccd+.++..++ynvz.tkkq.mu....++zyslllllkhggkmpy++...ihhi-----ehi-----ea---feb-----a-acnoohfghknvmwnuca..........qhu..hhhkojgffgeefghihhiieedbahiieedbaaabcdy..............ygddeghiljgf
(PID.TID 0000.0001) //     15 ......ylea--acfihebcbbes..........sfcbbn..sfcbbngfffigcaaabdbcac+.+++++zgmpx...y.mm....++..zslwz.yhhhhnz+++...rhgc----abgc----ab----ige----acaaalllkddfiy..yswxb..........thk.xgghiligfghfefhhhhiiheedcdiiheedcdbbabdmz.............zfdeghikkifd
(PID.TID 0000.0001) //     14 ........c---acgkhdcc--di..........ofddch..ofddchohffikaaaaabaaa-aw+.+ysnggox++...qrv..........yzzzzrjil+++....qhgd-----agd-----a-----i---cccdeabkklldinqssy..xxv...........+y.uhghikihgfghefgihhhgeeeeedhgeeeeeddbaadhw.............nedeghjjhfed
(PID.TID 0000.0001) //     13 .......+b----cfkhec---afz.........nhfdff..nhfdffholghkaaaaaba-a---flkkuswyy++++y+zr...........zzzzz++ry++......yd-------d--------------aeecdeidfkkqnqlmqquukqqmf..............iihiijjhfefgefhjihiffgggffiffgggffecaabelx...........zjecehijhfecc
(PID.TID 0000.0001) //     12 .......ec----chjhec---ag..........skiqdd..skiqddeiiiifaaabae--a---dd--iu+++.+++sxq++..........+z+++++.+++....++.s-------s------------a-ceccdejhlllkqlkklssiccdee.............wjkkkjjjigeefffgjiiighiiihhighiiihhhdaabdffghtxx......mfccehjiffdb-
(PID.TID 0000.0001) //     11 ......pdca--achlheba--ai..........nkn.fd..nkn.fdemijidaaaabi-------a--q+....++.ziis...........+++++..........+yyza----b-za----b-----a--ccccddkhieekkossssfbbbbcd............njjijhhihijhgggggjjjjijkkkkjjijkkkkjjhcaacddeegpy.....xfdccdhjgfdda-
(PID.TID 0000.0001) //     10 ......wfdb--achlhea---an.........uos..dc.uos..dcemikkfdcaabi-------equ+.........mk...........................zyvuq----ccuq----cc----a---dcfhkopqjeissrnpfbbcccde..........zslihhigghgijjihhhhkllkkkkkkjkkkkkkkjkkkedccdeeeeipz..zwhccbcdhgfddcam
(PID.TID 0000.0001) //      9 ......vgec---bfikca--cjl+.......+nnv.+cc+nnv.+ccffhkkiddaadha-----as++..........pvz++........................zxuuk------uk------a---a----djmqrrnlllsoiddcccccdjf.........+zjijhfgfggffhjkkkiillljihhghgijihhghgihighdeeffgghimnnjgecbbcdgfeccbas
(PID.TID 0000.0001) //      8 .....zleca---afjfca--hdfz.......vkky.jcevkky.jceddefijffdddhb--a-afv............nn..ss.........................+yku-----yku--------------ejnpqqnninnritqdccchkmf+.......wihgghgeffffeefhijkjkljiigeeffefigeeffefffhjhhikkklljklmhffeeeggfdcbaay.
(PID.TID 0000.0001) //      7 ...+zohec--abcfkhecbchbdx.......qiht.faaqiht.faaaabdgijgfededcdcb-f+............nn...pz.........................+zu-----+zu--------------edefqgqddsz+......+yuddmm+....tiggfggfeeeefeeefiiiijkiihhedddddhheddddddddjjllliijhfkmmkkjjhijgdcba--q.
(PID.TID 0000.0001) //      6 ..+yomfddcaabefkifdchaadt......uqdeisc--qdeisc----dfefgifffkklldc--v............up...pp.........................v.x-----v.x---------a----fbbpqgzenx+........zdbcmllkhhfffffffgfeeeeeeeefhhhhijihhffddcbbhffddcbbbbdhhiihedddb-cfhhhjjjieca----+.
(PID.TID 0000.0001) //      5 ..+nhgffkghccfhkhffgdaackz....uoibcimlaaibcimlaaacfbddfjjhijeehf-a-c............zs...su.........................qk.yi---qk.yi-------gha-fjddqs+xkrz.........q-bchikdccdeeeeeeedddedddddgghhhhjhhgffcbbaagffcbbaaaaddfegecca----dfeefhfgdb-----+.
(PID.TID 0000.0001) //      4 .+ujhgfllfhdffhkfffca-aady...llnabdopfcbabdopfcbdgdbcdehlihgfddc--ms............................................okn.zd--okn.zd---eciiiicfkeeqy.ysz..........n-aafgdcbbdeddedcdcccdddcddffggghiggfffdbaa-fffdbaa---acdcccba--abvfedeffdcca----b+.
(PID.TID 0000.0001) //      3 +vjggfcceeffffjlkjgaa---bfvheeln-aesphfd-aesphfdhgabddeflihhgfecbaaayq+++++.....................................kqnz.vtpkqnz.vtpkllgdccfkkkkk..++..........+g---fecaaadcdddcbbbbcdddcccdffffghgffffdcaa-fffdcaa----abcaaaa-acxxmecdjmdbba----r+.
(PID.TID 0000.0001) //      2 qifeecbbccddefilihecbaacbaajfega-aesqhff-aesqhffiea-cdeflkkljifeddcba---bry+...................................vkqn+.sghkqn+.sghfcbcbbbdgfdek.++++.........+l---caaaaaccdccbaaabbddddccdffffghfeeeeecba-eeeecba------baaaa-euwxqdbcdkud-----sy+.
(PID.TID 0000.0001) //      1 ebbbbaaaaaccdfhlhfefdcccaabjefbaaafonhglaafonhglid--adfgkkkklkhffddca-----s++++................................xsrxz.tedsrxz.tedcbbbbaaadddet.++++.........+l------a-accddba--bbbddddccdfffhhgfeeddccba-eddccba-------aaaabgns.qcbcchyzqngll++..
(PID.TID 0000.0001) //      0 -aaaaaaa-aacccfikkhecccbbbaaabaadfkllilmdfkllilmgebaadfijjiiikjhffdcba-----lllgn.............................++..u+..zmd.u+..zmdfbd---a-aeef.xx+..........+++s-------accdcb---bbbcdddddefffggfeeedcccbbaedcccbba----aa--alrwwy.kcbccc+...++++...
(PID.TID 0000.0001) //     -1 --aaaaa----aacffiljgfffcca--adfikkiikimikkiikimiiheccfurkiffhijjigfecb-----l----.............................+++++.z+.wq++.z+.wqgbf-------dgzpoy+........+ys+yrb--aa-abcccb---bbbbddddeffflhfeeeecbbcbbaecbbcbbaa----a--bdflm.yuibbcc.......+...
(PID.TID 0000.0001) //     -2 --aaa-------acdefinmlgiieb-chnnnmlmlfklkmlmlfklklkhednwwsheeghhijjgfdca----g---a.............................+++++wmu++y++wmu++ywn--------fwvmgy+........+r-.+++-abc--abbbb---abaaddddeedkmeddefdbbbdcbadbbbdcbaa-------ba-hv.susfbcc.......+...
(PID.TID 0000.0001) //     -3 a--a---aa---aedeegknmlgiigcdfhpokkimdkmkkkimdkmknoiedcfjvpddegghhhhgfdcbaa-n---a..............................+++yqd.++++yqd.+++zvq--dafz.lqnggw+........+b-....abcc---aaba------acdddcbcineddgdbaaaeedbbaaaeedbaa----------nysqssfcd...........
(PID.TID 0000.0001) // =======================================================
(PID.TID 0000.0001) // END OF FIELD                                          =
(PID.TID 0000.0001) // =======================================================
(PID.TID 0000.0001) 
(PID.TID 0000.0001) // =======================================================
(PID.TID 0000.0001) // Field Model Ro_surf (ini_masks_etc) at iteration          1
(PID.TID 0000.0001) // CMIN =         -7.105427357601002E-15
(PID.TID 0000.0001) // CMAX =         -7.105427357601002E-15
(PID.TID 0000.0001) // CINT =          0.000000000000000E+00
(PID.TID 0000.0001) // SYMBOLS (CMIN->CMAX): -abcdefghijklmnopqrstuvwxyz+
(PID.TID 0000.0001) //                  0.0: .
(PID.TID 0000.0001) // RANGE I (Lo:Hi:Step):(    -3:   196:     1)
(PID.TID 0000.0001) // RANGE J (Lo:Hi:Step):(    36:    -3:    -1)
(PID.TID 0000.0001) // RANGE K (Lo:Hi:Step):(   1:   1:   1)
(PID.TID 0000.0001) // =======================================================
(PID.TID 0000.0001) // =======================================================
(PID.TID 0000.0001) // END OF FIELD                                          =
(PID.TID 0000.0001) // =======================================================
(PID.TID 0000.0001) 
(PID.TID 0000.0001) // =======================================================
(PID.TID 0000.0001) // Field hFacC at iteration          1
(PID.TID 0000.0001) // CMIN =          1.000000000000000E+00
(PID.TID 0000.0001) // CMAX =          1.000000000000000E+00
(PID.TID 0000.0001) // CINT =          0.000000000000000E+00
(PID.TID 0000.0001) // SYMBOLS (CMIN->CMAX): -abcdefghijklmnopqrstuvwxyz+
(PID.TID 0000.0001) //                  0.0: .
(PID.TID 0000.0001) // RANGE I (Lo:Hi:Step):(    -3:   196:     1)
(PID.TID 0000.0001) // RANGE J (Lo:Hi:Step):(    36:    -3:    -1)
(PID.TID 0000.0001) // RANGE K (Lo:Hi:Step):(   1:   1:   1)
(PID.TID 0000.0001) // =======================================================
(PID.TID 0000.0001) // =======================================================
(PID.TID 0000.0001) // END OF FIELD                                          =
(PID.TID 0000.0001) // =======================================================
(PID.TID 0000.0001) 
(PID.TID 0000.0001) // =======================================================
(PID.TID 0000.0001) // Field hFacW at iteration          1
(PID.TID 0000.0001) // CMIN =          1.000000000000000E+00
(PID.TID 0000.0001) // CMAX =          1.000000000000000E+00
(PID.TID 0000.0001) // CINT =          0.000000000000000E+00
(PID.TID 0000.0001) // SYMBOLS (CMIN->CMAX): -abcdefghijklmnopqrstuvwxyz+
(PID.TID 0000.0001) //                  0.0: .
(PID.TID 0000.0001) // RANGE I (Lo:Hi:Step):(    -3:   196:     1)
(PID.TID 0000.0001) // RANGE J (Lo:Hi:Step):(    36:    -3:    -1)
(PID.TID 0000.0001) // RANGE K (Lo:Hi:Step):(   1:   1:   1)
(PID.TID 0000.0001) // =======================================================
(PID.TID 0000.0001) // =======================================================
(PID.TID 0000.0001) // END OF FIELD                                          =
(PID.TID 0000.0001) // =======================================================
(PID.TID 0000.0001) 
(PID.TID 0000.0001) // =======================================================
(PID.TID 0000.0001) // Field hFacS at iteration          1
(PID.TID 0000.0001) // CMIN =          1.000000000000000E+00
(PID.TID 0000.0001) // CMAX =          1.000000000000000E+00
(PID.TID 0000.0001) // CINT =          0.000000000000000E+00
(PID.TID 0000.0001) // SYMBOLS (CMIN->CMAX): -abcdefghijklmnopqrstuvwxyz+
(PID.TID 0000.0001) //                  0.0: .
(PID.TID 0000.0001) // RANGE I (Lo:Hi:Step):(    -3:   196:     1)
(PID.TID 0000.0001) // RANGE J (Lo:Hi:Step):(    36:    -3:    -1)
(PID.TID 0000.0001) // RANGE K (Lo:Hi:Step):(   1:   1:   1)
(PID.TID 0000.0001) // =======================================================
(PID.TID 0000.0001) // =======================================================
(PID.TID 0000.0001) // END OF FIELD                                          =
(PID.TID 0000.0001) // =======================================================
(PID.TID 0000.0001) 
(PID.TID 0000.0001) INI_CG2D: CG2D normalisation factor =  1.9156564154949553E-04
(PID.TID 0000.0001) INI_CG2D: cg2dTolerance = 5.809016360175293E-07 (Area=3.6388673751E+14)
(PID.TID 0000.0001) 
(PID.TID 0000.0001)  MDS_READ_META: opening file: pickup.0000072000.meta
(PID.TID 0000.0001)  nRecords = 123 ; filePrec =  64 ; fileIter =     72000
(PID.TID 0000.0001)     nDims =   2 , dims:
(PID.TID 0000.0001)    1: 192   1 192
(PID.TID 0000.0001)    2:  32   1  32
(PID.TID 0000.0001)     nFlds =  11 , nFl3D =   8 , fields:
(PID.TID 0000.0001)  >Uvel    < >GuNm1   < >Vvel    < >GvNm1   < >Theta   < >GtNm1   < >Salt    < >GsNm1   < >EtaN    < >dEtaHdt < >EtaH    <
(PID.TID 0000.0001)   nTimRec =   0 , timeList:
(PID.TID 0000.0001) READ_MFLDS_3D_RL: read field: "Uvel    ", #   1 in fldList, rec=   1
(PID.TID 0000.0001)  MDS_READ_FIELD: opening global file: pickup.0000072000
(PID.TID 0000.0001) READ_MFLDS_3D_RL: read field: "Vvel    ", #   3 in fldList, rec=   3
(PID.TID 0000.0001)  MDS_READ_FIELD: opening global file: pickup.0000072000
(PID.TID 0000.0001) READ_MFLDS_3D_RL: read field: "Theta   ", #   5 in fldList, rec=   5
(PID.TID 0000.0001)  MDS_READ_FIELD: opening global file: pickup.0000072000
(PID.TID 0000.0001) READ_MFLDS_3D_RL: read field: "Salt    ", #   7 in fldList, rec=   7
(PID.TID 0000.0001)  MDS_READ_FIELD: opening global file: pickup.0000072000
(PID.TID 0000.0001) READ_MFLDS_3D_RL: read field: "GuNm1   ", #   2 in fldList, rec=   2
(PID.TID 0000.0001)  MDS_READ_FIELD: opening global file: pickup.0000072000
(PID.TID 0000.0001) READ_MFLDS_3D_RL: field: "GuNm2   " missing in file: pickup.0000072000
(PID.TID 0000.0001) READ_MFLDS_3D_RL: read field: "GvNm1   ", #   4 in fldList, rec=   4
(PID.TID 0000.0001)  MDS_READ_FIELD: opening global file: pickup.0000072000
(PID.TID 0000.0001) READ_MFLDS_3D_RL: field: "GvNm2   " missing in file: pickup.0000072000
(PID.TID 0000.0001) READ_MFLDS_3D_RL: read field: "EtaN    ", #   9 in fldList, rec= 121
(PID.TID 0000.0001)  MDS_READ_FIELD: opening global file: pickup.0000072000
(PID.TID 0000.0001) READ_MFLDS_3D_RL: read field: "dEtaHdt ", #  10 in fldList, rec= 122
(PID.TID 0000.0001)  MDS_READ_FIELD: opening global file: pickup.0000072000
(PID.TID 0000.0001) READ_MFLDS_3D_RL: read field: "EtaH    ", #  11 in fldList, rec= 123
(PID.TID 0000.0001)  MDS_READ_FIELD: opening global file: pickup.0000072000
(PID.TID 0000.0001)  MDS_READ_FIELD: opening global file: trenberth_taux.bin
(PID.TID 0000.0001)  MDS_READ_FIELD: opening global file: trenberth_tauy.bin
(PID.TID 0000.0001)  MDS_READ_FIELD: opening global file: shiQnet_cs32.bin
(PID.TID 0000.0001)  MDS_READ_FIELD: opening global file: shiEmPR_cs32.bin
(PID.TID 0000.0001)  MDS_READ_FIELD: opening global file: lev_surfT_cs_12m.bin
(PID.TID 0000.0001)  MDS_READ_FIELD: opening global file: lev_surfS_cs_12m.bin
(PID.TID 0000.0001)  MDS_READ_FIELD: opening file: xx_theta.0000000000.001.001.data
(PID.TID 0000.0001)  MDS_READ_FIELD: opening file: xx_theta.0000000000.002.001.data
(PID.TID 0000.0001)  MDS_READ_FIELD: opening file: xx_theta.0000000000.003.001.data
(PID.TID 0000.0001)  MDS_READ_FIELD: opening file: xx_theta.0000000000.004.001.data
(PID.TID 0000.0001)  MDS_READ_FIELD: opening file: xx_theta.0000000000.005.001.data
(PID.TID 0000.0001)  MDS_READ_FIELD: opening file: xx_theta.0000000000.006.001.data
(PID.TID 0000.0001)  MDS_READ_FIELD: opening file: xx_salt.0000000000.001.001.data
(PID.TID 0000.0001)  MDS_READ_FIELD: opening file: xx_salt.0000000000.002.001.data
(PID.TID 0000.0001)  MDS_READ_FIELD: opening file: xx_salt.0000000000.003.001.data
(PID.TID 0000.0001)  MDS_READ_FIELD: opening file: xx_salt.0000000000.004.001.data
(PID.TID 0000.0001)  MDS_READ_FIELD: opening file: xx_salt.0000000000.005.001.data
(PID.TID 0000.0001)  MDS_READ_FIELD: opening file: xx_salt.0000000000.006.001.data
(PID.TID 0000.0001)  MDS_READ_FIELD: opening file: xx_diffkr.0000000000.001.001.data
(PID.TID 0000.0001)  MDS_READ_FIELD: opening file: xx_diffkr.0000000000.002.001.data
(PID.TID 0000.0001)  MDS_READ_FIELD: opening file: xx_diffkr.0000000000.003.001.data
(PID.TID 0000.0001)  MDS_READ_FIELD: opening file: xx_diffkr.0000000000.004.001.data
(PID.TID 0000.0001)  MDS_READ_FIELD: opening file: xx_diffkr.0000000000.005.001.data
(PID.TID 0000.0001)  MDS_READ_FIELD: opening file: xx_diffkr.0000000000.006.001.data
(PID.TID 0000.0001) // =======================================================
(PID.TID 0000.0001) // Model current state
(PID.TID 0000.0001) // =======================================================
(PID.TID 0000.0001) 
S/R EXTERNAL_FIELDS_LOAD: Reading new data:   12    1     72000  6.220800000000E+09
(PID.TID 0000.0001)  MDS_READ_FIELD: opening global file: trenberth_taux.bin
(PID.TID 0000.0001)  MDS_READ_FIELD: opening global file: trenberth_taux.bin
(PID.TID 0000.0001)  MDS_READ_FIELD: opening global file: trenberth_tauy.bin
(PID.TID 0000.0001)  MDS_READ_FIELD: opening global file: trenberth_tauy.bin
(PID.TID 0000.0001)  MDS_READ_FIELD: opening global file: shiQnet_cs32.bin
(PID.TID 0000.0001)  MDS_READ_FIELD: opening global file: shiQnet_cs32.bin
(PID.TID 0000.0001)  MDS_READ_FIELD: opening global file: shiEmPR_cs32.bin
(PID.TID 0000.0001)  MDS_READ_FIELD: opening global file: shiEmPR_cs32.bin
(PID.TID 0000.0001)  MDS_READ_FIELD: opening global file: lev_surfT_cs_12m.bin
(PID.TID 0000.0001)  MDS_READ_FIELD: opening global file: lev_surfT_cs_12m.bin
(PID.TID 0000.0001)  MDS_READ_FIELD: opening global file: lev_surfS_cs_12m.bin
(PID.TID 0000.0001)  MDS_READ_FIELD: opening global file: lev_surfS_cs_12m.bin
(PID.TID 0000.0001)  MDS_READ_FIELD: opening file: xx_tauu.0000000000.001.001.data
(PID.TID 0000.0001)  MDS_READ_FIELD: opening file: xx_tauu.0000000000.002.001.data
(PID.TID 0000.0001)  MDS_READ_FIELD: opening file: xx_tauu.0000000000.003.001.data
(PID.TID 0000.0001)  MDS_READ_FIELD: opening file: xx_tauu.0000000000.004.001.data
(PID.TID 0000.0001)  MDS_READ_FIELD: opening file: xx_tauu.0000000000.005.001.data
(PID.TID 0000.0001)  MDS_READ_FIELD: opening file: xx_tauu.0000000000.006.001.data
(PID.TID 0000.0001)  MDS_READ_FIELD: opening file: xx_tauv.0000000000.001.001.data
(PID.TID 0000.0001)  MDS_READ_FIELD: opening file: xx_tauv.0000000000.002.001.data
(PID.TID 0000.0001)  MDS_READ_FIELD: opening file: xx_tauv.0000000000.003.001.data
(PID.TID 0000.0001)  MDS_READ_FIELD: opening file: xx_tauv.0000000000.004.001.data
(PID.TID 0000.0001)  MDS_READ_FIELD: opening file: xx_tauv.0000000000.005.001.data
(PID.TID 0000.0001)  MDS_READ_FIELD: opening file: xx_tauv.0000000000.006.001.data
(PID.TID 0000.0001)  MDS_READ_FIELD: opening file: xx_sfl.0000000000.001.001.data
(PID.TID 0000.0001)  MDS_READ_FIELD: opening file: xx_sfl.0000000000.002.001.data
(PID.TID 0000.0001)  MDS_READ_FIELD: opening file: xx_sfl.0000000000.003.001.data
(PID.TID 0000.0001)  MDS_READ_FIELD: opening file: xx_sfl.0000000000.004.001.data
(PID.TID 0000.0001)  MDS_READ_FIELD: opening file: xx_sfl.0000000000.005.001.data
(PID.TID 0000.0001)  MDS_READ_FIELD: opening file: xx_sfl.0000000000.006.001.data
(PID.TID 0000.0001)  MDS_READ_FIELD: opening file: xx_hfl.0000000000.001.001.data
(PID.TID 0000.0001)  MDS_READ_FIELD: opening file: xx_hfl.0000000000.002.001.data
(PID.TID 0000.0001)  MDS_READ_FIELD: opening file: xx_hfl.0000000000.003.001.data
(PID.TID 0000.0001)  MDS_READ_FIELD: opening file: xx_hfl.0000000000.004.001.data
(PID.TID 0000.0001)  MDS_READ_FIELD: opening file: xx_hfl.0000000000.005.001.data
(PID.TID 0000.0001)  MDS_READ_FIELD: opening file: xx_hfl.0000000000.006.001.data
(PID.TID 0000.0001) SOLVE_FOR_PRESSURE: putPmEinXvector =    F
 cg2d: Sum(rhs),rhsMax =  -9.74864633462857E-12  4.27829651258201E+00
 cg2d: Sum(rhs),rhsMax =  -9.52127265918534E-12  4.27316012255012E+00
 cg2d: Sum(rhs),rhsMax =  -9.72022462519817E-12  4.26762372467049E+00
 cg2d: Sum(rhs),rhsMax =  -9.43600753089413E-12  4.26250700503182E+00
 cg2d: Sum(rhs),rhsMax =  -9.43600753089413E-12  4.25770388897069E+00
 cg2d: Sum(rhs),rhsMax =  -1.00612851383630E-11  4.25319685329898E+00
 cg2d: Sum(rhs),rhsMax =  -9.63495949690696E-12  4.24900188417056E+00
 cg2d: Sum(rhs),rhsMax =  -9.60653778747655E-12  4.24513385924578E+00
 cg2d: Sum(rhs),rhsMax =  -9.40758582146373E-12  4.24159888808677E+00
 cg2d: Sum(rhs),rhsMax =  -9.46442924032453E-12  4.23840119235744E+00
 cg2d: Sum(rhs),rhsMax =  -9.29389898374211E-12  4.23553911755007E+00
 cg2d: Sum(rhs),rhsMax =  -9.15179043659009E-12  4.23300291061559E+00
 cg2d: Sum(rhs),rhsMax =  -9.66338120633736E-12  4.23077338558031E+00
 cg2d: Sum(rhs),rhsMax =  -9.15179043659009E-12  4.22882246755603E+00
 cg2d: Sum(rhs),rhsMax =  -9.54969436861575E-12  4.22711470981767E+00
S/R EXTERNAL_FIELDS_LOAD: Reading new data:    1    2     72015  6.222096000000E+09
(PID.TID 0000.0001)  MDS_READ_FIELD: opening global file: trenberth_taux.bin
(PID.TID 0000.0001)  MDS_READ_FIELD: opening global file: trenberth_taux.bin
(PID.TID 0000.0001)  MDS_READ_FIELD: opening global file: trenberth_tauy.bin
(PID.TID 0000.0001)  MDS_READ_FIELD: opening global file: trenberth_tauy.bin
(PID.TID 0000.0001)  MDS_READ_FIELD: opening global file: shiQnet_cs32.bin
(PID.TID 0000.0001)  MDS_READ_FIELD: opening global file: shiQnet_cs32.bin
(PID.TID 0000.0001)  MDS_READ_FIELD: opening global file: shiEmPR_cs32.bin
(PID.TID 0000.0001)  MDS_READ_FIELD: opening global file: shiEmPR_cs32.bin
(PID.TID 0000.0001)  MDS_READ_FIELD: opening global file: lev_surfT_cs_12m.bin
(PID.TID 0000.0001)  MDS_READ_FIELD: opening global file: lev_surfT_cs_12m.bin
(PID.TID 0000.0001)  MDS_READ_FIELD: opening global file: lev_surfS_cs_12m.bin
(PID.TID 0000.0001)  MDS_READ_FIELD: opening global file: lev_surfS_cs_12m.bin
 cg2d: Sum(rhs),rhsMax =  -9.40758582146373E-12  4.22560898189625E+00
 cg2d: Sum(rhs),rhsMax =  -9.43600753089413E-12  4.22414669433830E+00
 cg2d: Sum(rhs),rhsMax =  -9.91917659121100E-12  4.22297627621946E+00
 cg2d: Sum(rhs),rhsMax =  -9.49285094975494E-12  4.22179769628827E+00
 cg2d: Sum(rhs),rhsMax =  -9.77706804405898E-12  4.22066224953542E+00
(PID.TID 0000.0001) Did not write pickup because writePickupAtEnd = FALSE
(PID.TID 0000.0001)  MDS_READ_FIELD: opening global file: lev_T_cs_15k.bin
 --> objf_test(bi,bj)   =  0.213716133140857E+05
 --> objf_tracer(bi,bj) =  0.000000000000000E+00
 --> objf_atl(bi,bj)    =  0.000000000000000E+00
 --> objf_test(bi,bj)   =  0.114870711250205E+05
 --> objf_tracer(bi,bj) =  0.000000000000000E+00
 --> objf_atl(bi,bj)    =  0.000000000000000E+00
 --> objf_test(bi,bj)   =  0.181705170179404E+05
 --> objf_tracer(bi,bj) =  0.000000000000000E+00
 --> objf_atl(bi,bj)    =  0.000000000000000E+00
 --> objf_test(bi,bj)   =  0.231600599827154E+05
 --> objf_tracer(bi,bj) =  0.000000000000000E+00
 --> objf_atl(bi,bj)    =  0.000000000000000E+00
 --> objf_test(bi,bj)   =  0.145354700715809E+05
 --> objf_tracer(bi,bj) =  0.000000000000000E+00
 --> objf_atl(bi,bj)    =  0.000000000000000E+00
 --> objf_test(bi,bj)   =  0.124704981973673E+05
 --> objf_tracer(bi,bj) =  0.000000000000000E+00
 --> objf_atl(bi,bj)    =  0.000000000000000E+00
  local fc =  0.101195229708710E+06
 global fc =  0.101195229708710E+06
(PID.TID 0000.0001)  MDS_READ_FIELD: opening file: xx_theta.0000000000.001.001.data
(PID.TID 0000.0001)  MDS_READ_FIELD: opening file: xx_theta.0000000000.002.001.data
(PID.TID 0000.0001)  MDS_READ_FIELD: opening file: xx_theta.0000000000.003.001.data
(PID.TID 0000.0001)  MDS_READ_FIELD: opening file: xx_theta.0000000000.004.001.data
(PID.TID 0000.0001)  MDS_READ_FIELD: opening file: xx_theta.0000000000.005.001.data
(PID.TID 0000.0001)  MDS_READ_FIELD: opening file: xx_theta.0000000000.006.001.data
grad-res -------------------------------
 grad-res     0    3    3    1    1    1    1    1   0.101195263679E+06 0.101195297662E+06 0.101195229709E+06
 grad-res     0    3    3    3  639    1    1    1   0.339880141111E+01 0.339766365068E+01 0.334753429253E-03
(PID.TID 0000.0001)   ADM  precision_derivative_cost =    1.01195263678726E+05
(PID.TID 0000.0001)   ADM  precision_derivative_grad =    3.39880141111271E+00
 ph-grd  ierr ---------------------------
 ph-grd  ierr =  0, icomp =  3, ichknum =  3
 ph-grd -->hit<--  4 1 1 1
(PID.TID 0000.0001)  MDS_READ_FIELD: opening file: adxx_theta.0000000000.001.001.data
(PID.TID 0000.0001)  MDS_READ_FIELD: opening file: adxx_theta.0000000000.002.001.data
(PID.TID 0000.0001)  MDS_READ_FIELD: opening file: adxx_theta.0000000000.003.001.data
(PID.TID 0000.0001)  MDS_READ_FIELD: opening file: adxx_theta.0000000000.004.001.data
(PID.TID 0000.0001)  MDS_READ_FIELD: opening file: adxx_theta.0000000000.005.001.data
(PID.TID 0000.0001)  MDS_READ_FIELD: opening file: adxx_theta.0000000000.006.001.data
(PID.TID 0000.0001)  MDS_READ_FIELD: opening file: xx_theta.0000000000.001.001.data
(PID.TID 0000.0001)  MDS_READ_FIELD: opening file: xx_theta.0000000000.002.001.data
(PID.TID 0000.0001)  MDS_READ_FIELD: opening file: xx_theta.0000000000.003.001.data
(PID.TID 0000.0001)  MDS_READ_FIELD: opening file: xx_theta.0000000000.004.001.data
(PID.TID 0000.0001)  MDS_READ_FIELD: opening file: xx_theta.0000000000.005.001.data
(PID.TID 0000.0001)  MDS_READ_FIELD: opening file: xx_theta.0000000000.006.001.data
(PID.TID 0000.0001)  MDS_READ_FIELD: opening global file: bathy_Hmin50.bin
(PID.TID 0000.0001) // =======================================================
(PID.TID 0000.0001) // Field Model R_low (ini_masks_etc) at iteration          1
(PID.TID 0000.0001) // CMIN =         -5.200000000000000E+03
(PID.TID 0000.0001) // CMAX =         -5.000000000000000E+01
(PID.TID 0000.0001) // CINT =          1.907407407407407E+02
(PID.TID 0000.0001) // SYMBOLS (CMIN->CMAX): -abcdefghijklmnopqrstuvwxyz+
(PID.TID 0000.0001) //                  0.0: .
(PID.TID 0000.0001) // RANGE I (Lo:Hi:Step):(    -3:   196:     1)
(PID.TID 0000.0001) // RANGE J (Lo:Hi:Step):(    36:    -3:    -1)
(PID.TID 0000.0001) // RANGE K (Lo:Hi:Step):(   1:   1:   1)
(PID.TID 0000.0001) // =======================================================
(PID.TID 0000.0001) K =   1
(PID.TID 0000.0001) //                I=6       I=16      I=26      I=36      I=38      I=48      I=58      I=68      I=70      I=80      I=90      I=100     I=102     I=112     I=122     I=132     I=134     I=144     I=154     I=164     I=166     I=176     I=186     I=196
(PID.TID 0000.0001) // |--J--|321012345|789012345|789012345|789012345|901234567|901234567|901234567|901234567|123456789|123456789|123456789|123456789|345678901|345678901|345678901|345678901|567890123|567890123|567890123|567890123|789012345|789012345|789012345|789012345|
(PID.TID 0000.0001) //     36 cbbc-ddcbcdehkhhmn..++..................................................okn.skko--a-fc----bba-cp.............tfeecccbbdeecccbbdeddedcdcccdddcddffggghiggfffdeeffijlihjlica---a--cgffel.+edfgeedflcbahgfllcbahgfllfhdffhkfffca-aady...llnabdoa--a
(PID.TID 0000.0001) //     35 dcac--cbbeefjkfefw+..........zpu........................................kqnzrqqk--b-da----bbbbfu..............fdddccaadcddccaadcdddcbbbbcdddcccdffffghgffffddefflligfiljfba---aafddehy...pwvlhfffcbagfccfcbagfcceeffffjlkjgaa---bfvheeln-aesaaab
(PID.TID 0000.0001) //     34 d--ba-abcehjnldcclz+........spps.......................................vkqn+xnnncabbcbba--aabfu+..............hcbaaaaaccbaaaaaccdccbaaabbddddccdffffghfeeeeedeffjiffefilhfcaaaacgceei.......zomggfcaecbbgfcaecbbccddefilihecbaacbaajfega-aesfeed
(PID.TID 0000.0001) //     33 --abbbccceiomkfdbbc+.......+s..........................................xsrxzz+z.fdcddb-----adu+...............hcbaa--accbaa--accddba--bbbddddccdfffhhgfeeddcceddhfeddfgikhfffdfgccffw........zohhgebbaaahgebbaaaaaccdfhlhfefdcccaabjefbaaafoosso
(PID.TID 0000.0001) //     32 --bddefhhkqqlgfaakqz..v.+..+.........................................++..u+....zigfdba----adu+................kdcaaa-acccaaa-accdcb---bbbcdddddefffggfeeedcccccbccbbdcdfgghhiihcbeiw.........+ynjgebaaaajgebaaaa-aacccfikkhecccbbbaaabaadfklnqpp
(PID.TID 0000.0001) //     31 abbcffijnpnqneaaat..umrr+s.z.........................................+++++.ztsvdlifeb--dfdfu+................+lkdca--abcdca--abcccb---bbbbddddeffflhfeeeecbbbbaaba-abbacbcdceffbbfw+..........++ujfbaaa-ujfbaaa----aacffiljgfffcca--adfikkiihhhf
(PID.TID 0000.0001) //     30 --adgillkkkifcadcx.ymmqzqikvnnps.....................................+++++wmegt-jlifcacdlqx+++...............mligea---abgea---abbbb---abaaddddeedkmeddefdbbbaaaabc---b--aaaaabaabm..............+viba---+viba-------acdefinmlgiieb-chnnnmlmlgffc
(PID.TID 0000.0001) //     29 --cfiljigfjd--efdozy...+ximpnnuz......................................+++yqddhp-iljhcbbchz+......++.........+mmhffc----affc----aaba------acdddcbcineddgdbaaa----cdd--a------aa-bfz...............+qe---a.+qe---aa---aedeegknmlgiigcdfhpokkimlfdb
(PID.TID 0000.0001) //     28 -abgkhfcccea-bdei........t............................................++zwgfcfk-gknhccbbhwwy.....+++........+njfeed-----eed-----aa-------abddcabcnfddegcaaa-----hlf------------dk+................+ja---..+ja------bffdddehfd--bedaacfhpnligiihd
(PID.TID 0000.0001) //     27 -acghfbaaaa-achmy......................+.......+++....................++vnbbbclefkpkeeecflmqxy....++........+lhfeecc----eecc------------aaadcbabcfhddccba-------zqd-----------irw.................++e---..++e-----mhmijddda--------ahhfiokhedegg
(PID.TID 0000.0001) //     26 -adhfca-----bfiv.......................+.......++sy...................+tq-fdbblcjknqiheddefhiksz++++........zkhfdccb----dccb------------aabdcaaaacfddbca-------a+xfa-abb-----vvv...................+wa--...+wa---mlmkijhc----------cjjffiheb-aad
(PID.TID 0000.0001) //     25 -achfa------ch+..................w.......w.......njo+................+x-----bcgidiqqojfefiiiijmy.++.........zkhfdbaa----dbaa-------daa---acccaaaacccca--------ac.+udaabbb----tei...................++qde...++qdeqnghiljcaaaaidaa----beedeeca--bb
(PID.TID 0000.0001) //     24 aaeifa--acbcei...................w.......w.......likn+.....++.....++znpa----bbdi-fnlmnjhinlksssw............qhfeca------ca--------addc--aeffaaaaaaccb-a----a--bd.++udbbaba---ven....................++xy....++xywnfgllcbbabegkecba----ddddcaacdc
(PID.TID 0000.0001) //     23 abfida-aabchjk...................zz......zz.....nhhijz....tqq.....+ujgzgd---abci-cegklkkknols..xuu..........zgfdba------ba--------bcd---affaaadffabbb-----aa-bcc.+.+ufb-----l.gx...........s.........++z.....++zzkfilfccccoz..ulkcd---bccnfddddd
(PID.TID 0000.0001) //     22 -afhfaa---bfgi....................zz..rn..zz..rnjffggm...nlmn+....+sffzya--aabcieaaffdfhimrmp...yuu.++.......zudba------ba--------adc---dda-adffe-aa--------aaac....+ufc-baaqvhh..........dcfeeh......++......++zggqvifefhz......zobbaccfwuffeee
(PID.TID 0000.0001) //     21 babcgca----abe.....................ysstl...ysstlgeeeeoz..ijklt+....lfjzzf---adfcfdaadcehllotq....yy+++zzs.....+zcba-----cba-------cdd--aaa----df------------aaac.....+upjdcy.vohq.......+idcdfeeefwz....efwz....+hhn.vklox.........gdccfjwrigffh
(PID.TID 0000.0001) //     20 fbbbcgfcaa-aae+.......................lc......lcgfdddhq.+hiilnz++.+oquxyz--adgkfdcaabcfmtooyxz......+yuiiy....++gb------gb--------ddcca-a-----acbaa------bbaaaab........ywxy.lulo.lv...kcdgddffefffilyx+fffilyx+fffk.+xyyy.........mgeimvskjklll
(PID.TID 0000.0001) //     19 zmfeccdghfeegcbt......................aa......aafifccgnrzgghjry.+++sr+lq.--edfkkoxtkblwnnsp.vv......skhggt...+++t-------t---------bdaf---------edd-------adlaaaa+..........vnhzy.tllqiedccdhggfggffiiggfgffiiggfcbdgy..yz..........xigqophijkkii
(PID.TID 0000.0001) //     18 ..wifedfkhfegbbcivlqfoz..............jaa.....jaacfihggokeeffgt..++++..hhlfdeddkez..qcz+.zwxtsttz..ysrkhot++++++zig------ig--------b--f---------egqqqaa----frb---+........+kkrhw.vqmlnieddcdehgggffgigedbffgigedbaaceiy.............zilrddefikkhh
(PID.TID 0000.0001) //     17 ..+wfeefikhgcbbccaaacgn.............icaa....icaaccfihfoedddeedy..++...nnqwgfeekeyy.z++..+zsjjllllljllpjos+++.+zhhi-----ehi-----e-----ea--------foqqoqqo--hlwgea-.........+nk+..xiioonhfefddegihhghigfdbaghigfdbaaabdgx..............nheddefiklhg
(PID.TID 0000.0001) //     16 ....wiheddeccdfhfbabdfl............jdbad...jdbaddddgifkccccdccd+.++..++ynvz.tkkq.mu....++zyslllllkhggkmpy++...ihhi-----ehi-----ea---feb-----a-acnoohfghknvmwnuca..........qhu..hhhkojgffgeefghihhiieedbahiieedbaaabcdy..............ygddeghiljgf
(PID.TID 0000.0001) //     15 ......ylea--acfihebcbbes..........sfcbbn..sfcbbngfffigcaaabdbcac+.+++++zgmpx...y.mm....++..zslwz.yhhhhnz+++...rhgc----abgc----ab----ige----acaaalllkddfiy..yswxb..........thk.xgghiligfghfefhhhhiiheedcdiiheedcdbbabdmz.............zfdeghikkifd
(PID.TID 0000.0001) //     14 ........c---acgkhdcc--di..........ofddch..ofddchohffikaaaaabaaa-aw+.+ysnggox++...qrv..........yzzzzrjil+++....qhgd-----agd-----a-----i---cccdeabkklldinqssy..xxv...........+y.uhghikihgfghefgihhhgeeeeedhgeeeeeddbaadhw.............nedeghjjhfed
(PID.TID 0000.0001) //     13 .......+b----cfkhec---afz.........nhfdff..nhfdffholghkaaaaaba-a---flkkuswyy++++y+zr...........zzzzz++ry++......yd-------d--------------aeecdeidfkkqnqlmqquukqqmf..............iihiijjhfefgefhjihiffgggffiffgggffecaabelx...........zjecehijhfecc
(PID.TID 0000.0001) //     12 .......ec----chjhec---ag..........skiqdd..skiqddeiiiifaaabae--a---dd--iu+++.+++sxq++..........+z+++++.+++....++.s-------s------------a-ceccdejhlllkqlkklssiccdee.............wjkkkjjjigeefffgjiiighiiihhighiiihhhdaabdffghtxx......mfccehjiffdb-
(PID.TID 0000.0001) //     11 ......pdca--achlheba--ai..........nkn.fd..nkn.fdemijidaaaabi-------a--q+....++.ziis...........+++++..........+yyza----b-za----b-----a--ccccddkhieekkossssfbbbbcd............njjijhhihijhgggggjjjjijkkkkjjijkkkkjjhcaacddeegpy.....xfdccdhjgfdda-
(PID.TID 0000.0001) //     10 ......wfdb--achlhea---an.........uos..dc.uos..dcemikkfdcaabi-------equ+.........mk...........................zyvuq----ccuq----cc----a---dcfhkopqjeissrnpfbbcccde..........zslihhigghgijjihhhhkllkkkkkkjkkkkkkkjkkkedccdeeeeipz..zwhccbcdhgfddcam
(PID.TID 0000.0001) //      9 ......vgec---bfikca--cjl+.......+nnv.+cc+nnv.+ccffhkkiddaadha-----as++..........pvz++........................zxuuk------uk------a---a----djmqrrnlllsoiddcccccdjf.........+zjijhfgfggffhjkkkiillljihhghgijihhghgihighdeeffgghimnnjgecbbcdgfeccbas
(PID.TID 0000.0001) //      8 .....zleca---afjfca--hdfz.......vkky.jcevkky.jceddefijffdddhb--a-afv............nn..ss.........................+yku-----yku--------------ejnpqqnninnritqdccchkmf+.......wihgghgeffffeefhijkjkljiigeeffefigeeffefffhjhhikkklljklmhffeeeggfdcbaay.
(PID.TID 0000.0001) //      7 ...+zohec--abcfkhecbchbdx.......qiht.faaqiht.faaaabdgijgfededcdcb-f+............nn...pz.........................+zu-----+zu--------------edefqgqddsz+......+yuddmm+....tiggfggfeeeefeeefiiiijkiihhedddddhheddddddddjjllliijhfkmmkkjjhijgdcba--q.
(PID.TID 0000.0001) //      6 ..+yomfddcaabefkifdchaadt......uqdeisc--qdeisc----dfefgifffkklldc--v............up...pp.........................v.x-----v.x---------a----fbbpqgzenx+........zdbcmllkhhfffffffgfeeeeeeeefhhhhijihhffddcbbhffddcbbbbdhhiihedddb-cfhhhjjjieca----+.
(PID.TID 0000.0001) //      5 ..+nhgffkghccfhkhffgdaackz....uoibcimlaaibcimlaaacfbddfjjhijeehf-a-c............zs...su.........................qk.yi---qk.yi-------gha-fjddqs+xkrz.........q-bchikdccdeeeeeeedddedddddgghhhhjhhgffcbbaagffcbbaaaaddfegecca----dfeefhfgdb-----+.
(PID.TID 0000.0001) //      4 .+ujhgfllfhdffhkfffca-aady...llnabdopfcbabdopfcbdgdbcdehlihgfddc--ms............................................okn.zd--okn.zd---eciiiicfkeeqy.ysz..........n-aafgdcbbdeddedcdcccdddcddffggghiggfffdbaa-fffdbaa---acdcccba--abvfedeffdcca----b+.
(PID.TID 0000.0001) //      3 +vjggfcceeffffjlkjgaa---bfvheeln-aesphfd-aesphfdhgabddeflihhgfecbaaayq+++++.....................................kqnz.vtpkqnz.vtpkllgdccfkkkkk..++..........+g---fecaaadcdddcbbbbcdddcccdffffghgffffdcaa-fffdcaa----abcaaaa-acxxmecdjmdbba----r+.
(PID.TID 0000.0001) //      2 qifeecbbccddefilihecbaacbaajfega-aesqhff-aesqhffiea-cdeflkkljifeddcba---bry+...................................vkqn+.sghkqn+.sghfcbcbbbdgfdek.++++.........+l---caaaaaccdccbaaabbddddccdffffghfeeeeecba-eeeecba------baaaa-euwxqdbcdkud-----sy+.
(PID.TID 0000.0001) //      1 ebbbbaaaaaccdfhlhfefdcccaabjefbaaafonhglaafonhglid--adfgkkkklkhffddca-----s++++................................xsrxz.tedsrxz.tedcbbbbaaadddet.++++.........+l------a-accddba--bbbddddccdfffhhgfeeddccba-eddccba-------aaaabgns.qcbcchyzqngll++..
(PID.TID 0000.0001) //      0 -aaaaaaa-aacccfikkhecccbbbaaabaadfkllilmdfkllilmgebaadfijjiiikjhffdcba-----lllgn.............................++..u+..zmd.u+..zmdfbd---a-aeef.xx+..........+++s-------accdcb---bbbcdddddefffggfeeedcccbbaedcccbba----aa--alrwwy.kcbccc+...++++...
(PID.TID 0000.0001) //     -1 --aaaaa----aacffiljgfffcca--adfikkiikimikkiikimiiheccfurkiffhijjigfecb-----l----.............................+++++.z+.wq++.z+.wqgbf-------dgzpoy+........+ys+yrb--aa-abcccb---bbbbddddeffflhfeeeecbbcbbaecbbcbbaa----a--bdflm.yuibbcc.......+...
(PID.TID 0000.0001) //     -2 --aaa-------acdefinmlgiieb-chnnnmlmlfklkmlmlfklklkhednwwsheeghhijjgfdca----g---a.............................+++++wmu++y++wmu++ywn--------fwvmgy+........+r-.+++-abc--abbbb---abaaddddeedkmeddefdbbbdcbadbbbdcbaa-------ba-hv.susfbcc.......+...
(PID.TID 0000.0001) //     -3 a--a---aa---aedeegknmlgiigcdfhpokkimdkmkkkimdkmknoiedcfjvpddegghhhhgfdcbaa-n---a..............................+++yqd.++++yqd.+++zvq--dafz.lqnggw+........+b-....abcc---aaba------acdddcbcineddgdbaaaeedbbaaaeedbaa----------nysqssfcd...........
(PID.TID 0000.0001) // =======================================================
(PID.TID 0000.0001) // END OF FIELD                                          =
(PID.TID 0000.0001) // =======================================================
(PID.TID 0000.0001) 
(PID.TID 0000.0001) // =======================================================
(PID.TID 0000.0001) // Field Model Ro_surf (ini_masks_etc) at iteration          1
(PID.TID 0000.0001) // CMIN =         -7.105427357601002E-15
(PID.TID 0000.0001) // CMAX =         -7.105427357601002E-15
(PID.TID 0000.0001) // CINT =          0.000000000000000E+00
(PID.TID 0000.0001) // SYMBOLS (CMIN->CMAX): -abcdefghijklmnopqrstuvwxyz+
(PID.TID 0000.0001) //                  0.0: .
(PID.TID 0000.0001) // RANGE I (Lo:Hi:Step):(    -3:   196:     1)
(PID.TID 0000.0001) // RANGE J (Lo:Hi:Step):(    36:    -3:    -1)
(PID.TID 0000.0001) // RANGE K (Lo:Hi:Step):(   1:   1:   1)
(PID.TID 0000.0001) // =======================================================
(PID.TID 0000.0001) // =======================================================
(PID.TID 0000.0001) // END OF FIELD                                          =
(PID.TID 0000.0001) // =======================================================
(PID.TID 0000.0001) 
(PID.TID 0000.0001) // =======================================================
(PID.TID 0000.0001) // Field hFacC at iteration          1
(PID.TID 0000.0001) // CMIN =          1.000000000000000E+00
(PID.TID 0000.0001) // CMAX =          1.000000000000000E+00
(PID.TID 0000.0001) // CINT =          0.000000000000000E+00
(PID.TID 0000.0001) // SYMBOLS (CMIN->CMAX): -abcdefghijklmnopqrstuvwxyz+
(PID.TID 0000.0001) //                  0.0: .
(PID.TID 0000.0001) // RANGE I (Lo:Hi:Step):(    -3:   196:     1)
(PID.TID 0000.0001) // RANGE J (Lo:Hi:Step):(    36:    -3:    -1)
(PID.TID 0000.0001) // RANGE K (Lo:Hi:Step):(   1:   1:   1)
(PID.TID 0000.0001) // =======================================================
(PID.TID 0000.0001) // =======================================================
(PID.TID 0000.0001) // END OF FIELD                                          =
(PID.TID 0000.0001) // =======================================================
(PID.TID 0000.0001) 
(PID.TID 0000.0001) // =======================================================
(PID.TID 0000.0001) // Field hFacW at iteration          1
(PID.TID 0000.0001) // CMIN =          1.000000000000000E+00
(PID.TID 0000.0001) // CMAX =          1.000000000000000E+00
(PID.TID 0000.0001) // CINT =          0.000000000000000E+00
(PID.TID 0000.0001) // SYMBOLS (CMIN->CMAX): -abcdefghijklmnopqrstuvwxyz+
(PID.TID 0000.0001) //                  0.0: .
(PID.TID 0000.0001) // RANGE I (Lo:Hi:Step):(    -3:   196:     1)
(PID.TID 0000.0001) // RANGE J (Lo:Hi:Step):(    36:    -3:    -1)
(PID.TID 0000.0001) // RANGE K (Lo:Hi:Step):(   1:   1:   1)
(PID.TID 0000.0001) // =======================================================
(PID.TID 0000.0001) // =======================================================
(PID.TID 0000.0001) // END OF FIELD                                          =
(PID.TID 0000.0001) // =======================================================
(PID.TID 0000.0001) 
(PID.TID 0000.0001) // =======================================================
(PID.TID 0000.0001) // Field hFacS at iteration          1
(PID.TID 0000.0001) // CMIN =          1.000000000000000E+00
(PID.TID 0000.0001) // CMAX =          1.000000000000000E+00
(PID.TID 0000.0001) // CINT =          0.000000000000000E+00
(PID.TID 0000.0001) // SYMBOLS (CMIN->CMAX): -abcdefghijklmnopqrstuvwxyz+
(PID.TID 0000.0001) //                  0.0: .
(PID.TID 0000.0001) // RANGE I (Lo:Hi:Step):(    -3:   196:     1)
(PID.TID 0000.0001) // RANGE J (Lo:Hi:Step):(    36:    -3:    -1)
(PID.TID 0000.0001) // RANGE K (Lo:Hi:Step):(   1:   1:   1)
(PID.TID 0000.0001) // =======================================================
(PID.TID 0000.0001) // =======================================================
(PID.TID 0000.0001) // END OF FIELD                                          =
(PID.TID 0000.0001) // =======================================================
(PID.TID 0000.0001) 
(PID.TID 0000.0001) INI_CG2D: CG2D normalisation factor =  1.9156564154949553E-04
(PID.TID 0000.0001) INI_CG2D: cg2dTolerance = 5.809016360175293E-07 (Area=3.6388673751E+14)
(PID.TID 0000.0001) 
(PID.TID 0000.0001)  MDS_READ_META: opening file: pickup.0000072000.meta
(PID.TID 0000.0001)  nRecords = 123 ; filePrec =  64 ; fileIter =     72000
(PID.TID 0000.0001)     nDims =   2 , dims:
(PID.TID 0000.0001)    1: 192   1 192
(PID.TID 0000.0001)    2:  32   1  32
(PID.TID 0000.0001)     nFlds =  11 , nFl3D =   8 , fields:
(PID.TID 0000.0001)  >Uvel    < >GuNm1   < >Vvel    < >GvNm1   < >Theta   < >GtNm1   < >Salt    < >GsNm1   < >EtaN    < >dEtaHdt < >EtaH    <
(PID.TID 0000.0001)   nTimRec =   0 , timeList:
(PID.TID 0000.0001) READ_MFLDS_3D_RL: read field: "Uvel    ", #   1 in fldList, rec=   1
(PID.TID 0000.0001)  MDS_READ_FIELD: opening global file: pickup.0000072000
(PID.TID 0000.0001) READ_MFLDS_3D_RL: read field: "Vvel    ", #   3 in fldList, rec=   3
(PID.TID 0000.0001)  MDS_READ_FIELD: opening global file: pickup.0000072000
(PID.TID 0000.0001) READ_MFLDS_3D_RL: read field: "Theta   ", #   5 in fldList, rec=   5
(PID.TID 0000.0001)  MDS_READ_FIELD: opening global file: pickup.0000072000
(PID.TID 0000.0001) READ_MFLDS_3D_RL: read field: "Salt    ", #   7 in fldList, rec=   7
(PID.TID 0000.0001)  MDS_READ_FIELD: opening global file: pickup.0000072000
(PID.TID 0000.0001) READ_MFLDS_3D_RL: read field: "GuNm1   ", #   2 in fldList, rec=   2
(PID.TID 0000.0001)  MDS_READ_FIELD: opening global file: pickup.0000072000
(PID.TID 0000.0001) READ_MFLDS_3D_RL: field: "GuNm2   " missing in file: pickup.0000072000
(PID.TID 0000.0001) READ_MFLDS_3D_RL: read field: "GvNm1   ", #   4 in fldList, rec=   4
(PID.TID 0000.0001)  MDS_READ_FIELD: opening global file: pickup.0000072000
(PID.TID 0000.0001) READ_MFLDS_3D_RL: field: "GvNm2   " missing in file: pickup.0000072000
(PID.TID 0000.0001) READ_MFLDS_3D_RL: read field: "EtaN    ", #   9 in fldList, rec= 121
(PID.TID 0000.0001)  MDS_READ_FIELD: opening global file: pickup.0000072000
(PID.TID 0000.0001) READ_MFLDS_3D_RL: read field: "dEtaHdt ", #  10 in fldList, rec= 122
(PID.TID 0000.0001)  MDS_READ_FIELD: opening global file: pickup.0000072000
(PID.TID 0000.0001) READ_MFLDS_3D_RL: read field: "EtaH    ", #  11 in fldList, rec= 123
(PID.TID 0000.0001)  MDS_READ_FIELD: opening global file: pickup.0000072000
(PID.TID 0000.0001)  MDS_READ_FIELD: opening global file: trenberth_taux.bin
(PID.TID 0000.0001)  MDS_READ_FIELD: opening global file: trenberth_tauy.bin
(PID.TID 0000.0001)  MDS_READ_FIELD: opening global file: shiQnet_cs32.bin
(PID.TID 0000.0001)  MDS_READ_FIELD: opening global file: shiEmPR_cs32.bin
(PID.TID 0000.0001)  MDS_READ_FIELD: opening global file: lev_surfT_cs_12m.bin
(PID.TID 0000.0001)  MDS_READ_FIELD: opening global file: lev_surfS_cs_12m.bin
(PID.TID 0000.0001)  MDS_READ_FIELD: opening file: xx_theta.0000000000.001.001.data
(PID.TID 0000.0001)  MDS_READ_FIELD: opening file: xx_theta.0000000000.002.001.data
(PID.TID 0000.0001)  MDS_READ_FIELD: opening file: xx_theta.0000000000.003.001.data
(PID.TID 0000.0001)  MDS_READ_FIELD: opening file: xx_theta.0000000000.004.001.data
(PID.TID 0000.0001)  MDS_READ_FIELD: opening file: xx_theta.0000000000.005.001.data
(PID.TID 0000.0001)  MDS_READ_FIELD: opening file: xx_theta.0000000000.006.001.data
(PID.TID 0000.0001)  MDS_READ_FIELD: opening file: xx_salt.0000000000.001.001.data
(PID.TID 0000.0001)  MDS_READ_FIELD: opening file: xx_salt.0000000000.002.001.data
(PID.TID 0000.0001)  MDS_READ_FIELD: opening file: xx_salt.0000000000.003.001.data
(PID.TID 0000.0001)  MDS_READ_FIELD: opening file: xx_salt.0000000000.004.001.data
(PID.TID 0000.0001)  MDS_READ_FIELD: opening file: xx_salt.0000000000.005.001.data
(PID.TID 0000.0001)  MDS_READ_FIELD: opening file: xx_salt.0000000000.006.001.data
(PID.TID 0000.0001)  MDS_READ_FIELD: opening file: xx_diffkr.0000000000.001.001.data
(PID.TID 0000.0001)  MDS_READ_FIELD: opening file: xx_diffkr.0000000000.002.001.data
(PID.TID 0000.0001)  MDS_READ_FIELD: opening file: xx_diffkr.0000000000.003.001.data
(PID.TID 0000.0001)  MDS_READ_FIELD: opening file: xx_diffkr.0000000000.004.001.data
(PID.TID 0000.0001)  MDS_READ_FIELD: opening file: xx_diffkr.0000000000.005.001.data
(PID.TID 0000.0001)  MDS_READ_FIELD: opening file: xx_diffkr.0000000000.006.001.data
(PID.TID 0000.0001) // =======================================================
(PID.TID 0000.0001) // Model current state
(PID.TID 0000.0001) // =======================================================
(PID.TID 0000.0001) 
S/R EXTERNAL_FIELDS_LOAD: Reading new data:   12    1     72000  6.220800000000E+09
(PID.TID 0000.0001)  MDS_READ_FIELD: opening global file: trenberth_taux.bin
(PID.TID 0000.0001)  MDS_READ_FIELD: opening global file: trenberth_taux.bin
(PID.TID 0000.0001)  MDS_READ_FIELD: opening global file: trenberth_tauy.bin
(PID.TID 0000.0001)  MDS_READ_FIELD: opening global file: trenberth_tauy.bin
(PID.TID 0000.0001)  MDS_READ_FIELD: opening global file: shiQnet_cs32.bin
(PID.TID 0000.0001)  MDS_READ_FIELD: opening global file: shiQnet_cs32.bin
(PID.TID 0000.0001)  MDS_READ_FIELD: opening global file: shiEmPR_cs32.bin
(PID.TID 0000.0001)  MDS_READ_FIELD: opening global file: shiEmPR_cs32.bin
(PID.TID 0000.0001)  MDS_READ_FIELD: opening global file: lev_surfT_cs_12m.bin
(PID.TID 0000.0001)  MDS_READ_FIELD: opening global file: lev_surfT_cs_12m.bin
(PID.TID 0000.0001)  MDS_READ_FIELD: opening global file: lev_surfS_cs_12m.bin
(PID.TID 0000.0001)  MDS_READ_FIELD: opening global file: lev_surfS_cs_12m.bin
(PID.TID 0000.0001)  MDS_READ_FIELD: opening file: xx_tauu.0000000000.001.001.data
(PID.TID 0000.0001)  MDS_READ_FIELD: opening file: xx_tauu.0000000000.002.001.data
(PID.TID 0000.0001)  MDS_READ_FIELD: opening file: xx_tauu.0000000000.003.001.data
(PID.TID 0000.0001)  MDS_READ_FIELD: opening file: xx_tauu.0000000000.004.001.data
(PID.TID 0000.0001)  MDS_READ_FIELD: opening file: xx_tauu.0000000000.005.001.data
(PID.TID 0000.0001)  MDS_READ_FIELD: opening file: xx_tauu.0000000000.006.001.data
(PID.TID 0000.0001)  MDS_READ_FIELD: opening file: xx_tauv.0000000000.001.001.data
(PID.TID 0000.0001)  MDS_READ_FIELD: opening file: xx_tauv.0000000000.002.001.data
(PID.TID 0000.0001)  MDS_READ_FIELD: opening file: xx_tauv.0000000000.003.001.data
(PID.TID 0000.0001)  MDS_READ_FIELD: opening file: xx_tauv.0000000000.004.001.data
(PID.TID 0000.0001)  MDS_READ_FIELD: opening file: xx_tauv.0000000000.005.001.data
(PID.TID 0000.0001)  MDS_READ_FIELD: opening file: xx_tauv.0000000000.006.001.data
(PID.TID 0000.0001)  MDS_READ_FIELD: opening file: xx_sfl.0000000000.001.001.data
(PID.TID 0000.0001)  MDS_READ_FIELD: opening file: xx_sfl.0000000000.002.001.data
(PID.TID 0000.0001)  MDS_READ_FIELD: opening file: xx_sfl.0000000000.003.001.data
(PID.TID 0000.0001)  MDS_READ_FIELD: opening file: xx_sfl.0000000000.004.001.data
(PID.TID 0000.0001)  MDS_READ_FIELD: opening file: xx_sfl.0000000000.005.001.data
(PID.TID 0000.0001)  MDS_READ_FIELD: opening file: xx_sfl.0000000000.006.001.data
(PID.TID 0000.0001)  MDS_READ_FIELD: opening file: xx_hfl.0000000000.001.001.data
(PID.TID 0000.0001)  MDS_READ_FIELD: opening file: xx_hfl.0000000000.002.001.data
(PID.TID 0000.0001)  MDS_READ_FIELD: opening file: xx_hfl.0000000000.003.001.data
(PID.TID 0000.0001)  MDS_READ_FIELD: opening file: xx_hfl.0000000000.004.001.data
(PID.TID 0000.0001)  MDS_READ_FIELD: opening file: xx_hfl.0000000000.005.001.data
(PID.TID 0000.0001)  MDS_READ_FIELD: opening file: xx_hfl.0000000000.006.001.data
(PID.TID 0000.0001) SOLVE_FOR_PRESSURE: putPmEinXvector =    F
 cg2d: Sum(rhs),rhsMax =  -9.72022462519817E-12  4.27829651258201E+00
 cg2d: Sum(rhs),rhsMax =  -9.97602001007181E-12  4.27316012247703E+00
 cg2d: Sum(rhs),rhsMax =  -1.02602371043758E-11  4.26762372359341E+00
 cg2d: Sum(rhs),rhsMax =  -9.83391146291979E-12  4.26250700247518E+00
 cg2d: Sum(rhs),rhsMax =  -9.57811607804615E-12  4.25770388445801E+00
 cg2d: Sum(rhs),rhsMax =  -1.00897068477934E-11  4.25319684670860E+00
 cg2d: Sum(rhs),rhsMax =  -9.57811607804615E-12  4.24900187561335E+00
 cg2d: Sum(rhs),rhsMax =  -9.97602001007181E-12  4.24513384901565E+00
 cg2d: Sum(rhs),rhsMax =  -9.97602001007181E-12  4.24159887659934E+00
 cg2d: Sum(rhs),rhsMax =  -9.43600753089413E-12  4.23840118003469E+00
 cg2d: Sum(rhs),rhsMax =  -9.32232069317251E-12  4.23553910472220E+00
 cg2d: Sum(rhs),rhsMax =  -9.57811607804615E-12  4.23300289747808E+00
 cg2d: Sum(rhs),rhsMax =  -9.74864633462857E-12  4.23077337227777E+00
 cg2d: Sum(rhs),rhsMax =  -9.83391146291979E-12  4.22882245430565E+00
 cg2d: Sum(rhs),rhsMax =  -9.43600753089413E-12  4.22711469696131E+00
S/R EXTERNAL_FIELDS_LOAD: Reading new data:    1    2     72015  6.222096000000E+09
(PID.TID 0000.0001)  MDS_READ_FIELD: opening global file: trenberth_taux.bin
(PID.TID 0000.0001)  MDS_READ_FIELD: opening global file: trenberth_taux.bin
(PID.TID 0000.0001)  MDS_READ_FIELD: opening global file: trenberth_tauy.bin
(PID.TID 0000.0001)  MDS_READ_FIELD: opening global file: trenberth_tauy.bin
(PID.TID 0000.0001)  MDS_READ_FIELD: opening global file: shiQnet_cs32.bin
(PID.TID 0000.0001)  MDS_READ_FIELD: opening global file: shiQnet_cs32.bin
(PID.TID 0000.0001)  MDS_READ_FIELD: opening global file: shiEmPR_cs32.bin
(PID.TID 0000.0001)  MDS_READ_FIELD: opening global file: shiEmPR_cs32.bin
(PID.TID 0000.0001)  MDS_READ_FIELD: opening global file: lev_surfT_cs_12m.bin
(PID.TID 0000.0001)  MDS_READ_FIELD: opening global file: lev_surfT_cs_12m.bin
(PID.TID 0000.0001)  MDS_READ_FIELD: opening global file: lev_surfS_cs_12m.bin
(PID.TID 0000.0001)  MDS_READ_FIELD: opening global file: lev_surfS_cs_12m.bin
 cg2d: Sum(rhs),rhsMax =  -9.60653778747655E-12  4.22560896988503E+00
 cg2d: Sum(rhs),rhsMax =  -9.66338120633736E-12  4.22414668366123E+00
 cg2d: Sum(rhs),rhsMax =  -9.69180291576777E-12  4.22297626729180E+00
 cg2d: Sum(rhs),rhsMax =  -9.66338120633736E-12  4.22179768939393E+00
 cg2d: Sum(rhs),rhsMax =  -9.43600753089413E-12  4.22066224477575E+00
(PID.TID 0000.0001) Did not write pickup because writePickupAtEnd = FALSE
(PID.TID 0000.0001)  MDS_READ_FIELD: opening global file: lev_T_cs_15k.bin
 --> objf_test(bi,bj)   =  0.213716722401521E+05
 --> objf_tracer(bi,bj) =  0.000000000000000E+00
 --> objf_atl(bi,bj)    =  0.000000000000000E+00
 --> objf_test(bi,bj)   =  0.114870711263708E+05
 --> objf_tracer(bi,bj) =  0.000000000000000E+00
 --> objf_atl(bi,bj)    =  0.000000000000000E+00
 --> objf_test(bi,bj)   =  0.181705170176307E+05
 --> objf_tracer(bi,bj) =  0.000000000000000E+00
 --> objf_atl(bi,bj)    =  0.000000000000000E+00
 --> objf_test(bi,bj)   =  0.231600599828207E+05
 --> objf_tracer(bi,bj) =  0.000000000000000E+00
 --> objf_atl(bi,bj)    =  0.000000000000000E+00
 --> objf_test(bi,bj)   =  0.145354702307868E+05
 --> objf_tracer(bi,bj) =  0.000000000000000E+00
 --> objf_atl(bi,bj)    =  0.000000000000000E+00
 --> objf_test(bi,bj)   =  0.124705027422388E+05
 --> objf_tracer(bi,bj) =  0.000000000000000E+00
 --> objf_atl(bi,bj)    =  0.000000000000000E+00
  local fc =  0.101195293340000E+06
 global fc =  0.101195293340000E+06
 ph-check fcpertplus =   101195.293
(PID.TID 0000.0001)  MDS_READ_FIELD: opening file: xx_theta.0000000000.001.001.data
(PID.TID 0000.0001)  MDS_READ_FIELD: opening file: xx_theta.0000000000.002.001.data
(PID.TID 0000.0001)  MDS_READ_FIELD: opening file: xx_theta.0000000000.003.001.data
(PID.TID 0000.0001)  MDS_READ_FIELD: opening file: xx_theta.0000000000.004.001.data
(PID.TID 0000.0001)  MDS_READ_FIELD: opening file: xx_theta.0000000000.005.001.data
(PID.TID 0000.0001)  MDS_READ_FIELD: opening file: xx_theta.0000000000.006.001.data
 ph-check fcpertminus =   101195.264
(PID.TID 0000.0001)  MDS_READ_FIELD: opening file: xx_theta.0000000000.001.001.data
(PID.TID 0000.0001)  MDS_READ_FIELD: opening file: xx_theta.0000000000.002.001.data
(PID.TID 0000.0001)  MDS_READ_FIELD: opening file: xx_theta.0000000000.003.001.data
(PID.TID 0000.0001)  MDS_READ_FIELD: opening file: xx_theta.0000000000.004.001.data
(PID.TID 0000.0001)  MDS_READ_FIELD: opening file: xx_theta.0000000000.005.001.data
(PID.TID 0000.0001)  MDS_READ_FIELD: opening file: xx_theta.0000000000.006.001.data
(PID.TID 0000.0001)  MDS_READ_FIELD: opening global file: bathy_Hmin50.bin
(PID.TID 0000.0001) // =======================================================
(PID.TID 0000.0001) // Field Model R_low (ini_masks_etc) at iteration          1
(PID.TID 0000.0001) // CMIN =         -5.200000000000000E+03
(PID.TID 0000.0001) // CMAX =         -5.000000000000000E+01
(PID.TID 0000.0001) // CINT =          1.907407407407407E+02
(PID.TID 0000.0001) // SYMBOLS (CMIN->CMAX): -abcdefghijklmnopqrstuvwxyz+
(PID.TID 0000.0001) //                  0.0: .
(PID.TID 0000.0001) // RANGE I (Lo:Hi:Step):(    -3:   196:     1)
(PID.TID 0000.0001) // RANGE J (Lo:Hi:Step):(    36:    -3:    -1)
(PID.TID 0000.0001) // RANGE K (Lo:Hi:Step):(   1:   1:   1)
(PID.TID 0000.0001) // =======================================================
(PID.TID 0000.0001) K =   1
(PID.TID 0000.0001) //                I=6       I=16      I=26      I=36      I=38      I=48      I=58      I=68      I=70      I=80      I=90      I=100     I=102     I=112     I=122     I=132     I=134     I=144     I=154     I=164     I=166     I=176     I=186     I=196
(PID.TID 0000.0001) // |--J--|321012345|789012345|789012345|789012345|901234567|901234567|901234567|901234567|123456789|123456789|123456789|123456789|345678901|345678901|345678901|345678901|567890123|567890123|567890123|567890123|789012345|789012345|789012345|789012345|
(PID.TID 0000.0001) //     36 cbbc-ddcbcdehkhhmn..++..................................................okn.skko--a-fc----bba-cp.............tfeecccbbdeecccbbdeddedcdcccdddcddffggghiggfffdeeffijlihjlica---a--cgffel.+edfgeedflcbahgfllcbahgfllfhdffhkfffca-aady...llnabdoa--a
(PID.TID 0000.0001) //     35 dcac--cbbeefjkfefw+..........zpu........................................kqnzrqqk--b-da----bbbbfu..............fdddccaadcddccaadcdddcbbbbcdddcccdffffghgffffddefflligfiljfba---aafddehy...pwvlhfffcbagfccfcbagfcceeffffjlkjgaa---bfvheeln-aesaaab
(PID.TID 0000.0001) //     34 d--ba-abcehjnldcclz+........spps.......................................vkqn+xnnncabbcbba--aabfu+..............hcbaaaaaccbaaaaaccdccbaaabbddddccdffffghfeeeeedeffjiffefilhfcaaaacgceei.......zomggfcaecbbgfcaecbbccddefilihecbaacbaajfega-aesfeed
(PID.TID 0000.0001) //     33 --abbbccceiomkfdbbc+.......+s..........................................xsrxzz+z.fdcddb-----adu+...............hcbaa--accbaa--accddba--bbbddddccdfffhhgfeeddcceddhfeddfgikhfffdfgccffw........zohhgebbaaahgebbaaaaaccdfhlhfefdcccaabjefbaaafoosso
(PID.TID 0000.0001) //     32 --bddefhhkqqlgfaakqz..v.+..+.........................................++..u+....zigfdba----adu+................kdcaaa-acccaaa-accdcb---bbbcdddddefffggfeeedcccccbccbbdcdfgghhiihcbeiw.........+ynjgebaaaajgebaaaa-aacccfikkhecccbbbaaabaadfklnqpp
(PID.TID 0000.0001) //     31 abbcffijnpnqneaaat..umrr+s.z.........................................+++++.ztsvdlifeb--dfdfu+................+lkdca--abcdca--abcccb---bbbbddddeffflhfeeeecbbbbaaba-abbacbcdceffbbfw+..........++ujfbaaa-ujfbaaa----aacffiljgfffcca--adfikkiihhhf
(PID.TID 0000.0001) //     30 --adgillkkkifcadcx.ymmqzqikvnnps.....................................+++++wmegt-jlifcacdlqx+++...............mligea---abgea---abbbb---abaaddddeedkmeddefdbbbaaaabc---b--aaaaabaabm..............+viba---+viba-------acdefinmlgiieb-chnnnmlmlgffc
(PID.TID 0000.0001) //     29 --cfiljigfjd--efdozy...+ximpnnuz......................................+++yqddhp-iljhcbbchz+......++.........+mmhffc----affc----aaba------acdddcbcineddgdbaaa----cdd--a------aa-bfz...............+qe---a.+qe---aa---aedeegknmlgiigcdfhpokkimlfdb
(PID.TID 0000.0001) //     28 -abgkhfcccea-bdei........t............................................++zwgfcfk-gknhccbbhwwy.....+++........+njfeed-----eed-----aa-------abddcabcnfddegcaaa-----hlf------------dk+................+ja---..+ja------bffdddehfd--bedaacfhpnligiihd
(PID.TID 0000.0001) //     27 -acghfbaaaa-achmy......................+.......+++....................++vnbbbclefkpkeeecflmqxy....++........+lhfeecc----eecc------------aaadcbabcfhddccba-------zqd-----------irw.................++e---..++e-----mhmijddda--------ahhfiokhedegg
(PID.TID 0000.0001) //     26 -adhfca-----bfiv.......................+.......++sy...................+tq-fdbblcjknqiheddefhiksz++++........zkhfdccb----dccb------------aabdcaaaacfddbca-------a+xfa-abb-----vvv...................+wa--...+wa---mlmkijhc----------cjjffiheb-aad
(PID.TID 0000.0001) //     25 -achfa------ch+..................w.......w.......njo+................+x-----bcgidiqqojfefiiiijmy.++.........zkhfdbaa----dbaa-------daa---acccaaaacccca--------ac.+udaabbb----tei...................++qde...++qdeqnghiljcaaaaidaa----beedeeca--bb
(PID.TID 0000.0001) //     24 aaeifa--acbcei...................w.......w.......likn+.....++.....++znpa----bbdi-fnlmnjhinlksssw............qhfeca------ca--------addc--aeffaaaaaaccb-a----a--bd.++udbbaba---ven....................++xy....++xywnfgllcbbabegkecba----ddddcaacdc
(PID.TID 0000.0001) //     23 abfida-aabchjk...................zz......zz.....nhhijz....tqq.....+ujgzgd---abci-cegklkkknols..xuu..........zgfdba------ba--------bcd---affaaadffabbb-----aa-bcc.+.+ufb-----l.gx...........s.........++z.....++zzkfilfccccoz..ulkcd---bccnfddddd
(PID.TID 0000.0001) //     22 -afhfaa---bfgi....................zz..rn..zz..rnjffggm...nlmn+....+sffzya--aabcieaaffdfhimrmp...yuu.++.......zudba------ba--------adc---dda-adffe-aa--------aaac....+ufc-baaqvhh..........dcfeeh......++......++zggqvifefhz......zobbaccfwuffeee
(PID.TID 0000.0001) //     21 babcgca----abe.....................ysstl...ysstlgeeeeoz..ijklt+....lfjzzf---adfcfdaadcehllotq....yy+++zzs.....+zcba-----cba-------cdd--aaa----df------------aaac.....+upjdcy.vohq.......+idcdfeeefwz....efwz....+hhn.vklox.........gdccfjwrigffh
(PID.TID 0000.0001) //     20 fbbbcgfcaa-aae+.......................lc......lcgfdddhq.+hiilnz++.+oquxyz--adgkfdcaabcfmtooyxz......+yuiiy....++gb------gb--------ddcca-a-----acbaa------bbaaaab........ywxy.lulo.lv...kcdgddffefffilyx+fffilyx+fffk.+xyyy.........mgeimvskjklll
(PID.TID 0000.0001) //     19 zmfeccdghfeegcbt......................aa......aafifccgnrzgghjry.+++sr+lq.--edfkkoxtkblwnnsp.vv......skhggt...+++t-------t---------bdaf---------edd-------adlaaaa+..........vnhzy.tllqiedccdhggfggffiiggfgffiiggfcbdgy..yz..........xigqophijkkii
(PID.TID 0000.0001) //     18 ..wifedfkhfegbbcivlqfoz..............jaa.....jaacfihggokeeffgt..++++..hhlfdeddkez..qcz+.zwxtsttz..ysrkhot++++++zig------ig--------b--f---------egqqqaa----frb---+........+kkrhw.vqmlnieddcdehgggffgigedbffgigedbaaceiy.............zilrddefikkhh
(PID.TID 0000.0001) //     17 ..+wfeefikhgcbbccaaacgn.............icaa....icaaccfihfoedddeedy..++...nnqwgfeekeyy.z++..+zsjjllllljllpjos+++.+zhhi-----ehi-----e-----ea--------foqqoqqo--hlwgea-.........+nk+..xiioonhfefddegihhghigfdbaghigfdbaaabdgx..............nheddefiklhg
(PID.TID 0000.0001) //     16 ....wiheddeccdfhfbabdfl............jdbad...jdbaddddgifkccccdccd+.++..++ynvz.tkkq.mu....++zyslllllkhggkmpy++...ihhi-----ehi-----ea---feb-----a-acnoohfghknvmwnuca..........qhu..hhhkojgffgeefghihhiieedbahiieedbaaabcdy..............ygddeghiljgf
(PID.TID 0000.0001) //     15 ......ylea--acfihebcbbes..........sfcbbn..sfcbbngfffigcaaabdbcac+.+++++zgmpx...y.mm....++..zslwz.yhhhhnz+++...rhgc----abgc----ab----ige----acaaalllkddfiy..yswxb..........thk.xgghiligfghfefhhhhiiheedcdiiheedcdbbabdmz.............zfdeghikkifd
(PID.TID 0000.0001) //     14 ........c---acgkhdcc--di..........ofddch..ofddchohffikaaaaabaaa-aw+.+ysnggox++...qrv..........yzzzzrjil+++....qhgd-----agd-----a-----i---cccdeabkklldinqssy..xxv...........+y.uhghikihgfghefgihhhgeeeeedhgeeeeeddbaadhw.............nedeghjjhfed
(PID.TID 0000.0001) //     13 .......+b----cfkhec---afz.........nhfdff..nhfdffholghkaaaaaba-a---flkkuswyy++++y+zr...........zzzzz++ry++......yd-------d--------------aeecdeidfkkqnqlmqquukqqmf..............iihiijjhfefgefhjihiffgggffiffgggffecaabelx...........zjecehijhfecc
(PID.TID 0000.0001) //     12 .......ec----chjhec---ag..........skiqdd..skiqddeiiiifaaabae--a---dd--iu+++.+++sxq++..........+z+++++.+++....++.s-------s------------a-ceccdejhlllkqlkklssiccdee.............wjkkkjjjigeefffgjiiighiiihhighiiihhhdaabdffghtxx......mfccehjiffdb-
(PID.TID 0000.0001) //     11 ......pdca--achlheba--ai..........nkn.fd..nkn.fdemijidaaaabi-------a--q+....++.ziis...........+++++..........+yyza----b-za----b-----a--ccccddkhieekkossssfbbbbcd............njjijhhihijhgggggjjjjijkkkkjjijkkkkjjhcaacddeegpy.....xfdccdhjgfdda-
(PID.TID 0000.0001) //     10 ......wfdb--achlhea---an.........uos..dc.uos..dcemikkfdcaabi-------equ+.........mk...........................zyvuq----ccuq----cc----a---dcfhkopqjeissrnpfbbcccde..........zslihhigghgijjihhhhkllkkkkkkjkkkkkkkjkkkedccdeeeeipz..zwhccbcdhgfddcam
(PID.TID 0000.0001) //      9 ......vgec---bfikca--cjl+.......+nnv.+cc+nnv.+ccffhkkiddaadha-----as++..........pvz++........................zxuuk------uk------a---a----djmqrrnlllsoiddcccccdjf.........+zjijhfgfggffhjkkkiillljihhghgijihhghgihighdeeffgghimnnjgecbbcdgfeccbas
(PID.TID 0000.0001) //      8 .....zleca---afjfca--hdfz.......vkky.jcevkky.jceddefijffdddhb--a-afv............nn..ss.........................+yku-----yku--------------ejnpqqnninnritqdccchkmf+.......wihgghgeffffeefhijkjkljiigeeffefigeeffefffhjhhikkklljklmhffeeeggfdcbaay.
(PID.TID 0000.0001) //      7 ...+zohec--abcfkhecbchbdx.......qiht.faaqiht.faaaabdgijgfededcdcb-f+............nn...pz.........................+zu-----+zu--------------edefqgqddsz+......+yuddmm+....tiggfggfeeeefeeefiiiijkiihhedddddhheddddddddjjllliijhfkmmkkjjhijgdcba--q.
(PID.TID 0000.0001) //      6 ..+yomfddcaabefkifdchaadt......uqdeisc--qdeisc----dfefgifffkklldc--v............up...pp.........................v.x-----v.x---------a----fbbpqgzenx+........zdbcmllkhhfffffffgfeeeeeeeefhhhhijihhffddcbbhffddcbbbbdhhiihedddb-cfhhhjjjieca----+.
(PID.TID 0000.0001) //      5 ..+nhgffkghccfhkhffgdaackz....uoibcimlaaibcimlaaacfbddfjjhijeehf-a-c............zs...su.........................qk.yi---qk.yi-------gha-fjddqs+xkrz.........q-bchikdccdeeeeeeedddedddddgghhhhjhhgffcbbaagffcbbaaaaddfegecca----dfeefhfgdb-----+.
(PID.TID 0000.0001) //      4 .+ujhgfllfhdffhkfffca-aady...llnabdopfcbabdopfcbdgdbcdehlihgfddc--ms............................................okn.zd--okn.zd---eciiiicfkeeqy.ysz..........n-aafgdcbbdeddedcdcccdddcddffggghiggfffdbaa-fffdbaa---acdcccba--abvfedeffdcca----b+.
(PID.TID 0000.0001) //      3 +vjggfcceeffffjlkjgaa---bfvheeln-aesphfd-aesphfdhgabddeflihhgfecbaaayq+++++.....................................kqnz.vtpkqnz.vtpkllgdccfkkkkk..++..........+g---fecaaadcdddcbbbbcdddcccdffffghgffffdcaa-fffdcaa----abcaaaa-acxxmecdjmdbba----r+.
(PID.TID 0000.0001) //      2 qifeecbbccddefilihecbaacbaajfega-aesqhff-aesqhffiea-cdeflkkljifeddcba---bry+...................................vkqn+.sghkqn+.sghfcbcbbbdgfdek.++++.........+l---caaaaaccdccbaaabbddddccdffffghfeeeeecba-eeeecba------baaaa-euwxqdbcdkud-----sy+.
(PID.TID 0000.0001) //      1 ebbbbaaaaaccdfhlhfefdcccaabjefbaaafonhglaafonhglid--adfgkkkklkhffddca-----s++++................................xsrxz.tedsrxz.tedcbbbbaaadddet.++++.........+l------a-accddba--bbbddddccdfffhhgfeeddccba-eddccba-------aaaabgns.qcbcchyzqngll++..
(PID.TID 0000.0001) //      0 -aaaaaaa-aacccfikkhecccbbbaaabaadfkllilmdfkllilmgebaadfijjiiikjhffdcba-----lllgn.............................++..u+..zmd.u+..zmdfbd---a-aeef.xx+..........+++s-------accdcb---bbbcdddddefffggfeeedcccbbaedcccbba----aa--alrwwy.kcbccc+...++++...
(PID.TID 0000.0001) //     -1 --aaaaa----aacffiljgfffcca--adfikkiikimikkiikimiiheccfurkiffhijjigfecb-----l----.............................+++++.z+.wq++.z+.wqgbf-------dgzpoy+........+ys+yrb--aa-abcccb---bbbbddddeffflhfeeeecbbcbbaecbbcbbaa----a--bdflm.yuibbcc.......+...
(PID.TID 0000.0001) //     -2 --aaa-------acdefinmlgiieb-chnnnmlmlfklkmlmlfklklkhednwwsheeghhijjgfdca----g---a.............................+++++wmu++y++wmu++ywn--------fwvmgy+........+r-.+++-abc--abbbb---abaaddddeedkmeddefdbbbdcbadbbbdcbaa-------ba-hv.susfbcc.......+...
(PID.TID 0000.0001) //     -3 a--a---aa---aedeegknmlgiigcdfhpokkimdkmkkkimdkmknoiedcfjvpddegghhhhgfdcbaa-n---a..............................+++yqd.++++yqd.+++zvq--dafz.lqnggw+........+b-....abcc---aaba------acdddcbcineddgdbaaaeedbbaaaeedbaa----------nysqssfcd...........
(PID.TID 0000.0001) // =======================================================
(PID.TID 0000.0001) // END OF FIELD                                          =
(PID.TID 0000.0001) // =======================================================
(PID.TID 0000.0001) 
(PID.TID 0000.0001) // =======================================================
(PID.TID 0000.0001) // Field Model Ro_surf (ini_masks_etc) at iteration          1
(PID.TID 0000.0001) // CMIN =         -7.105427357601002E-15
(PID.TID 0000.0001) // CMAX =         -7.105427357601002E-15
(PID.TID 0000.0001) // CINT =          0.000000000000000E+00
(PID.TID 0000.0001) // SYMBOLS (CMIN->CMAX): -abcdefghijklmnopqrstuvwxyz+
(PID.TID 0000.0001) //                  0.0: .
(PID.TID 0000.0001) // RANGE I (Lo:Hi:Step):(    -3:   196:     1)
(PID.TID 0000.0001) // RANGE J (Lo:Hi:Step):(    36:    -3:    -1)
(PID.TID 0000.0001) // RANGE K (Lo:Hi:Step):(   1:   1:   1)
(PID.TID 0000.0001) // =======================================================
(PID.TID 0000.0001) // =======================================================
(PID.TID 0000.0001) // END OF FIELD                                          =
(PID.TID 0000.0001) // =======================================================
(PID.TID 0000.0001) 
(PID.TID 0000.0001) // =======================================================
(PID.TID 0000.0001) // Field hFacC at iteration          1
(PID.TID 0000.0001) // CMIN =          1.000000000000000E+00
(PID.TID 0000.0001) // CMAX =          1.000000000000000E+00
(PID.TID 0000.0001) // CINT =          0.000000000000000E+00
(PID.TID 0000.0001) // SYMBOLS (CMIN->CMAX): -abcdefghijklmnopqrstuvwxyz+
(PID.TID 0000.0001) //                  0.0: .
(PID.TID 0000.0001) // RANGE I (Lo:Hi:Step):(    -3:   196:     1)
(PID.TID 0000.0001) // RANGE J (Lo:Hi:Step):(    36:    -3:    -1)
(PID.TID 0000.0001) // RANGE K (Lo:Hi:Step):(   1:   1:   1)
(PID.TID 0000.0001) // =======================================================
(PID.TID 0000.0001) // =======================================================
(PID.TID 0000.0001) // END OF FIELD                                          =
(PID.TID 0000.0001) // =======================================================
(PID.TID 0000.0001) 
(PID.TID 0000.0001) // =======================================================
(PID.TID 0000.0001) // Field hFacW at iteration          1
(PID.TID 0000.0001) // CMIN =          1.000000000000000E+00
(PID.TID 0000.0001) // CMAX =          1.000000000000000E+00
(PID.TID 0000.0001) // CINT =          0.000000000000000E+00
(PID.TID 0000.0001) // SYMBOLS (CMIN->CMAX): -abcdefghijklmnopqrstuvwxyz+
(PID.TID 0000.0001) //                  0.0: .
(PID.TID 0000.0001) // RANGE I (Lo:Hi:Step):(    -3:   196:     1)
(PID.TID 0000.0001) // RANGE J (Lo:Hi:Step):(    36:    -3:    -1)
(PID.TID 0000.0001) // RANGE K (Lo:Hi:Step):(   1:   1:   1)
(PID.TID 0000.0001) // =======================================================
(PID.TID 0000.0001) // =======================================================
(PID.TID 0000.0001) // END OF FIELD                                          =
(PID.TID 0000.0001) // =======================================================
(PID.TID 0000.0001) 
(PID.TID 0000.0001) // =======================================================
(PID.TID 0000.0001) // Field hFacS at iteration          1
(PID.TID 0000.0001) // CMIN =          1.000000000000000E+00
(PID.TID 0000.0001) // CMAX =          1.000000000000000E+00
(PID.TID 0000.0001) // CINT =          0.000000000000000E+00
(PID.TID 0000.0001) // SYMBOLS (CMIN->CMAX): -abcdefghijklmnopqrstuvwxyz+
(PID.TID 0000.0001) //                  0.0: .
(PID.TID 0000.0001) // RANGE I (Lo:Hi:Step):(    -3:   196:     1)
(PID.TID 0000.0001) // RANGE J (Lo:Hi:Step):(    36:    -3:    -1)
(PID.TID 0000.0001) // RANGE K (Lo:Hi:Step):(   1:   1:   1)
(PID.TID 0000.0001) // =======================================================
(PID.TID 0000.0001) // =======================================================
(PID.TID 0000.0001) // END OF FIELD                                          =
(PID.TID 0000.0001) // =======================================================
(PID.TID 0000.0001) 
(PID.TID 0000.0001) INI_CG2D: CG2D normalisation factor =  1.9156564154949553E-04
(PID.TID 0000.0001) INI_CG2D: cg2dTolerance = 5.809016360175293E-07 (Area=3.6388673751E+14)
(PID.TID 0000.0001) 
(PID.TID 0000.0001)  MDS_READ_META: opening file: pickup.0000072000.meta
(PID.TID 0000.0001)  nRecords = 123 ; filePrec =  64 ; fileIter =     72000
(PID.TID 0000.0001)     nDims =   2 , dims:
(PID.TID 0000.0001)    1: 192   1 192
(PID.TID 0000.0001)    2:  32   1  32
(PID.TID 0000.0001)     nFlds =  11 , nFl3D =   8 , fields:
(PID.TID 0000.0001)  >Uvel    < >GuNm1   < >Vvel    < >GvNm1   < >Theta   < >GtNm1   < >Salt    < >GsNm1   < >EtaN    < >dEtaHdt < >EtaH    <
(PID.TID 0000.0001)   nTimRec =   0 , timeList:
(PID.TID 0000.0001) READ_MFLDS_3D_RL: read field: "Uvel    ", #   1 in fldList, rec=   1
(PID.TID 0000.0001)  MDS_READ_FIELD: opening global file: pickup.0000072000
(PID.TID 0000.0001) READ_MFLDS_3D_RL: read field: "Vvel    ", #   3 in fldList, rec=   3
(PID.TID 0000.0001)  MDS_READ_FIELD: opening global file: pickup.0000072000
(PID.TID 0000.0001) READ_MFLDS_3D_RL: read field: "Theta   ", #   5 in fldList, rec=   5
(PID.TID 0000.0001)  MDS_READ_FIELD: opening global file: pickup.0000072000
(PID.TID 0000.0001) READ_MFLDS_3D_RL: read field: "Salt    ", #   7 in fldList, rec=   7
(PID.TID 0000.0001)  MDS_READ_FIELD: opening global file: pickup.0000072000
(PID.TID 0000.0001) READ_MFLDS_3D_RL: read field: "GuNm1   ", #   2 in fldList, rec=   2
(PID.TID 0000.0001)  MDS_READ_FIELD: opening global file: pickup.0000072000
(PID.TID 0000.0001) READ_MFLDS_3D_RL: field: "GuNm2   " missing in file: pickup.0000072000
(PID.TID 0000.0001) READ_MFLDS_3D_RL: read field: "GvNm1   ", #   4 in fldList, rec=   4
(PID.TID 0000.0001)  MDS_READ_FIELD: opening global file: pickup.0000072000
(PID.TID 0000.0001) READ_MFLDS_3D_RL: field: "GvNm2   " missing in file: pickup.0000072000
(PID.TID 0000.0001) READ_MFLDS_3D_RL: read field: "EtaN    ", #   9 in fldList, rec= 121
(PID.TID 0000.0001)  MDS_READ_FIELD: opening global file: pickup.0000072000
(PID.TID 0000.0001) READ_MFLDS_3D_RL: read field: "dEtaHdt ", #  10 in fldList, rec= 122
(PID.TID 0000.0001)  MDS_READ_FIELD: opening global file: pickup.0000072000
(PID.TID 0000.0001) READ_MFLDS_3D_RL: read field: "EtaH    ", #  11 in fldList, rec= 123
(PID.TID 0000.0001)  MDS_READ_FIELD: opening global file: pickup.0000072000
(PID.TID 0000.0001)  MDS_READ_FIELD: opening global file: trenberth_taux.bin
(PID.TID 0000.0001)  MDS_READ_FIELD: opening global file: trenberth_tauy.bin
(PID.TID 0000.0001)  MDS_READ_FIELD: opening global file: shiQnet_cs32.bin
(PID.TID 0000.0001)  MDS_READ_FIELD: opening global file: shiEmPR_cs32.bin
(PID.TID 0000.0001)  MDS_READ_FIELD: opening global file: lev_surfT_cs_12m.bin
(PID.TID 0000.0001)  MDS_READ_FIELD: opening global file: lev_surfS_cs_12m.bin
(PID.TID 0000.0001)  MDS_READ_FIELD: opening file: xx_theta.0000000000.001.001.data
(PID.TID 0000.0001)  MDS_READ_FIELD: opening file: xx_theta.0000000000.002.001.data
(PID.TID 0000.0001)  MDS_READ_FIELD: opening file: xx_theta.0000000000.003.001.data
(PID.TID 0000.0001)  MDS_READ_FIELD: opening file: xx_theta.0000000000.004.001.data
(PID.TID 0000.0001)  MDS_READ_FIELD: opening file: xx_theta.0000000000.005.001.data
(PID.TID 0000.0001)  MDS_READ_FIELD: opening file: xx_theta.0000000000.006.001.data
(PID.TID 0000.0001)  MDS_READ_FIELD: opening file: xx_salt.0000000000.001.001.data
(PID.TID 0000.0001)  MDS_READ_FIELD: opening file: xx_salt.0000000000.002.001.data
(PID.TID 0000.0001)  MDS_READ_FIELD: opening file: xx_salt.0000000000.003.001.data
(PID.TID 0000.0001)  MDS_READ_FIELD: opening file: xx_salt.0000000000.004.001.data
(PID.TID 0000.0001)  MDS_READ_FIELD: opening file: xx_salt.0000000000.005.001.data
(PID.TID 0000.0001)  MDS_READ_FIELD: opening file: xx_salt.0000000000.006.001.data
(PID.TID 0000.0001)  MDS_READ_FIELD: opening file: xx_diffkr.0000000000.001.001.data
(PID.TID 0000.0001)  MDS_READ_FIELD: opening file: xx_diffkr.0000000000.002.001.data
(PID.TID 0000.0001)  MDS_READ_FIELD: opening file: xx_diffkr.0000000000.003.001.data
(PID.TID 0000.0001)  MDS_READ_FIELD: opening file: xx_diffkr.0000000000.004.001.data
(PID.TID 0000.0001)  MDS_READ_FIELD: opening file: xx_diffkr.0000000000.005.001.data
(PID.TID 0000.0001)  MDS_READ_FIELD: opening file: xx_diffkr.0000000000.006.001.data
(PID.TID 0000.0001) // =======================================================
(PID.TID 0000.0001) // Model current state
(PID.TID 0000.0001) // =======================================================
(PID.TID 0000.0001) 
S/R EXTERNAL_FIELDS_LOAD: Reading new data:   12    1     72000  6.220800000000E+09
(PID.TID 0000.0001)  MDS_READ_FIELD: opening global file: trenberth_taux.bin
(PID.TID 0000.0001)  MDS_READ_FIELD: opening global file: trenberth_taux.bin
(PID.TID 0000.0001)  MDS_READ_FIELD: opening global file: trenberth_tauy.bin
(PID.TID 0000.0001)  MDS_READ_FIELD: opening global file: trenberth_tauy.bin
(PID.TID 0000.0001)  MDS_READ_FIELD: opening global file: shiQnet_cs32.bin
(PID.TID 0000.0001)  MDS_READ_FIELD: opening global file: shiQnet_cs32.bin
(PID.TID 0000.0001)  MDS_READ_FIELD: opening global file: shiEmPR_cs32.bin
(PID.TID 0000.0001)  MDS_READ_FIELD: opening global file: shiEmPR_cs32.bin
(PID.TID 0000.0001)  MDS_READ_FIELD: opening global file: lev_surfT_cs_12m.bin
(PID.TID 0000.0001)  MDS_READ_FIELD: opening global file: lev_surfT_cs_12m.bin
(PID.TID 0000.0001)  MDS_READ_FIELD: opening global file: lev_surfS_cs_12m.bin
(PID.TID 0000.0001)  MDS_READ_FIELD: opening global file: lev_surfS_cs_12m.bin
(PID.TID 0000.0001)  MDS_READ_FIELD: opening file: xx_tauu.0000000000.001.001.data
(PID.TID 0000.0001)  MDS_READ_FIELD: opening file: xx_tauu.0000000000.002.001.data
(PID.TID 0000.0001)  MDS_READ_FIELD: opening file: xx_tauu.0000000000.003.001.data
(PID.TID 0000.0001)  MDS_READ_FIELD: opening file: xx_tauu.0000000000.004.001.data
(PID.TID 0000.0001)  MDS_READ_FIELD: opening file: xx_tauu.0000000000.005.001.data
(PID.TID 0000.0001)  MDS_READ_FIELD: opening file: xx_tauu.0000000000.006.001.data
(PID.TID 0000.0001)  MDS_READ_FIELD: opening file: xx_tauv.0000000000.001.001.data
(PID.TID 0000.0001)  MDS_READ_FIELD: opening file: xx_tauv.0000000000.002.001.data
(PID.TID 0000.0001)  MDS_READ_FIELD: opening file: xx_tauv.0000000000.003.001.data
(PID.TID 0000.0001)  MDS_READ_FIELD: opening file: xx_tauv.0000000000.004.001.data
(PID.TID 0000.0001)  MDS_READ_FIELD: opening file: xx_tauv.0000000000.005.001.data
(PID.TID 0000.0001)  MDS_READ_FIELD: opening file: xx_tauv.0000000000.006.001.data
(PID.TID 0000.0001)  MDS_READ_FIELD: opening file: xx_sfl.0000000000.001.001.data
(PID.TID 0000.0001)  MDS_READ_FIELD: opening file: xx_sfl.0000000000.002.001.data
(PID.TID 0000.0001)  MDS_READ_FIELD: opening file: xx_sfl.0000000000.003.001.data
(PID.TID 0000.0001)  MDS_READ_FIELD: opening file: xx_sfl.0000000000.004.001.data
(PID.TID 0000.0001)  MDS_READ_FIELD: opening file: xx_sfl.0000000000.005.001.data
(PID.TID 0000.0001)  MDS_READ_FIELD: opening file: xx_sfl.0000000000.006.001.data
(PID.TID 0000.0001)  MDS_READ_FIELD: opening file: xx_hfl.0000000000.001.001.data
(PID.TID 0000.0001)  MDS_READ_FIELD: opening file: xx_hfl.0000000000.002.001.data
(PID.TID 0000.0001)  MDS_READ_FIELD: opening file: xx_hfl.0000000000.003.001.data
(PID.TID 0000.0001)  MDS_READ_FIELD: opening file: xx_hfl.0000000000.004.001.data
(PID.TID 0000.0001)  MDS_READ_FIELD: opening file: xx_hfl.0000000000.005.001.data
(PID.TID 0000.0001)  MDS_READ_FIELD: opening file: xx_hfl.0000000000.006.001.data
(PID.TID 0000.0001) SOLVE_FOR_PRESSURE: putPmEinXvector =    F
 cg2d: Sum(rhs),rhsMax =  -9.74864633462857E-12  4.27829651258201E+00
 cg2d: Sum(rhs),rhsMax =  -9.63495949690696E-12  4.27316012267325E+00
 cg2d: Sum(rhs),rhsMax =  -9.69180291576777E-12  4.26762372474355E+00
 cg2d: Sum(rhs),rhsMax =  -9.23705556488130E-12  4.26250700528529E+00
 cg2d: Sum(rhs),rhsMax =  -9.49285094975494E-12  4.25770388943225E+00
 cg2d: Sum(rhs),rhsMax =  -9.83391146291979E-12  4.25319685395357E+00
 cg2d: Sum(rhs),rhsMax =  -9.49285094975494E-12  4.24900188499024E+00
 cg2d: Sum(rhs),rhsMax =  -9.89075488178059E-12  4.24513386019165E+00
 cg2d: Sum(rhs),rhsMax =  -9.72022462519817E-12  4.24159888911997E+00
 cg2d: Sum(rhs),rhsMax =  -1.01181285572238E-11  4.23840119344366E+00
 cg2d: Sum(rhs),rhsMax =  -9.43600753089413E-12  4.23553911867580E+00
 cg2d: Sum(rhs),rhsMax =  -9.69180291576777E-12  4.23300291176202E+00
 cg2d: Sum(rhs),rhsMax =  -9.49285094975494E-12  4.23077338673311E+00
 cg2d: Sum(rhs),rhsMax =  -9.69180291576777E-12  4.22882246869388E+00
 cg2d: Sum(rhs),rhsMax =  -9.15179043659009E-12  4.22711471090957E+00
S/R EXTERNAL_FIELDS_LOAD: Reading new data:    1    2     72015  6.222096000000E+09
(PID.TID 0000.0001)  MDS_READ_FIELD: opening global file: trenberth_taux.bin
(PID.TID 0000.0001)  MDS_READ_FIELD: opening global file: trenberth_taux.bin
(PID.TID 0000.0001)  MDS_READ_FIELD: opening global file: trenberth_tauy.bin
(PID.TID 0000.0001)  MDS_READ_FIELD: opening global file: trenberth_tauy.bin
(PID.TID 0000.0001)  MDS_READ_FIELD: opening global file: shiQnet_cs32.bin
(PID.TID 0000.0001)  MDS_READ_FIELD: opening global file: shiQnet_cs32.bin
(PID.TID 0000.0001)  MDS_READ_FIELD: opening global file: shiEmPR_cs32.bin
(PID.TID 0000.0001)  MDS_READ_FIELD: opening global file: shiEmPR_cs32.bin
(PID.TID 0000.0001)  MDS_READ_FIELD: opening global file: lev_surfT_cs_12m.bin
(PID.TID 0000.0001)  MDS_READ_FIELD: opening global file: lev_surfT_cs_12m.bin
(PID.TID 0000.0001)  MDS_READ_FIELD: opening global file: lev_surfS_cs_12m.bin
(PID.TID 0000.0001)  MDS_READ_FIELD: opening global file: lev_surfS_cs_12m.bin
 cg2d: Sum(rhs),rhsMax =  -9.80548975348938E-12  4.22560898290079E+00
 cg2d: Sum(rhs),rhsMax =  -9.52127265918534E-12  4.22414669521704E+00
 cg2d: Sum(rhs),rhsMax =  -9.66338120633736E-12  4.22297627693536E+00
 cg2d: Sum(rhs),rhsMax =  -9.91917659121100E-12  4.22179769681397E+00
 cg2d: Sum(rhs),rhsMax =  -9.52127265918534E-12  4.22066224986860E+00
(PID.TID 0000.0001) Did not write pickup because writePickupAtEnd = FALSE
(PID.TID 0000.0001)  MDS_READ_FIELD: opening global file: lev_T_cs_15k.bin
 --> objf_test(bi,bj)   =  0.213716159506387E+05
 --> objf_tracer(bi,bj) =  0.000000000000000E+00
 --> objf_atl(bi,bj)    =  0.000000000000000E+00
 --> objf_test(bi,bj)   =  0.114870711248948E+05
 --> objf_tracer(bi,bj) =  0.000000000000000E+00
 --> objf_atl(bi,bj)    =  0.000000000000000E+00
 --> objf_test(bi,bj)   =  0.181705170179656E+05
 --> objf_tracer(bi,bj) =  0.000000000000000E+00
 --> objf_atl(bi,bj)    =  0.000000000000000E+00
 --> objf_test(bi,bj)   =  0.231600599827007E+05
 --> objf_tracer(bi,bj) =  0.000000000000000E+00
 --> objf_atl(bi,bj)    =  0.000000000000000E+00
 --> objf_test(bi,bj)   =  0.145354701193856E+05
 --> objf_tracer(bi,bj) =  0.000000000000000E+00
 --> objf_atl(bi,bj)    =  0.000000000000000E+00
 --> objf_test(bi,bj)   =  0.124704998654012E+05
 --> objf_tracer(bi,bj) =  0.000000000000000E+00
 --> objf_atl(bi,bj)    =  0.000000000000000E+00
  local fc =  0.101195234060987E+06
 global fc =  0.101195234060987E+06
(PID.TID 0000.0001)  MDS_READ_FIELD: opening file: xx_theta.0000000000.001.001.data
(PID.TID 0000.0001)  MDS_READ_FIELD: opening file: xx_theta.0000000000.002.001.data
(PID.TID 0000.0001)  MDS_READ_FIELD: opening file: xx_theta.0000000000.003.001.data
(PID.TID 0000.0001)  MDS_READ_FIELD: opening file: xx_theta.0000000000.004.001.data
(PID.TID 0000.0001)  MDS_READ_FIELD: opening file: xx_theta.0000000000.005.001.data
(PID.TID 0000.0001)  MDS_READ_FIELD: opening file: xx_theta.0000000000.006.001.data
grad-res -------------------------------
 grad-res     0    4    4    1    1    1    1    1   0.101195263679E+06 0.101195293340E+06 0.101195234061E+06
 grad-res     0    4    4    4  639    1    1    1   0.296386121919E+01 0.296395066398E+01 -.301784690988E-04
(PID.TID 0000.0001)   ADM  precision_derivative_cost =    1.01195263678726E+05
(PID.TID 0000.0001)   ADM  precision_derivative_grad =    2.96386121918541E+00
 ph-grd  ierr ---------------------------
 ph-grd  ierr =  0, icomp =  4, ichknum =  4
(PID.TID 0000.0001) 
(PID.TID 0000.0001) // =======================================================
(PID.TID 0000.0001) // Gradient check results  >>> START <<<
(PID.TID 0000.0001) // =======================================================
(PID.TID 0000.0001) 
(PID.TID 0000.0001)  EPS =   1.000000E-02
(PID.TID 0000.0001) 
(PID.TID 0000.0001) grdchk output h.p:  Id  Itile Jtile LAYER   X(Id)            X(Id)+/-EPS
(PID.TID 0000.0001) grdchk output h.c:  Id  FC                   FC1                  FC2
(PID.TID 0000.0001) grdchk output h.g:  Id     FC1-FC2/(2*EPS)      ADJ GRAD(FC)         1-FDGRD/ADGRD
(PID.TID 0000.0001) 
(PID.TID 0000.0001) grdchk output (p):   1     1     1     1    0.000000000E+00 -1.000000000E-02
(PID.TID 0000.0001) grdchk output (c):   1  1.0119526367873E+05  1.0119529667611E+05  1.0119523070858E+05
(PID.TID 0000.0001) grdchk output (g):   1     3.2983763718221E+00  3.2981673215163E+00 -6.3383778149406E-05
(PID.TID 0000.0001) 
(PID.TID 0000.0001) grdchk output (p):   2     2     1     1    0.000000000E+00 -1.000000000E-02
(PID.TID 0000.0001) grdchk output (c):   2  1.0119526367873E+05  1.0119530104731E+05  1.0119522634469E+05
(PID.TID 0000.0001) grdchk output (g):   2     3.7351309329097E+00  3.7350646176321E+00 -1.7754787219770E-05
(PID.TID 0000.0001) 
(PID.TID 0000.0001) grdchk output (p):   3     3     1     1    0.000000000E+00 -1.000000000E-02
(PID.TID 0000.0001) grdchk output (c):   3  1.0119526367873E+05  1.0119529766198E+05  1.0119522970871E+05
(PID.TID 0000.0001) grdchk output (g):   3     3.3976636506850E+00  3.3988014111127E+00  3.3475342925327E-04
(PID.TID 0000.0001) 
(PID.TID 0000.0001) grdchk output (p):   4     4     1     1    0.000000000E+00 -1.000000000E-02
(PID.TID 0000.0001) grdchk output (c):   4  1.0119526367873E+05  1.0119529334000E+05  1.0119523406099E+05
(PID.TID 0000.0001) grdchk output (g):   4     2.9639506639796E+00  2.9638612191854E+00 -3.0178469098807E-05
(PID.TID 0000.0001) 
(PID.TID 0000.0001) // =======================================================
(PID.TID 0000.0001) // Gradient check results  >>> END <<<
(PID.TID 0000.0001) // =======================================================
(PID.TID 0000.0001) 
(PID.TID 0000.0001)   Seconds in section "ALL                    [THE_MODEL_MAIN]":
(PID.TID 0000.0001)           User time:  834.7301
(PID.TID 0000.0001)         System time:  64.7411563
(PID.TID 0000.0001)     Wall clock time:  24482.261
(PID.TID 0000.0001)          No. starts: 1
(PID.TID 0000.0001)           No. stops: 1
(PID.TID 0000.0001)   Seconds in section "INITIALISE_FIXED       [THE_MODEL_MAIN]":
(PID.TID 0000.0001)           User time:  0.975852002
(PID.TID 0000.0001)         System time:  0.188970993
(PID.TID 0000.0001)     Wall clock time:  1.35951686
(PID.TID 0000.0001)          No. starts: 1
(PID.TID 0000.0001)           No. stops: 1
(PID.TID 0000.0001)   Seconds in section "ADTHE_MAIN_LOOP          [ADJOINT RUN]":
(PID.TID 0000.0001)           User time:  406.190253
(PID.TID 0000.0001)         System time:  61.9575808
(PID.TID 0000.0001)     Wall clock time:  23764.9482
(PID.TID 0000.0001)          No. starts: 1
(PID.TID 0000.0001)           No. stops: 1
(PID.TID 0000.0001)   Seconds in section "LOAD_FIELDS_DRIVER  [FORWARD_STEP]":
(PID.TID 0000.0001)           User time:  1.37879014
(PID.TID 0000.0001)         System time:  0.143000126
(PID.TID 0000.0001)     Wall clock time:  2.36778975
(PID.TID 0000.0001)          No. starts: 200
(PID.TID 0000.0001)           No. stops: 200
(PID.TID 0000.0001)   Seconds in section "EXTERNAL_FLDS_LOAD [LOAD_FLDS_DRIVER]":
(PID.TID 0000.0001)           User time:  1.4969008
(PID.TID 0000.0001)         System time:  0.189995289
(PID.TID 0000.0001)     Wall clock time:  22.8657911
(PID.TID 0000.0001)          No. starts: 220
(PID.TID 0000.0001)           No. stops: 220
(PID.TID 0000.0001)   Seconds in section "I/O (WRITE)        [ADJOINT LOOP]":
(PID.TID 0000.0001)           User time:  6.63705444
(PID.TID 0000.0001)         System time:  1.21481609
(PID.TID 0000.0001)     Wall clock time:  288.23059
(PID.TID 0000.0001)          No. starts: 300
(PID.TID 0000.0001)           No. stops: 300
(PID.TID 0000.0001)   Seconds in section "DO_ATMOSPHERIC_PHYS [FORWARD_STEP]":
(PID.TID 0000.0001)           User time:  0.0119562149
(PID.TID 0000.0001)         System time:  0.000999450684
(PID.TID 0000.0001)     Wall clock time:  0.00816202164
(PID.TID 0000.0001)          No. starts: 200
(PID.TID 0000.0001)           No. stops: 200
(PID.TID 0000.0001)   Seconds in section "DO_OCEANIC_PHYS     [FORWARD_STEP]":
(PID.TID 0000.0001)           User time:  101.537689
(PID.TID 0000.0001)         System time:  0.362987995
(PID.TID 0000.0001)     Wall clock time:  141.420445
(PID.TID 0000.0001)          No. starts: 200
(PID.TID 0000.0001)           No. stops: 200
(PID.TID 0000.0001)   Seconds in section "DYNAMICS            [FORWARD_STEP]":
(PID.TID 0000.0001)           User time:  122.971039
(PID.TID 0000.0001)         System time:  0.424919844
(PID.TID 0000.0001)     Wall clock time:  166.262777
(PID.TID 0000.0001)          No. starts: 200
(PID.TID 0000.0001)           No. stops: 200
(PID.TID 0000.0001)   Seconds in section "UPDATE_R_STAR       [FORWARD_STEP]":
(PID.TID 0000.0001)           User time:  9.01649761
(PID.TID 0000.0001)         System time:  0.0269967318
(PID.TID 0000.0001)     Wall clock time:  12.1003473
(PID.TID 0000.0001)          No. starts: 200
(PID.TID 0000.0001)           No. stops: 200
(PID.TID 0000.0001)   Seconds in section "SOLVE_FOR_PRESSURE  [FORWARD_STEP]":
(PID.TID 0000.0001)           User time:  39.0618963
(PID.TID 0000.0001)         System time:  0.145972431
(PID.TID 0000.0001)     Wall clock time:  50.8650184
(PID.TID 0000.0001)          No. starts: 200
(PID.TID 0000.0001)           No. stops: 200
(PID.TID 0000.0001)   Seconds in section "MOM_CORRECTION_STEP [FORWARD_STEP]":
(PID.TID 0000.0001)           User time:  10.610651
(PID.TID 0000.0001)         System time:  0.0490006804
(PID.TID 0000.0001)     Wall clock time:  13.4295743
(PID.TID 0000.0001)          No. starts: 200
(PID.TID 0000.0001)           No. stops: 200
(PID.TID 0000.0001)   Seconds in section "UPDATE_ETAH         [FORWARD_STEP]":
(PID.TID 0000.0001)           User time:  0.0828943253
(PID.TID 0000.0001)         System time:  0.000999927521
(PID.TID 0000.0001)     Wall clock time:  0.210001707
(PID.TID 0000.0001)          No. starts: 200
(PID.TID 0000.0001)           No. stops: 200
(PID.TID 0000.0001)   Seconds in section "CALC_R_STAR         [FORWARD_STEP]":
(PID.TID 0000.0001)           User time:  1.45970154
(PID.TID 0000.0001)         System time:  0.00799614191
(PID.TID 0000.0001)     Wall clock time:  2.21095514
(PID.TID 0000.0001)          No. starts: 200
(PID.TID 0000.0001)           No. stops: 200
(PID.TID 0000.0001)   Seconds in section "BLOCKING_EXCHANGES  [FORWARD_STEP]":
(PID.TID 0000.0001)           User time:  12.53127
(PID.TID 0000.0001)         System time:  0.0529835224
(PID.TID 0000.0001)     Wall clock time:  15.9964809
(PID.TID 0000.0001)          No. starts: 400
(PID.TID 0000.0001)           No. stops: 400
(PID.TID 0000.0001)   Seconds in section "THERMODYNAMICS      [FORWARD_STEP]":
(PID.TID 0000.0001)           User time:  185.109396
(PID.TID 0000.0001)         System time:  0.675878704
(PID.TID 0000.0001)     Wall clock time:  246.866505
(PID.TID 0000.0001)          No. starts: 200
(PID.TID 0000.0001)           No. stops: 200
(PID.TID 0000.0001)   Seconds in section "TRC_CORRECTION_STEP [FORWARD_STEP]":
(PID.TID 0000.0001)           User time:  1.86627769
(PID.TID 0000.0001)         System time:  0.00899887085
(PID.TID 0000.0001)     Wall clock time:  2.0998559
(PID.TID 0000.0001)          No. starts: 200
(PID.TID 0000.0001)           No. stops: 200
(PID.TID 0000.0001)   Seconds in section "MONITOR             [FORWARD_STEP]":
(PID.TID 0000.0001)           User time:  4.52636957
(PID.TID 0000.0001)         System time:  0.00799793005
(PID.TID 0000.0001)     Wall clock time:  4.71548748
(PID.TID 0000.0001)          No. starts: 200
(PID.TID 0000.0001)           No. stops: 200
(PID.TID 0000.0001)   Seconds in section "COST_TILE           [FORWARD_STEP]":
(PID.TID 0000.0001)           User time:  10.1525865
(PID.TID 0000.0001)         System time:  0.0279884338
(PID.TID 0000.0001)     Wall clock time:  13.8933699
(PID.TID 0000.0001)          No. starts: 200
(PID.TID 0000.0001)           No. stops: 200
(PID.TID 0000.0001)   Seconds in section "DO_THE_MODEL_IO     [FORWARD_STEP]":
(PID.TID 0000.0001)           User time:  3.18758917
(PID.TID 0000.0001)         System time:  0.458932161
(PID.TID 0000.0001)     Wall clock time:  4.081815
(PID.TID 0000.0001)          No. starts: 200
(PID.TID 0000.0001)           No. stops: 200
(PID.TID 0000.0001)   Seconds in section "DO_WRITE_PICKUP     [FORWARD_STEP]":
(PID.TID 0000.0001)           User time:  0.268016815
(PID.TID 0000.0001)         System time:  0.0469920635
(PID.TID 0000.0001)     Wall clock time:  0.558436871
(PID.TID 0000.0001)          No. starts: 200
(PID.TID 0000.0001)           No. stops: 200
(PID.TID 0000.0001)   Seconds in section "GRDCHK_MAIN         [THE_MODEL_MAIN]":
(PID.TID 0000.0001)           User time:  427.563995
(PID.TID 0000.0001)         System time:  2.59460449
(PID.TID 0000.0001)     Wall clock time:  715.953071
(PID.TID 0000.0001)          No. starts: 1
(PID.TID 0000.0001)           No. stops: 1
(PID.TID 0000.0001)   Seconds in section "INITIALISE_VARIA    [THE_MAIN_LOOP]":
(PID.TID 0000.0001)           User time:  8.57376099
(PID.TID 0000.0001)         System time:  0.545902252
(PID.TID 0000.0001)     Wall clock time:  51.2776115
(PID.TID 0000.0001)          No. starts: 8
(PID.TID 0000.0001)           No. stops: 8
(PID.TID 0000.0001)   Seconds in section "MAIN LOOP           [THE_MAIN_LOOP]":
(PID.TID 0000.0001)           User time:  417.566467
(PID.TID 0000.0001)         System time:  1.90772247
(PID.TID 0000.0001)     Wall clock time:  657.997221
(PID.TID 0000.0001)          No. starts: 8
(PID.TID 0000.0001)           No. stops: 8
(PID.TID 0000.0001)   Seconds in section "FORWARD_STEP        [THE_MAIN_LOOP]":
(PID.TID 0000.0001)           User time:  397.250793
(PID.TID 0000.0001)         System time:  1.57877731
(PID.TID 0000.0001)     Wall clock time:  567.444446
(PID.TID 0000.0001)          No. starts: 160
(PID.TID 0000.0001)           No. stops: 160
(PID.TID 0000.0001)   Seconds in section "COST_FINAL         [ADJOINT SPIN-DOWN]":
(PID.TID 0000.0001)           User time:  0.366973877
(PID.TID 0000.0001)         System time:  0.0649871826
(PID.TID 0000.0001)     Wall clock time:  2.1655879
(PID.TID 0000.0001)          No. starts: 8
(PID.TID 0000.0001)           No. stops: 8
(PID.TID 0000.0001) // ======================================================
(PID.TID 0000.0001) // Tile <-> Tile communication statistics
(PID.TID 0000.0001) // ======================================================
(PID.TID 0000.0001) // o Tile number: 000001
(PID.TID 0000.0001) //         No. X exchanges =              0
(PID.TID 0000.0001) //            Max. X spins =              0
(PID.TID 0000.0001) //            Min. X spins =     1000000000
(PID.TID 0000.0001) //          Total. X spins =              0
(PID.TID 0000.0001) //            Avg. X spins =       0.00E+00
(PID.TID 0000.0001) //         No. Y exchanges =              0
(PID.TID 0000.0001) //            Max. Y spins =              0
(PID.TID 0000.0001) //            Min. Y spins =     1000000000
(PID.TID 0000.0001) //          Total. Y spins =              0
(PID.TID 0000.0001) //            Avg. Y spins =       0.00E+00
(PID.TID 0000.0001) // o Tile number: 000002
(PID.TID 0000.0001) //         No. X exchanges =              0
(PID.TID 0000.0001) //            Max. X spins =              0
(PID.TID 0000.0001) //            Min. X spins =     1000000000
(PID.TID 0000.0001) //          Total. X spins =              0
(PID.TID 0000.0001) //            Avg. X spins =       0.00E+00
(PID.TID 0000.0001) //         No. Y exchanges =              0
(PID.TID 0000.0001) //            Max. Y spins =              0
(PID.TID 0000.0001) //            Min. Y spins =     1000000000
(PID.TID 0000.0001) //          Total. Y spins =              0
(PID.TID 0000.0001) //            Avg. Y spins =       0.00E+00
(PID.TID 0000.0001) // o Tile number: 000003
(PID.TID 0000.0001) //         No. X exchanges =              0
(PID.TID 0000.0001) //            Max. X spins =              0
(PID.TID 0000.0001) //            Min. X spins =     1000000000
(PID.TID 0000.0001) //          Total. X spins =              0
(PID.TID 0000.0001) //            Avg. X spins =       0.00E+00
(PID.TID 0000.0001) //         No. Y exchanges =              0
(PID.TID 0000.0001) //            Max. Y spins =              0
(PID.TID 0000.0001) //            Min. Y spins =     1000000000
(PID.TID 0000.0001) //          Total. Y spins =              0
(PID.TID 0000.0001) //            Avg. Y spins =       0.00E+00
(PID.TID 0000.0001) // o Tile number: 000004
(PID.TID 0000.0001) //         No. X exchanges =              0
(PID.TID 0000.0001) //            Max. X spins =              0
(PID.TID 0000.0001) //            Min. X spins =     1000000000
(PID.TID 0000.0001) //          Total. X spins =              0
(PID.TID 0000.0001) //            Avg. X spins =       0.00E+00
(PID.TID 0000.0001) //         No. Y exchanges =              0
(PID.TID 0000.0001) //            Max. Y spins =              0
(PID.TID 0000.0001) //            Min. Y spins =     1000000000
(PID.TID 0000.0001) //          Total. Y spins =              0
(PID.TID 0000.0001) //            Avg. Y spins =       0.00E+00
(PID.TID 0000.0001) // o Tile number: 000005
(PID.TID 0000.0001) //         No. X exchanges =              0
(PID.TID 0000.0001) //            Max. X spins =              0
(PID.TID 0000.0001) //            Min. X spins =     1000000000
(PID.TID 0000.0001) //          Total. X spins =              0
(PID.TID 0000.0001) //            Avg. X spins =       0.00E+00
(PID.TID 0000.0001) //         No. Y exchanges =              0
(PID.TID 0000.0001) //            Max. Y spins =              0
(PID.TID 0000.0001) //            Min. Y spins =     1000000000
(PID.TID 0000.0001) //          Total. Y spins =              0
(PID.TID 0000.0001) //            Avg. Y spins =       0.00E+00
(PID.TID 0000.0001) // o Tile number: 000006
(PID.TID 0000.0001) //         No. X exchanges =              0
(PID.TID 0000.0001) //            Max. X spins =              0
(PID.TID 0000.0001) //            Min. X spins =     1000000000
(PID.TID 0000.0001) //          Total. X spins =              0
(PID.TID 0000.0001) //            Avg. X spins =       0.00E+00
(PID.TID 0000.0001) //         No. Y exchanges =              0
(PID.TID 0000.0001) //            Max. Y spins =              0
(PID.TID 0000.0001) //            Min. Y spins =     1000000000
(PID.TID 0000.0001) //          Total. Y spins =              0
(PID.TID 0000.0001) //            Avg. Y spins =       0.00E+00
(PID.TID 0000.0001) // o Thread number: 000001
(PID.TID 0000.0001) //            No. barriers =         182292
(PID.TID 0000.0001) //      Max. barrier spins =              1
(PID.TID 0000.0001) //      Min. barrier spins =              1
(PID.TID 0000.0001) //     Total barrier spins =         182292
(PID.TID 0000.0001) //      Avg. barrier spins =       1.00E+00
