(PID.TID 0000.0001) 
(PID.TID 0000.0001) // ======================================================
(PID.TID 0000.0001) //                      MITgcm UV
(PID.TID 0000.0001) //                      =========
(PID.TID 0000.0001) // ======================================================
(PID.TID 0000.0001) // execution environment starting up...
(PID.TID 0000.0001) 
(PID.TID 0000.0001) // MITgcmUV version:  checkpoint69e
(PID.TID 0000.0001) // Build user:        jm_c
(PID.TID 0000.0001) // Build host:        villon
(PID.TID 0000.0001) // Build date:        Fri Jul  4 10:42:06 EDT 2025
(PID.TID 0000.0001) 
(PID.TID 0000.0001) // =======================================================
(PID.TID 0000.0001) // Execution Environment parameter file "eedata"
(PID.TID 0000.0001) // =======================================================
(PID.TID 0000.0001) ># Example "eedata" file
(PID.TID 0000.0001) ># Lines beginning "#" are comments
(PID.TID 0000.0001) >#  nTx      :: No. threads per process in X
(PID.TID 0000.0001) >#  nTy      :: No. threads per process in Y
(PID.TID 0000.0001) ># debugMode :: print debug msg (sequence of S/R calls)
(PID.TID 0000.0001) > &EEPARMS
(PID.TID 0000.0001) > useCubedSphereExchange=.TRUE.,
(PID.TID 0000.0001) > nTx=1,
(PID.TID 0000.0001) > nTy=1,
(PID.TID 0000.0001) > /
(PID.TID 0000.0001) ># Note: Some systems use & as the namelist terminator (as shown here).
(PID.TID 0000.0001) >#       Other systems use a / character.
(PID.TID 0000.0001) 
(PID.TID 0000.0001) // =======================================================
(PID.TID 0000.0001) // Computational Grid Specification ( see files "SIZE.h" )
(PID.TID 0000.0001) //                                  ( and "eedata"       )
(PID.TID 0000.0001) // =======================================================
(PID.TID 0000.0001)      nPx =    1 ; /* No. processes in X */
(PID.TID 0000.0001)      nPy =    1 ; /* No. processes in Y */
(PID.TID 0000.0001)      nSx =   12 ; /* No. tiles in X per process */
(PID.TID 0000.0001)      nSy =    1 ; /* No. tiles in Y per process */
(PID.TID 0000.0001)      sNx =   32 ; /* Tile size in X */
(PID.TID 0000.0001)      sNy =   16 ; /* Tile size in Y */
(PID.TID 0000.0001)      OLx =    4 ; /* Tile overlap distance in X */
(PID.TID 0000.0001)      OLy =    4 ; /* Tile overlap distance in Y */
(PID.TID 0000.0001)      nTx =    1 ; /* No. threads in X per process */
(PID.TID 0000.0001)      nTy =    1 ; /* No. threads in Y per process */
(PID.TID 0000.0001)       Nr =   15 ; /* No. levels in the vertical   */
(PID.TID 0000.0001)       Nx =  384 ; /* Total domain size in X ( = nPx*nSx*sNx ) */
(PID.TID 0000.0001)       Ny =   16 ; /* Total domain size in Y ( = nPy*nSy*sNy ) */
(PID.TID 0000.0001)   nTiles =   12 ; /* Total no. tiles per process ( = nSx*nSy ) */
(PID.TID 0000.0001)   nProcs =    1 ; /* Total no. processes ( = nPx*nPy ) */
(PID.TID 0000.0001) nThreads =    1 ; /* Total no. threads per process ( = nTx*nTy ) */
(PID.TID 0000.0001) usingMPI =    F ; /* Flag used to control whether MPI is in use */
(PID.TID 0000.0001)                   /*  note: To execute a program with MPI calls */
(PID.TID 0000.0001)                   /*  it must be launched appropriately e.g     */
(PID.TID 0000.0001)                   /*  "mpirun -np 64 ......"                    */
(PID.TID 0000.0001) useCoupler=   F ; /* Flag used to control communications with   */
(PID.TID 0000.0001)                   /*  other model components, through a coupler */
(PID.TID 0000.0001) useNest2W_parent =    F ;/* Control 2-W Nesting comm */
(PID.TID 0000.0001) useNest2W_child  =    F ;/* Control 2-W Nesting comm */
(PID.TID 0000.0001) debugMode =    F ; /* print debug msg. (sequence of S/R calls)  */
(PID.TID 0000.0001) printMapIncludesZeros=    F ; /* print zeros in Std.Output maps */
(PID.TID 0000.0001) maxLengthPrt1D=   65 /* maxLength of 1D array printed to StdOut */
(PID.TID 0000.0001) 
(PID.TID 0000.0001) // ======================================================
(PID.TID 0000.0001) // Mapping of tiles to threads
(PID.TID 0000.0001) // ======================================================
(PID.TID 0000.0001) // -o- Thread   1, tiles (   1:  12,   1:   1)
(PID.TID 0000.0001) 
(PID.TID 0000.0001) W2_READPARMS: file data.exch2 not found
(PID.TID 0000.0001) => use W2_EXCH2 default: regular 6-facets Cube
(PID.TID 0000.0001) W2_useE2ioLayOut=    T ;/* T: use Exch2 glob IO map; F: use model default */
(PID.TID 0000.0001) W2_mapIO        =  -1 ; /* select option for Exch2 global-IO map */
(PID.TID 0000.0001) W2_printMsg     =  -1 ; /* select option for printing information */
(PID.TID 0000.0001) ===== Start setting W2 TOPOLOGY:
(PID.TID 0000.0001)  write to log-file: w2_tile_topology.0000.log
(PID.TID 0000.0001) =====       setting W2 TOPOLOGY: Done
(PID.TID 0000.0001) 
(PID.TID 0000.0001)  INI_PARMS: opening model parameter file "data"
(PID.TID 0000.0001)  OPEN_COPY_DATA_FILE: opening file data
(PID.TID 0000.0001) // =======================================================
(PID.TID 0000.0001) // Parameter file "data"
(PID.TID 0000.0001) // =======================================================
(PID.TID 0000.0001) ># ====================
(PID.TID 0000.0001) ># | Model parameters |
(PID.TID 0000.0001) ># ====================
(PID.TID 0000.0001) >#
(PID.TID 0000.0001) ># Continuous equation parameters
(PID.TID 0000.0001) > &PARM01
(PID.TID 0000.0001) > tRef=15*20.,
(PID.TID 0000.0001) > sRef=15*35.,
(PID.TID 0000.0001) > viscAh = 3.E5,
(PID.TID 0000.0001) ># background dissipation will be taken care of by IDEMIX
(PID.TID 0000.0001) ># so we turn it off here
(PID.TID 0000.0001) >#viscAr = 1.030905162225000e+05,
(PID.TID 0000.0001) >#viscAr = 1.E-3,
(PID.TID 0000.0001) >#diffKrT= 3.092715486675000e+03,
(PID.TID 0000.0001) >#diffKrT= 3.E-5,
(PID.TID 0000.0001) >#diffKrS= 3.092715486675000e+03,
(PID.TID 0000.0001) >#diffKrS= 3.E-5,
(PID.TID 0000.0001) ># should use this with ggl90 for avoiding local instabilities
(PID.TID 0000.0001) > ivdc_kappa= 1.030905162225000e+08,
(PID.TID 0000.0001) >#ivdc_kappa= 1.,
(PID.TID 0000.0001) > implicitDiffusion=.TRUE.,
(PID.TID 0000.0001) > implicitViscosity=.TRUE.,
(PID.TID 0000.0001) > gravity=9.81,
(PID.TID 0000.0001) > rhoConst=1035.,
(PID.TID 0000.0001) > rhoConstFresh=1000.,
(PID.TID 0000.0001) > buoyancyRelation='OCEANICP',
(PID.TID 0000.0001) > integr_GeoPot=1,
(PID.TID 0000.0001) > eosType='TEOS10',
(PID.TID 0000.0001) > staggerTimeStep=.TRUE.,
(PID.TID 0000.0001) > vectorInvariantMomentum=.TRUE.,
(PID.TID 0000.0001) > implicitFreeSurface=.TRUE.,
(PID.TID 0000.0001) > exactConserv=.TRUE.,
(PID.TID 0000.0001) > select_rStar=2,
(PID.TID 0000.0001) > nonlinFreeSurf=4,
(PID.TID 0000.0001) > hFacInf=0.2,
(PID.TID 0000.0001) > hFacSup=2.0,
(PID.TID 0000.0001) > useRealFreshWaterFlux=.TRUE.,
(PID.TID 0000.0001) > hFacMin=.1,
(PID.TID 0000.0001) ># 20 m
(PID.TID 0000.0001) > hFacMinDr=203067.0,
(PID.TID 0000.0001) >#- to check that it has no impact:
(PID.TID 0000.0001) > doResetHFactors=.TRUE.,
(PID.TID 0000.0001) >#tempAdvScheme=77,
(PID.TID 0000.0001) >#saltAdvScheme=77,
(PID.TID 0000.0001) > readBinaryPrec=64,
(PID.TID 0000.0001) > writeBinaryPrec=64,
(PID.TID 0000.0001) > useSingleCpuIO=.TRUE.,
(PID.TID 0000.0001) > debugLevel = 2,
(PID.TID 0000.0001) > plotLevel=0,
(PID.TID 0000.0001) > /
(PID.TID 0000.0001) >
(PID.TID 0000.0001) ># Elliptic solver parameters
(PID.TID 0000.0001) > &PARM02
(PID.TID 0000.0001) > cg2dMaxIters=200,
(PID.TID 0000.0001) > cg2dTargetResidual=1.E-9,
(PID.TID 0000.0001) >#cg2dTargetResWunit=1.E-14,
(PID.TID 0000.0001) > /
(PID.TID 0000.0001) >
(PID.TID 0000.0001) ># Time stepping parameters
(PID.TID 0000.0001) > &PARM03
(PID.TID 0000.0001) >#nIter0=72000,
(PID.TID 0000.0001) > nIter0=0,
(PID.TID 0000.0001) > nTimeSteps=10,
(PID.TID 0000.0001) >#endTime=31104000.,
(PID.TID 0000.0001) > deltaTMom   =1200.,
(PID.TID 0000.0001) > deltaTtracer=86400.,
(PID.TID 0000.0001) > deltaTFreeSurf=86400.,
(PID.TID 0000.0001) > deltaTClock =86400.,
(PID.TID 0000.0001) > abEps = 0.1,
(PID.TID 0000.0001) > forcing_In_AB=.FALSE.,
(PID.TID 0000.0001) >#pickupStrictlyMatch=.FALSE.,
(PID.TID 0000.0001) > pChkptFreq   =3110400000.,
(PID.TID 0000.0001) > chkptFreq    = 155520000.,
(PID.TID 0000.0001) >#tave_lastIter=0.,
(PID.TID 0000.0001) >#taveFreq     = 2592000.,
(PID.TID 0000.0001) >#dumpFreq     =  864000.,
(PID.TID 0000.0001) > monitorFreq  = 15552000.,
(PID.TID 0000.0001) > periodicExternalForcing=.TRUE.,
(PID.TID 0000.0001) > externForcingPeriod=2592000.,
(PID.TID 0000.0001) > externForcingCycle=31104000.,
(PID.TID 0000.0001) ># 6 months restoring timescale for temperature
(PID.TID 0000.0001) >#tauThetaClimRelax = 15552000.,
(PID.TID 0000.0001) ># 2 months restoring timescale for tsalinity
(PID.TID 0000.0001) >#tauSaltClimRelax = 5184000.,
(PID.TID 0000.0001) >#latBandClimRelax=60.,
(PID.TID 0000.0001) > monitorFreq =1.,
(PID.TID 0000.0001) > /
(PID.TID 0000.0001) >
(PID.TID 0000.0001) ># Gridding parameters
(PID.TID 0000.0001) > &PARM04
(PID.TID 0000.0001) > usingCurvilinearGrid=.TRUE.,
(PID.TID 0000.0001) > horizGridFile='grid_cs32',
(PID.TID 0000.0001) ># radius_fromHorizGrid=64676839500.,
(PID.TID 0000.0001) > radius_fromHorizGrid=6370.E3,
(PID.TID 0000.0001) > delR = 7105181.631178, 6571679.735642, 6042512.265968,
(PID.TID 0000.0001) >        5517067.241693, 4995190.435925, 4476390.802366,
(PID.TID 0000.0001) >        3960087.645808, 3446365.011284, 2934956.237702,
(PID.TID 0000.0001) >        2425564.880893, 1917984.297155, 1411815.607161,
(PID.TID 0000.0001) >        1007433.323163,  704400.618506,  502655.686646,
(PID.TID 0000.0001) > /
(PID.TID 0000.0001) >
(PID.TID 0000.0001) ># Input datasets
(PID.TID 0000.0001) > &PARM05
(PID.TID 0000.0001) > bathyFile      ='bathy_in_P.bin',
(PID.TID 0000.0001) > geoPotAnomFile ='geopotanom.bin',
(PID.TID 0000.0001) > hydrogThetaFile='lev_T_cs_flip15.bin',
(PID.TID 0000.0001) > hydrogSaltFile ='lev_S_cs_flip15.bin',
(PID.TID 0000.0001) > /
(PID.TID 0000.0001) 
(PID.TID 0000.0001)  INI_PARMS ; starts to read PARM01
(PID.TID 0000.0001)  INI_PARMS ; read PARM01 : OK
(PID.TID 0000.0001)  INI_PARMS ; starts to read PARM02
(PID.TID 0000.0001)  INI_PARMS ; read PARM02 : OK
(PID.TID 0000.0001)  INI_PARMS ; starts to read PARM03
(PID.TID 0000.0001)  INI_PARMS ; read PARM03 : OK
(PID.TID 0000.0001)  INI_PARMS ; starts to read PARM04
(PID.TID 0000.0001)  INI_PARMS ; read PARM04 : OK
(PID.TID 0000.0001)  INI_PARMS ; starts to read PARM05
(PID.TID 0000.0001)  INI_PARMS ; read PARM05 : OK
(PID.TID 0000.0001)  INI_PARMS: finished reading file "data"
(PID.TID 0000.0001)  PACKAGES_BOOT: opening data.pkg
(PID.TID 0000.0001)  OPEN_COPY_DATA_FILE: opening file data.pkg
(PID.TID 0000.0001) // =======================================================
(PID.TID 0000.0001) // Parameter file "data.pkg"
(PID.TID 0000.0001) // =======================================================
(PID.TID 0000.0001) ># Packages
(PID.TID 0000.0001) > &PACKAGES
(PID.TID 0000.0001) >#useGMRedi=.TRUE.,
(PID.TID 0000.0001) > useEXF   =.TRUE.,
(PID.TID 0000.0001) > useCAL   =.TRUE.,
(PID.TID 0000.0001) > useSEAICE=.TRUE.,
(PID.TID 0000.0001) > useGGL90 =.TRUE.,
(PID.TID 0000.0001) > useDiagnostics=.TRUE.,
(PID.TID 0000.0001) >#useMNC = .TRUE.,
(PID.TID 0000.0001) > /
(PID.TID 0000.0001) 
(PID.TID 0000.0001)  PACKAGES_BOOT: finished reading data.pkg
(PID.TID 0000.0001)  PACKAGES_BOOT: On/Off package Summary
 --------  pkgs with a standard "usePKG" On/Off switch in "data.pkg":  --------
 pkg/ggl90                compiled   and   used ( useGGL90                 = T )
 pkg/gmredi               compiled but not used ( useGMRedi                = F )
 pkg/cal                  compiled   and   used ( useCAL                   = T )
 pkg/exf                  compiled   and   used ( useEXF                   = T )
 pkg/bulk_force           compiled but not used ( useBulkForce             = F )
 pkg/seaice               compiled   and   used ( useSEAICE                = T )
 pkg/thsice               compiled but not used ( useThSIce                = F )
 pkg/diagnostics          compiled   and   used ( useDiagnostics           = T )
 pkg/mnc                  compiled but not used ( useMNC                   = F )
 -------- pkgs without standard "usePKG" On/Off switch in "data.pkg":  --------
 pkg/generic_advdiff      compiled   and   used ( useGAD                   = T )
 pkg/mom_common           compiled   and   used ( momStepping              = T )
 pkg/mom_vecinv           compiled   and   used ( +vectorInvariantMomentum = T )
 pkg/mom_fluxform         compiled but not used ( & not vectorInvariantMom = F )
 pkg/monitor              compiled   and   used ( monitorFreq > 0.         = T )
 pkg/timeave              compiled but not used ( taveFreq > 0.            = F )
 pkg/debug                compiled but not used ( debugMode                = F )
 pkg/exch2                compiled   and   used
 pkg/rw                   compiled   and   used
 pkg/mdsio                compiled   and   used
(PID.TID 0000.0001)  PACKAGES_BOOT: End of package Summary
(PID.TID 0000.0001) 
(PID.TID 0000.0001) CAL_READPARMS: opening data.cal
(PID.TID 0000.0001)  OPEN_COPY_DATA_FILE: opening file data.cal
(PID.TID 0000.0001) // =======================================================
(PID.TID 0000.0001) // Parameter file "data.cal"
(PID.TID 0000.0001) // =======================================================
(PID.TID 0000.0001) >#
(PID.TID 0000.0001) ># *******************
(PID.TID 0000.0001) ># Calendar Parameters
(PID.TID 0000.0001) ># *******************
(PID.TID 0000.0001) > &CAL_NML
(PID.TID 0000.0001) > TheCalendar='model',
(PID.TID 0000.0001) > startDate_1=00010101,
(PID.TID 0000.0001) > startDate_2=000000,
(PID.TID 0000.0001) > /
(PID.TID 0000.0001) 
(PID.TID 0000.0001) CAL_READPARMS: finished reading data.cal
(PID.TID 0000.0001) EXF_READPARMS: opening data.exf
(PID.TID 0000.0001)  OPEN_COPY_DATA_FILE: opening file data.exf
(PID.TID 0000.0001) // =======================================================
(PID.TID 0000.0001) // Parameter file "data.exf"
(PID.TID 0000.0001) // =======================================================
(PID.TID 0000.0001) ># *********************
(PID.TID 0000.0001) ># External Forcing Data
(PID.TID 0000.0001) ># *********************
(PID.TID 0000.0001) > &EXF_NML_01
(PID.TID 0000.0001) >#exf_debugLev      = 3,
(PID.TID 0000.0001) >#useExfCheckRange  = .TRUE.,
(PID.TID 0000.0001) >#useStabilityFct_overIce=.TRUE.,
(PID.TID 0000.0001) >#snow_emissivity   = 0.98,
(PID.TID 0000.0001) >#ice_emissivity    = 0.98,
(PID.TID 0000.0001) > ocean_emissivity  = 1.,
(PID.TID 0000.0001) > atmrho            = 1.22,
(PID.TID 0000.0001) > humid_fac         = .608,
(PID.TID 0000.0001) > ht                = 10.,
(PID.TID 0000.0001) > exf_albedo        = 0.066,
(PID.TID 0000.0001) >#readStressOnAgrid = .TRUE.,
(PID.TID 0000.0001) > readStressOnCgrid = .TRUE.,
(PID.TID 0000.0001) > exf_monFreq       = 0.,
(PID.TID 0000.0001) > repeatPeriod      = 31104000.,
(PID.TID 0000.0001) > exf_iprec         = 64,
(PID.TID 0000.0001) > /
(PID.TID 0000.0001) >
(PID.TID 0000.0001) ># *********************
(PID.TID 0000.0001) > &EXF_NML_02
(PID.TID 0000.0001) >#
(PID.TID 0000.0001) > atempstartdate1   = 00010116,
(PID.TID 0000.0001) >#atempstartdate2   = 180000,
(PID.TID 0000.0001) > atempperiod       = 2592000.0,
(PID.TID 0000.0001) >#
(PID.TID 0000.0001) > aqhstartdate1     = 00010116,
(PID.TID 0000.0001) >#aqhstartdate2     = 180000,
(PID.TID 0000.0001) > aqhperiod         = 2592000.0,
(PID.TID 0000.0001) >#
(PID.TID 0000.0001) > precipstartdate1  = 00010116,
(PID.TID 0000.0001) >#precipstartdate2  = 180000,
(PID.TID 0000.0001) > precipperiod      = 2592000.0,
(PID.TID 0000.0001) >#
(PID.TID 0000.0001) > snowprecipstartdate1= 00010116,
(PID.TID 0000.0001) >#snowprecipstartdate2= 180000,
(PID.TID 0000.0001) > snowprecipperiod    = 2592000.,
(PID.TID 0000.0001) >#
(PID.TID 0000.0001) > runoffstartdate1  = 00010116,
(PID.TID 0000.0001) >#runoffstartdate2  = 180000,
(PID.TID 0000.0001) > runoffperiod      = 2592000.0,
(PID.TID 0000.0001) >#
(PID.TID 0000.0001) > uwindstartdate1   = 00010116,
(PID.TID 0000.0001) >#uwindstartdate2   = 180000,
(PID.TID 0000.0001) > uwindperiod       = 2592000.0,
(PID.TID 0000.0001) >#
(PID.TID 0000.0001) > vwindstartdate1   = 00010116,
(PID.TID 0000.0001) >#vwindstartdate2   = 180000,
(PID.TID 0000.0001) > vwindperiod       = 2592000.0,
(PID.TID 0000.0001) >#
(PID.TID 0000.0001) > ustressstartdate1 = 00010116,
(PID.TID 0000.0001) >#ustressstartdate2 = 180000,
(PID.TID 0000.0001) > ustressperiod     = 2592000.0,
(PID.TID 0000.0001) >#
(PID.TID 0000.0001) > vstressstartdate1 = 00010116,
(PID.TID 0000.0001) >#vstressstartdate2 = 180000,
(PID.TID 0000.0001) > vstressperiod     = 2592000.0,
(PID.TID 0000.0001) >#
(PID.TID 0000.0001) > wspeedstartdate1  = 00010116,
(PID.TID 0000.0001) >#wspeedstartdate2  = 180000,
(PID.TID 0000.0001) > wspeedperiod      = 2592000.0,
(PID.TID 0000.0001) >#
(PID.TID 0000.0001) > swdownstartdate1  = 00010116,
(PID.TID 0000.0001) >#swdownstartdate2  = 180000,
(PID.TID 0000.0001) > swdownperiod      = 2592000.0,
(PID.TID 0000.0001) >#
(PID.TID 0000.0001) > lwdownstartdate1  = 00010116,
(PID.TID 0000.0001) >#lwdownstartdate2  = 180000,
(PID.TID 0000.0001) > lwdownperiod      = 2592000.0,
(PID.TID 0000.0001) >#
(PID.TID 0000.0001) > climsssstartdate1  = 00010116,
(PID.TID 0000.0001) >#climsssstartdate2  = 180000,
(PID.TID 0000.0001) > climsssperiod      = 2592000.0,
(PID.TID 0000.0001) >#
(PID.TID 0000.0001) > climsststartdate1  = 00010116,
(PID.TID 0000.0001) >#climsststartdate2  = 180000,
(PID.TID 0000.0001) > climsstperiod      = 2592000.0,
(PID.TID 0000.0001) >#
(PID.TID 0000.0001) > atempfile         = 'core_t_Air_cs32.bin',
(PID.TID 0000.0001) > aqhfile           = 'core_q_air_cs32.bin',
(PID.TID 0000.0001) > ustressfile       = 'trenberth_taux.bin',
(PID.TID 0000.0001) > vstressfile       = 'trenberth_tauy.bin',
(PID.TID 0000.0001) >#uwindfile         = 'core_u_wind_cs32.bin',
(PID.TID 0000.0001) >#vwindfile         = 'core_v_wind_cs32.bin',
(PID.TID 0000.0001) > wspeedfile        = 'core_wndSpd_cs32.bin',
(PID.TID 0000.0001) > precipfile        = 'core_prec_1_cs32.bin',
(PID.TID 0000.0001) >#snowprecipfile    = 'core_snwP_1_cs32.bin',
(PID.TID 0000.0001) > lwdownfile        = 'core_dwnLw_cs32.bin',
(PID.TID 0000.0001) > swdownfile        = 'core_dwnSw_cs32.bin',
(PID.TID 0000.0001) > runoffFile        = 'core_rnof_1_cs32.bin'
(PID.TID 0000.0001) > runoftempFile     = 'runoff_temperature.bin'
(PID.TID 0000.0001) > climsstfile       = 'lev_surfT_cs_12m.bin',
(PID.TID 0000.0001) > climsssfile       = 'lev_surfS_cs_12m.bin',
(PID.TID 0000.0001) >#
(PID.TID 0000.0001) > /
(PID.TID 0000.0001) >
(PID.TID 0000.0001) ># *********************
(PID.TID 0000.0001) > &EXF_NML_03
(PID.TID 0000.0001) > /
(PID.TID 0000.0001) >
(PID.TID 0000.0001) ># *********************
(PID.TID 0000.0001) > &EXF_NML_04
(PID.TID 0000.0001) > /
(PID.TID 0000.0001) 
(PID.TID 0000.0001) EXF_READPARMS: reading EXF_NML_01
(PID.TID 0000.0001) EXF_READPARMS: reading EXF_NML_02
(PID.TID 0000.0001) EXF_READPARMS: reading EXF_NML_03
(PID.TID 0000.0001) EXF_READPARMS: finished reading data.exf
(PID.TID 0000.0001)  GGL90_READPARMS: opening data.ggl90
(PID.TID 0000.0001)  OPEN_COPY_DATA_FILE: opening file data.ggl90
(PID.TID 0000.0001) // =======================================================
(PID.TID 0000.0001) // Parameter file "data.ggl90"
(PID.TID 0000.0001) // =======================================================
(PID.TID 0000.0001) ># =====================================================================
(PID.TID 0000.0001) ># | Parameters for Gaspar et al. (1990)'s TKE vertical mixing scheme  |
(PID.TID 0000.0001) ># =====================================================================
(PID.TID 0000.0001) > &GGL90_PARM01
(PID.TID 0000.0001) > GGL90diffTKEh=0.E3,
(PID.TID 0000.0001) > GGL90ck = 0.1,
(PID.TID 0000.0001) > GGL90ceps = 0.7,
(PID.TID 0000.0001) > GGL90alpha=30.,
(PID.TID 0000.0001) > GGL90m2 = 3.0,
(PID.TID 0000.0001) > GGL90TKEmin = 0.E-6,
(PID.TID 0000.0001) > GGL90TKEbottom=4.E-6,
(PID.TID 0000.0001) > GGL90TKEsurfMin=1.E-4,
(PID.TID 0000.0001) > mxlMaxFlag=2,
(PID.TID 0000.0001) > GGL90viscMax=1.E2,
(PID.TID 0000.0001) > GGL90diffMax=1.E2,
(PID.TID 0000.0001) > calcMeanVertShear=.TRUE.,
(PID.TID 0000.0001) > GGL90_dirichlet=.FALSE.,
(PID.TID 0000.0001) > useIDEMIX  = .TRUE.,
(PID.TID 0000.0001) >#-- IO related params:
(PID.TID 0000.0001) > GGL90mixingMaps=.FALSE.,
(PID.TID 0000.0001) > GGL90writeState=.FALSE.,
(PID.TID 0000.0001) > /
(PID.TID 0000.0001) >
(PID.TID 0000.0001) > &GGL90_PARM02
(PID.TID 0000.0001) >#- below are old defaults that are not recommended
(PID.TID 0000.0001) ># IDEMIX_tau_v =  86400.0,
(PID.TID 0000.0001) ># IDEMIX_jstar = 10.0,
(PID.TID 0000.0001) ># IDEMIX_mu0   = 1.3333333333333333,
(PID.TID 0000.0001) >#--
(PID.TID 0000.0001) > IDEMIX_include_GM_bottom = .FALSE.,
(PID.TID 0000.0001) > IDEMIX_include_GM        = .FALSE.,
(PID.TID 0000.0001) > IDEMIX_tidal_file = 'idemix_tidal_forcing.192x32.bin',
(PID.TID 0000.0001) > IDEMIX_wind_file  = 'idemix_wind_forcing.192x32.bin',
(PID.TID 0000.0001) > /
(PID.TID 0000.0001) 
(PID.TID 0000.0001)  GGL90_READPARMS ; starts to read GGL90_PARM01
(PID.TID 0000.0001)  GGL90_READPARMS: read GGL90_PARM01 : OK
(PID.TID 0000.0001)  GGL90_READPARMS ; starts to read GGL90_PARM02
(PID.TID 0000.0001)  GGL90_READPARMS: read GGL90_PARM02 : OK
(PID.TID 0000.0001)  GGL90_READPARMS: finished reading data.ggl90
(PID.TID 0000.0001) // =======================================================
(PID.TID 0000.0001) // GGL90 configuration
(PID.TID 0000.0001) // =======================================================
(PID.TID 0000.0001) GGL90dumpFreq =   /* GGL90 state write out interval ( s ). */
(PID.TID 0000.0001)                 0.000000000000000E+00
(PID.TID 0000.0001)     ;
(PID.TID 0000.0001) GGL90taveFreq =   /* GGL90 averaging interval ( s ). */
(PID.TID 0000.0001)                 1.234567000000000E+05
(PID.TID 0000.0001)     ;
(PID.TID 0000.0001) GGL90mixingMAPS =   /* GGL90 IO flag */
(PID.TID 0000.0001)                   F
(PID.TID 0000.0001)     ;
(PID.TID 0000.0001) GGL90writeState =   /* GGL90 IO flag */
(PID.TID 0000.0001)                   F
(PID.TID 0000.0001)     ;
(PID.TID 0000.0001) GGL90ck =   /* GGL90 viscosity parameter */
(PID.TID 0000.0001)                 1.000000000000000E-01
(PID.TID 0000.0001)     ;
(PID.TID 0000.0001) GGL90ceps =   /* GGL90 dissipation parameter */
(PID.TID 0000.0001)                 7.000000000000000E-01
(PID.TID 0000.0001)     ;
(PID.TID 0000.0001) GGL90alpha =   /* GGL90 TKE diffusivity parameter */
(PID.TID 0000.0001)                 3.000000000000000E+01
(PID.TID 0000.0001)     ;
(PID.TID 0000.0001) GGL90m2 =   /* GGL90 wind stress to vertical stress ratio */
(PID.TID 0000.0001)                 3.000000000000000E+00
(PID.TID 0000.0001)     ;
(PID.TID 0000.0001) GGL90TKEmin =   /* GGL90 minimum kinetic energy ( m^2/s^2 ) */
(PID.TID 0000.0001)                 0.000000000000000E+00
(PID.TID 0000.0001)     ;
(PID.TID 0000.0001) GGL90TKEsurfMin =   /* GGL90 minimum surface kinetic energy ( m^2/s^2 ) */
(PID.TID 0000.0001)                 1.000000000000000E-04
(PID.TID 0000.0001)     ;
(PID.TID 0000.0001) GGL90TKEbottom =   /* GGL90 bottom kinetic energy ( m^2/s^2 ) */
(PID.TID 0000.0001)                 4.000000000000000E-06
(PID.TID 0000.0001)     ;
(PID.TID 0000.0001) GGL90viscMax =   /* GGL90 upper limit for viscosity (m^2/s ) */
(PID.TID 0000.0001)                 1.000000000000000E+02
(PID.TID 0000.0001)     ;
(PID.TID 0000.0001) GGL90diffMax =   /* GGL90 upper limit for diffusivity (m^2/s ) */
(PID.TID 0000.0001)                 1.000000000000000E+02
(PID.TID 0000.0001)     ;
(PID.TID 0000.0001) GGL90diffTKEh =   /* GGL90 horizontal diffusivity for TKE ( m^2/s ) */
(PID.TID 0000.0001)                 0.000000000000000E+00
(PID.TID 0000.0001)     ;
(PID.TID 0000.0001) GGL90mixingLengthMin =   /* GGL90 minimum mixing length (m) */
(PID.TID 0000.0001)                 1.000000000000000E-08
(PID.TID 0000.0001)     ;
(PID.TID 0000.0001) mxlMaxFlag =   /* Flag for limiting mixing-length method */
(PID.TID 0000.0001)                       2
(PID.TID 0000.0001)     ;
(PID.TID 0000.0001) mxlSurfFlag =   /* GGL90 flag for near surface mixing */
(PID.TID 0000.0001)                   F
(PID.TID 0000.0001)     ;
(PID.TID 0000.0001) calcMeanVertShear = /* calc Mean of Vert.Shear (vs shear of Mean flow) */
(PID.TID 0000.0001)                   T
(PID.TID 0000.0001)     ;
(PID.TID 0000.0001) GGL90: GGL90TKEFile =
(PID.TID 0000.0001) GGL90_dirichlet =   /* GGL90 Boundary condition flag */
(PID.TID 0000.0001)                   F
(PID.TID 0000.0001)     ;
(PID.TID 0000.0001) useIDEMIX =   /* turn on IDEMIX contribution. */
(PID.TID 0000.0001)                   T
(PID.TID 0000.0001)     ;
(PID.TID 0000.0001) IDEMIX_tau_v =   /* IDEMIX vertical group speed parameter. */
(PID.TID 0000.0001)                 1.728000000000000E+05
(PID.TID 0000.0001)     ;
(PID.TID 0000.0001) IDEMIX_tau_h =   /* IDEMIX horizontal group speed parameter. */
(PID.TID 0000.0001)                 8.640000000000000E+05
(PID.TID 0000.0001)     ;
(PID.TID 0000.0001) IDEMIX_gamma =   /* IDEMIX group speed parameter. */
(PID.TID 0000.0001)                 1.570000000000000E+00
(PID.TID 0000.0001)     ;
(PID.TID 0000.0001) IDEMIX_jstar =   /* IDEMIX baroclinic mode bandwidth. */
(PID.TID 0000.0001)                 5.000000000000000E+00
(PID.TID 0000.0001)     ;
(PID.TID 0000.0001) IDEMIX_mu0 =   /* IDEMIX dissipation parameter. */
(PID.TID 0000.0001)                 3.333333333333333E-01
(PID.TID 0000.0001)     ;
(PID.TID 0000.0001) IDEMIX_mixing_efficiency =   /* IDEMIX mixing efficiency. */
(PID.TID 0000.0001)                 1.666000000000000E-01
(PID.TID 0000.0001)     ;
(PID.TID 0000.0001) IDEMIX_diff_max =   /* IDEMIX maximal diffusivity. */
(PID.TID 0000.0001)                 1.000000000000000E+00
(PID.TID 0000.0001)     ;
(PID.TID 0000.0001) IDEMIX_diff_min =   /* IDEMIX minimal diffusivity. */
(PID.TID 0000.0001)                 1.000000000000000E-09
(PID.TID 0000.0001)     ;
(PID.TID 0000.0001) IDEMIX_frac_F_b =   /* Fraction of F_b which enters IW field. */
(PID.TID 0000.0001)                 1.000000000000000E+00
(PID.TID 0000.0001)     ;
(PID.TID 0000.0001) IDEMIX_frac_F_s =   /* Fraction of F_s which enters IW field. */
(PID.TID 0000.0001)                 2.000000000000000E-01
(PID.TID 0000.0001)     ;
(PID.TID 0000.0001) IDEMIX_include_GM =   /* IDEMIX GM flag */
(PID.TID 0000.0001)                   F
(PID.TID 0000.0001)     ;
(PID.TID 0000.0001) IDEMIX_include_GM_bottom =   /* IDEMIX GM flag */
(PID.TID 0000.0001)                   F
(PID.TID 0000.0001)     ;
(PID.TID 0000.0001) IDEMIX_tidal_file = /* file name of tidal energy field */
(PID.TID 0000.0001)               'idemix_tidal_forcing.192x32.bin'
(PID.TID 0000.0001)     ;
(PID.TID 0000.0001) IDEMIX_wind_file  = /* file name of wind energy field */
(PID.TID 0000.0001)               'idemix_wind_forcing.192x32.bin'
(PID.TID 0000.0001)     ;
(PID.TID 0000.0001) // =======================================================
(PID.TID 0000.0001) // End of GGL90 config. summary
(PID.TID 0000.0001) // =======================================================
(PID.TID 0000.0001) 
(PID.TID 0000.0001) 
(PID.TID 0000.0001)  SEAICE_READPARMS: opening data.seaice
(PID.TID 0000.0001)  OPEN_COPY_DATA_FILE: opening file data.seaice
(PID.TID 0000.0001) // =======================================================
(PID.TID 0000.0001) // Parameter file "data.seaice"
(PID.TID 0000.0001) // =======================================================
(PID.TID 0000.0001) ># SEAICE parameters
(PID.TID 0000.0001) > &SEAICE_PARM01
(PID.TID 0000.0001) > LSR_ERROR             = 1.E-12,
(PID.TID 0000.0001) ># test strong implicit coupling method for LSR
(PID.TID 0000.0001) > SEAICEuseStrImpCpl    = .TRUE.,
(PID.TID 0000.0001) >#SEAICE_deltaTevp = 60.,
(PID.TID 0000.0001) > SEAICE_clipVelocities = .TRUE.,
(PID.TID 0000.0001) >#
(PID.TID 0000.0001) > SEAICE_salt0          = 4.,
(PID.TID 0000.0001) > SEAICE_multDim        = 7,
(PID.TID 0000.0001) > SEAICE_wetAlbTemp     = 0.,
(PID.TID 0000.0001) > SEAICE_mcPheePiston   = 0.00057,
(PID.TID 0000.0001) > SEAICE_areaLossFormula= 2,
(PID.TID 0000.0001) > SEAICEheatConsFix     = .TRUE.,
(PID.TID 0000.0001) >#SEAICE_monFreq        = 2592000.,
(PID.TID 0000.0001) >#SEAICEwriteState      = .TRUE.,
(PID.TID 0000.0001) > /
(PID.TID 0000.0001) >
(PID.TID 0000.0001) > &SEAICE_PARM03
(PID.TID 0000.0001) > /
(PID.TID 0000.0001) 
(PID.TID 0000.0001)  SEAICE_READPARMS: finished reading data.seaice
(PID.TID 0000.0001)  DIAGNOSTICS_READPARMS: opening data.diagnostics
(PID.TID 0000.0001)  OPEN_COPY_DATA_FILE: opening file data.diagnostics
(PID.TID 0000.0001) // =======================================================
(PID.TID 0000.0001) // Parameter file "data.diagnostics"
(PID.TID 0000.0001) // =======================================================
(PID.TID 0000.0001) ># Diagnostic Package Choices
(PID.TID 0000.0001) >#--------------------
(PID.TID 0000.0001) >#  dumpAtLast (logical): always write output at the end of simulation (default=F)
(PID.TID 0000.0001) >#  diag_mnc   (logical): write to NetCDF files (default=useMNC)
(PID.TID 0000.0001) >#--for each output-stream:
(PID.TID 0000.0001) >#  fileName(n) : prefix of the output file name (max 80c long) for outp.stream n
(PID.TID 0000.0001) >#  frequency(n):< 0 : write snap-shot output every |frequency| seconds
(PID.TID 0000.0001) >#               > 0 : write time-average output every frequency seconds
(PID.TID 0000.0001) >#  timePhase(n)     : write at time = timePhase + multiple of |frequency|
(PID.TID 0000.0001) >#    averagingFreq  : frequency (in s) for periodic averaging interval
(PID.TID 0000.0001) >#    averagingPhase : phase     (in s) for periodic averaging interval
(PID.TID 0000.0001) >#    repeatCycle    : number of averaging intervals in 1 cycle
(PID.TID 0000.0001) >#  levels(:,n) : list of levels to write to file (Notes: declared as REAL)
(PID.TID 0000.0001) >#                when this entry is missing, select all common levels of this list
(PID.TID 0000.0001) >#  fields(:,n) : list of selected diagnostics fields (8.c) in outp.stream n
(PID.TID 0000.0001) >#                (see "available_diagnostics.log" file for the full list of diags)
(PID.TID 0000.0001) >#  missing_value(n) : missing value for real-type fields in output file "n"
(PID.TID 0000.0001) >#  fileFlags(n)     : specific code (8c string) for output file "n"
(PID.TID 0000.0001) >#--------------------
(PID.TID 0000.0001) > &DIAGNOSTICS_LIST
(PID.TID 0000.0001) ># diag_mnc     = .FALSE.,
(PID.TID 0000.0001) ># dumpAtLast   = .TRUE.,
(PID.TID 0000.0001) >#--
(PID.TID 0000.0001) >  fields(1:11,1) = 'ETAN    ','ETANSQ  ','DETADT2 ','PHIBOT  ','PHIBOTSQ',
(PID.TID 0000.0001) >                   'oceTAUX ','oceTAUY ',
(PID.TID 0000.0001) >                   'oceQnet ','oceSflux','oceFWflx','MXLDEPTH',
(PID.TID 0000.0001) >#                  'surForcT','surForcS','TFLUX   ','SFLUX   ','oceFreez',
(PID.TID 0000.0001) >#                  'TRELAX  ','SRELAX  ',
(PID.TID 0000.0001) >#                  'GM_VisbK',
(PID.TID 0000.0001) >   fileName(1) = 'surfDiag',
(PID.TID 0000.0001) >  frequency(1) = 15552000.,
(PID.TID 0000.0001) ># frequency(1) = 1.,
(PID.TID 0000.0001) >  fields(1:15,2) = 'UVEL    ','VVEL    ','WVEL    ','PHIHYD  ',
(PID.TID 0000.0001) >                   'VVELMASS','UVELMASS','WVELSQ  ',
(PID.TID 0000.0001) >                   'THETA   ','UTHMASS ','VTHMASS ','WTHMASS ',
(PID.TID 0000.0001) >                   'SALT    ','USLTMASS','VSLTMASS','WSLTMASS',
(PID.TID 0000.0001) ># do not specify levels => all levels are selected
(PID.TID 0000.0001) >   fileName(2) = 'dynDiag',
(PID.TID 0000.0001) >  frequency(2) = 15552000.,
(PID.TID 0000.0001) >
(PID.TID 0000.0001) >  fields(1:7,3)  = 'DRHODR  ','RHOAnoma',
(PID.TID 0000.0001) >                   'GGL90TKE','GGL90Kr ','GGL90Lmx',
(PID.TID 0000.0001) >		   'IDEMIX_E','IDEMIX_K',
(PID.TID 0000.0001) >#                  'GM_PsiX ','GM_PsiY ',
(PID.TID 0000.0001) >#                  'GM_Kwx  ','GM_Kwy  ','GM_Kwz  ',
(PID.TID 0000.0001) >#                  'GM_Kux  ','GM_Kvy  ',
(PID.TID 0000.0001) >#                  'GM_Kuz  ','GM_Kvz  ',
(PID.TID 0000.0001) >#- disable this output list by commenting out the file name
(PID.TID 0000.0001) >   fileName(3) = 'oceDiag',
(PID.TID 0000.0001) >  frequency(3) = 15552000.,
(PID.TID 0000.0001) >
(PID.TID 0000.0001) >  fields(1:7,4)  = 'ADVx_TH ','ADVy_TH ','ADVr_TH ',
(PID.TID 0000.0001) >                   'DIFx_TH ','DIFy_TH ','DFrE_TH ',
(PID.TID 0000.0001) >                   'DFrI_TH ',
(PID.TID 0000.0001) >#                  'ADVx_SLT',
(PID.TID 0000.0001) >#  fileName(4) = 'flxDiag',
(PID.TID 0000.0001) >  frequency(4) = 1728000.,
(PID.TID 0000.0001) >
(PID.TID 0000.0001) >  fields(1:5,5)  = 'SIheff  ','SIarea  ','SIhsnow ',
(PID.TID 0000.0001) >                   'SIuice  ','SIvice  ',
(PID.TID 0000.0001) >  fileName(5) = 'seaiceDiag',
(PID.TID 0000.0001) >  frequency(5) = 15552000.,
(PID.TID 0000.0001) ># frequency(5) = 1.,
(PID.TID 0000.0001) >#averagingFreq(5) = 2592000.,
(PID.TID 0000.0001) >#  repeatCycle(5) = 12,
(PID.TID 0000.0001) >#---
(PID.TID 0000.0001) >  frequency(6) = 86400.0,
(PID.TID 0000.0001) >  fields(1:12,6) ='UVELMASS','VVELMASS',
(PID.TID 0000.0001) >                 'ADVx_TH ','ADVy_TH ','DFxE_TH ','DFyE_TH ',
(PID.TID 0000.0001) >                 'ADVx_SLT','ADVy_SLT','DFxE_SLT','DFyE_SLT',
(PID.TID 0000.0001) >                 'AB_gT   ','AB_gS   ',
(PID.TID 0000.0001) >#  filename(6) = 'budg2d_hflux_set2',
(PID.TID 0000.0001) >   fileFlags(6) = 'DI      ',
(PID.TID 0000.0001) >#---
(PID.TID 0000.0001) >  frequency(7) = -86400.0,
(PID.TID 0000.0001) >   fields(1:3,7) = 'ETAN    ','SIheff  ','SIhsnow ',
(PID.TID 0000.0001) >#  filename(7) = 'budg2d_snap_set1',
(PID.TID 0000.0001) >   timePhase(7)= 0.,
(PID.TID 0000.0001) >   fileFlags(7) = 'D       ',
(PID.TID 0000.0001) >#---
(PID.TID 0000.0001) >  frequency(8) = -86400.0,
(PID.TID 0000.0001) >   fields(1:2,8) = 'THETA   ','SALT    ',
(PID.TID 0000.0001) >#  filename(8) = 'budg2d_snap_set2',
(PID.TID 0000.0001) >   timePhase(8)= 0.,
(PID.TID 0000.0001) >   fileFlags(8) = 'DI      ',
(PID.TID 0000.0001) >#---
(PID.TID 0000.0001) >  frequency(9) = 86400.0,
(PID.TID 0000.0001) >  frequency(9) = 1.0,
(PID.TID 0000.0001) >   fields(1:16,9) = 'oceFWflx','SIatmFW ','TFLUX   ','SItflux ','SFLUX   ',
(PID.TID 0000.0001) >                  'SRELAX  ','TRELAX  ','oceSflux','oceQnet ','SIatmQnt','oceQsw  ',
(PID.TID 0000.0001) >#                 'WTHMASS ','WSLTMASS','SIaaflux','SIsnPrcp','SIacSubl',
(PID.TID 0000.0001) >   	          'EXFlwdn ','EXFswdn ','EXFlwnet','EXFhs   ','EXFhl   ',
(PID.TID 0000.0001) >   levels(1,9) = 1.,
(PID.TID 0000.0001) >#  filename(9) = 'budg2d_zflux_set1',
(PID.TID 0000.0001) >   fileFlags(9) = 'D       ',
(PID.TID 0000.0001) >#---
(PID.TID 0000.0001) >  frequency(10) = 86400.0,
(PID.TID 0000.0001) >   fields(1:8,10) ='ADVxHEFF','ADVyHEFF','DFxEHEFF','DFyEHEFF',
(PID.TID 0000.0001) >                 'ADVxSNOW','ADVySNOW','DFxESNOW','DFyESNOW',
(PID.TID 0000.0001) >#  filename(10) = 'budg2d_hflux_set1',
(PID.TID 0000.0001) >   fileFlags(10) = 'D       ',
(PID.TID 0000.0001) > /
(PID.TID 0000.0001) >
(PID.TID 0000.0001) >#--------------------
(PID.TID 0000.0001) ># Parameter for Diagnostics of per level statistics:
(PID.TID 0000.0001) >#--------------------
(PID.TID 0000.0001) >#  diagSt_mnc (logical): write stat-diags to NetCDF files (default=diag_mnc)
(PID.TID 0000.0001) >#  diagSt_regMaskFile : file containing the region-mask to read-in
(PID.TID 0000.0001) >#  nSetRegMskFile   : number of region-mask sets within the region-mask file
(PID.TID 0000.0001) >#  set_regMask(i)   : region-mask set-index that identifies the region "i"
(PID.TID 0000.0001) >#  val_regMask(i)   : region "i" identifier value in the region mask
(PID.TID 0000.0001) >#--for each output-stream:
(PID.TID 0000.0001) >#  stat_fName(n) : prefix of the output file name (max 80c long) for outp.stream n
(PID.TID 0000.0001) >#  stat_freq(n):< 0 : write snap-shot output every |stat_freq| seconds
(PID.TID 0000.0001) >#               > 0 : write time-average output every stat_freq seconds
(PID.TID 0000.0001) >#  stat_phase(n)    : write at time = stat_phase + multiple of |stat_freq|
(PID.TID 0000.0001) >#  stat_region(:,n) : list of "regions" (default: 1 region only=global)
(PID.TID 0000.0001) >#  stat_fields(:,n) : list of selected diagnostics fields (8.c) in outp.stream n
(PID.TID 0000.0001) >#                (see "available_diagnostics.log" file for the full list of diags)
(PID.TID 0000.0001) >#--------------------
(PID.TID 0000.0001) > &DIAG_STATIS_PARMS
(PID.TID 0000.0001) >#- regional mask: 3 lat. band: 1 : y <= -24 ; 2 : -24<y<24 ; 3 : 24 <= y
(PID.TID 0000.0001) > diagSt_regMaskFile='regMask_lat24.bin',
(PID.TID 0000.0001) > nSetRegMskFile = 1,
(PID.TID 0000.0001) > set_regMask(1:3) = 1,  1,  1,
(PID.TID 0000.0001) > val_regMask(1:3) = 1., 2., 3.,
(PID.TID 0000.0001) >#---
(PID.TID 0000.0001) > stat_fields(1:9,1)  = 'ETAN    ','DETADT2 ','GCM_SST ',
(PID.TID 0000.0001) >                       'UVEL    ','VVEL    ','WVEL    ',
(PID.TID 0000.0001) >                       'THETA   ','SALT    ','CONVADJ ',
(PID.TID 0000.0001) >  stat_fName(1) = 'dynStDiag',
(PID.TID 0000.0001) >   stat_freq(1) = 864000.,
(PID.TID 0000.0001) > stat_fields(1:5,5)  = 'SIheff  ','SIarea  ','SIhsnow ',
(PID.TID 0000.0001) >                       'SIuice  ','SIvice  ',
(PID.TID 0000.0001) > stat_region(1:3,5)  = 1, 3, 0,
(PID.TID 0000.0001) >  stat_fName(5) = 'seaiceStDiag',
(PID.TID 0000.0001) >   stat_freq(5) = 864000.,
(PID.TID 0000.0001) > /
(PID.TID 0000.0001) >
(PID.TID 0000.0001) 
(PID.TID 0000.0001) S/R DIAGNOSTICS_READPARMS, read namelist "diagnostics_list": start
(PID.TID 0000.0001) S/R DIAGNOSTICS_READPARMS, read namelist "diagnostics_list": OK
(PID.TID 0000.0001) S/R DIAGNOSTICS_READPARMS, read namelist "DIAG_STATIS_PARMS": start
(PID.TID 0000.0001) S/R DIAGNOSTICS_READPARMS, read namelist "DIAG_STATIS_PARMS": OK
(PID.TID 0000.0001) -----------------------------------------------------
(PID.TID 0000.0001)  DIAGNOSTICS_READPARMS: global parameter summary:
(PID.TID 0000.0001)  diag_dBugLevel = /* level of printed debug messages */
(PID.TID 0000.0001)                       2
(PID.TID 0000.0001)     ;
(PID.TID 0000.0001)  dumpAtLast = /* always write time-ave diags at the end */
(PID.TID 0000.0001)                   F
(PID.TID 0000.0001)     ;
(PID.TID 0000.0001)  diag_mnc =   /* write NetCDF output files */
(PID.TID 0000.0001)                   F
(PID.TID 0000.0001)     ;
(PID.TID 0000.0001)  useMissingValue = /* put MissingValue where mask = 0 */
(PID.TID 0000.0001)                   F
(PID.TID 0000.0001)     ;
(PID.TID 0000.0001)  diagCG_maxIters = /* max number of iters in diag_cg2d */
(PID.TID 0000.0001)                     200
(PID.TID 0000.0001)     ;
(PID.TID 0000.0001)  diagCG_resTarget = /* residual target for diag_cg2d */
(PID.TID 0000.0001)                 1.000000000000000E-09
(PID.TID 0000.0001)     ;
(PID.TID 0000.0001)  diagCG_pcOffDFac = /* preconditioner off-diagonal factor */
(PID.TID 0000.0001)                 9.611687812379854E-01
(PID.TID 0000.0001)     ;
(PID.TID 0000.0001) -----------------------------------------------------
(PID.TID 0000.0001)  DIAGNOSTICS_READPARMS: active diagnostics summary:
(PID.TID 0000.0001) -----------------------------------------------------
(PID.TID 0000.0001) Creating Output Stream: surfDiag
(PID.TID 0000.0001) Output Frequency:   15552000.000000 ; Phase:           0.000000
(PID.TID 0000.0001)  Averaging Freq.:   15552000.000000 , Phase:           0.000000 , Cycle:   1
(PID.TID 0000.0001)  missing value: -9.990000000000E+02
(PID.TID 0000.0001)  Levels:    will be set later
(PID.TID 0000.0001)  Fields:    ETAN     ETANSQ   DETADT2  PHIBOT   PHIBOTSQ oceTAUX  oceTAUY  oceQnet  oceSflux oceFWflx
(PID.TID 0000.0001)  Fields:    MXLDEPTH
(PID.TID 0000.0001) Creating Output Stream: dynDiag
(PID.TID 0000.0001) Output Frequency:   15552000.000000 ; Phase:           0.000000
(PID.TID 0000.0001)  Averaging Freq.:   15552000.000000 , Phase:           0.000000 , Cycle:   1
(PID.TID 0000.0001)  missing value: -9.990000000000E+02
(PID.TID 0000.0001)  Levels:    will be set later
(PID.TID 0000.0001)  Fields:    UVEL     VVEL     WVEL     PHIHYD   VVELMASS UVELMASS WVELSQ   THETA    UTHMASS  VTHMASS
(PID.TID 0000.0001)  Fields:    WTHMASS  SALT     USLTMASS VSLTMASS WSLTMASS
(PID.TID 0000.0001) Creating Output Stream: oceDiag
(PID.TID 0000.0001) Output Frequency:   15552000.000000 ; Phase:           0.000000
(PID.TID 0000.0001)  Averaging Freq.:   15552000.000000 , Phase:           0.000000 , Cycle:   1
(PID.TID 0000.0001)  missing value: -9.990000000000E+02
(PID.TID 0000.0001)  Levels:    will be set later
(PID.TID 0000.0001)  Fields:    DRHODR   RHOAnoma GGL90TKE GGL90Kr  GGL90Lmx IDEMIX_E IDEMIX_K
(PID.TID 0000.0001) Creating Output Stream: seaiceDiag
(PID.TID 0000.0001) Output Frequency:   15552000.000000 ; Phase:           0.000000
(PID.TID 0000.0001)  Averaging Freq.:   15552000.000000 , Phase:           0.000000 , Cycle:   1
(PID.TID 0000.0001)  missing value: -9.990000000000E+02
(PID.TID 0000.0001)  Levels:    will be set later
(PID.TID 0000.0001)  Fields:    SIheff   SIarea   SIhsnow  SIuice   SIvice
(PID.TID 0000.0001) -----------------------------------------------------
(PID.TID 0000.0001)  DIAGNOSTICS_READPARMS: statistics diags. summary:
(PID.TID 0000.0001) Creating Stats. Output Stream: dynStDiag
(PID.TID 0000.0001) Output Frequency:     864000.000000 ; Phase:           0.000000
(PID.TID 0000.0001)  Regions:   0
(PID.TID 0000.0001)  Fields:    ETAN     DETADT2  GCM_SST  UVEL     VVEL     WVEL     THETA    SALT     CONVADJ
(PID.TID 0000.0001) Creating Stats. Output Stream: seaiceStDiag
(PID.TID 0000.0001) Output Frequency:     864000.000000 ; Phase:           0.000000
(PID.TID 0000.0001)  Regions:   0  1  3
(PID.TID 0000.0001)  Fields:    SIheff   SIarea   SIhsnow  SIuice   SIvice
(PID.TID 0000.0001) -----------------------------------------------------
(PID.TID 0000.0001) 
(PID.TID 0000.0001) SET_PARMS: done
(PID.TID 0000.0001) Enter INI_VERTICAL_GRID: setInterFDr=    T ; setCenterDr=    F
(PID.TID 0000.0001) tile:   1 ; Read from file grid_cs32.face001.bin
(PID.TID 0000.0001)   => xC yC dxF dyF rA xG yG dxV dyU rAz dxC dyC rAw rAs dxG dyG AngleCS AngleSN
(PID.TID 0000.0001) tile:   2 ; Read from file grid_cs32.face001.bin
(PID.TID 0000.0001)   => xC yC dxF dyF rA xG yG dxV dyU rAz dxC dyC rAw rAs dxG dyG AngleCS AngleSN
(PID.TID 0000.0001) tile:   3 ; Read from file grid_cs32.face002.bin
(PID.TID 0000.0001)   => xC yC dxF dyF rA xG yG dxV dyU rAz dxC dyC rAw rAs dxG dyG AngleCS AngleSN
(PID.TID 0000.0001) tile:   4 ; Read from file grid_cs32.face002.bin
(PID.TID 0000.0001)   => xC yC dxF dyF rA xG yG dxV dyU rAz dxC dyC rAw rAs dxG dyG AngleCS AngleSN
(PID.TID 0000.0001) tile:   5 ; Read from file grid_cs32.face003.bin
(PID.TID 0000.0001)   => xC yC dxF dyF rA xG yG dxV dyU rAz dxC dyC rAw rAs dxG dyG AngleCS AngleSN
(PID.TID 0000.0001) tile:   6 ; Read from file grid_cs32.face003.bin
(PID.TID 0000.0001)   => xC yC dxF dyF rA xG yG dxV dyU rAz dxC dyC rAw rAs dxG dyG AngleCS AngleSN
(PID.TID 0000.0001) tile:   7 ; Read from file grid_cs32.face004.bin
(PID.TID 0000.0001)   => xC yC dxF dyF rA xG yG dxV dyU rAz dxC dyC rAw rAs dxG dyG AngleCS AngleSN
(PID.TID 0000.0001) tile:   8 ; Read from file grid_cs32.face004.bin
(PID.TID 0000.0001)   => xC yC dxF dyF rA xG yG dxV dyU rAz dxC dyC rAw rAs dxG dyG AngleCS AngleSN
(PID.TID 0000.0001) tile:   9 ; Read from file grid_cs32.face005.bin
(PID.TID 0000.0001)   => xC yC dxF dyF rA xG yG dxV dyU rAz dxC dyC rAw rAs dxG dyG AngleCS AngleSN
(PID.TID 0000.0001) tile:  10 ; Read from file grid_cs32.face005.bin
(PID.TID 0000.0001)   => xC yC dxF dyF rA xG yG dxV dyU rAz dxC dyC rAw rAs dxG dyG AngleCS AngleSN
(PID.TID 0000.0001) tile:  11 ; Read from file grid_cs32.face006.bin
(PID.TID 0000.0001)   => xC yC dxF dyF rA xG yG dxV dyU rAz dxC dyC rAw rAs dxG dyG AngleCS AngleSN
(PID.TID 0000.0001) tile:  12 ; Read from file grid_cs32.face006.bin
(PID.TID 0000.0001)   => xC yC dxF dyF rA xG yG dxV dyU rAz dxC dyC rAw rAs dxG dyG AngleCS AngleSN
(PID.TID 0000.0001) %MON XC_max                       =   1.7854351589505E+02
(PID.TID 0000.0001) %MON XC_min                       =  -1.7854351589505E+02
(PID.TID 0000.0001) %MON XC_mean                      =  -1.4199289892029E-14
(PID.TID 0000.0001) %MON XC_sd                        =   1.0355545336287E+02
(PID.TID 0000.0001) %MON XG_max                       =   1.8000000000000E+02
(PID.TID 0000.0001) %MON XG_min                       =  -1.7708797161002E+02
(PID.TID 0000.0001) %MON XG_mean                      =   1.8603515625000E+00
(PID.TID 0000.0001) %MON XG_sd                        =   1.0357130300504E+02
(PID.TID 0000.0001) %MON DXC_max                      =   3.2375185836900E+05
(PID.TID 0000.0001) %MON DXC_min                      =   1.1142031410131E+05
(PID.TID 0000.0001) %MON DXC_mean                     =   2.8605689051214E+05
(PID.TID 0000.0001) %MON DXC_sd                       =   3.4042087138252E+04
(PID.TID 0000.0001) %MON DXF_max                      =   3.2369947500827E+05
(PID.TID 0000.0001) %MON DXF_min                      =   1.2020820513318E+05
(PID.TID 0000.0001) %MON DXF_mean                     =   2.8605437324820E+05
(PID.TID 0000.0001) %MON DXF_sd                       =   3.4050524252539E+04
(PID.TID 0000.0001) %MON DXG_max                      =   3.2375195872773E+05
(PID.TID 0000.0001) %MON DXG_min                      =   1.0098378008791E+05
(PID.TID 0000.0001) %MON DXG_mean                     =   2.8603818508931E+05
(PID.TID 0000.0001) %MON DXG_sd                       =   3.4140406908005E+04
(PID.TID 0000.0001) %MON DXV_max                      =   3.2380418162750E+05
(PID.TID 0000.0001) %MON DXV_min                      =   8.0152299824136E+04
(PID.TID 0000.0001) %MON DXV_mean                     =   2.8603970633619E+05
(PID.TID 0000.0001) %MON DXV_sd                       =   3.4145142117723E+04
(PID.TID 0000.0001) %MON YC_max                       =   8.7940663871962E+01
(PID.TID 0000.0001) %MON YC_min                       =  -8.7940663871962E+01
(PID.TID 0000.0001) %MON YC_mean                      =  -2.3684757858670E-15
(PID.TID 0000.0001) %MON YC_sd                        =   3.8676242969072E+01
(PID.TID 0000.0001) %MON YG_max                       =   9.0000000000000E+01
(PID.TID 0000.0001) %MON YG_min                       =  -9.0000000000000E+01
(PID.TID 0000.0001) %MON YG_mean                      =  -4.1448326252673E-15
(PID.TID 0000.0001) %MON YG_sd                        =   3.8676895860710E+01
(PID.TID 0000.0001) %MON DYC_max                      =   3.2375185836900E+05
(PID.TID 0000.0001) %MON DYC_min                      =   1.1142031410131E+05
(PID.TID 0000.0001) %MON DYC_mean                     =   2.8605689051214E+05
(PID.TID 0000.0001) %MON DYC_sd                       =   3.4042087138252E+04
(PID.TID 0000.0001) %MON DYF_max                      =   3.2369947500827E+05
(PID.TID 0000.0001) %MON DYF_min                      =   1.2020820513318E+05
(PID.TID 0000.0001) %MON DYF_mean                     =   2.8605437324820E+05
(PID.TID 0000.0001) %MON DYF_sd                       =   3.4050524252539E+04
(PID.TID 0000.0001) %MON DYG_max                      =   3.2375195872773E+05
(PID.TID 0000.0001) %MON DYG_min                      =   1.0098378008791E+05
(PID.TID 0000.0001) %MON DYG_mean                     =   2.8603818508931E+05
(PID.TID 0000.0001) %MON DYG_sd                       =   3.4140406908005E+04
(PID.TID 0000.0001) %MON DYU_max                      =   3.2380418162750E+05
(PID.TID 0000.0001) %MON DYU_min                      =   8.0152299824136E+04
(PID.TID 0000.0001) %MON DYU_mean                     =   2.8603970633619E+05
(PID.TID 0000.0001) %MON DYU_sd                       =   3.4145142117723E+04
(PID.TID 0000.0001) %MON RA_max                       =   1.0479260248419E+11
(PID.TID 0000.0001) %MON RA_min                       =   1.4019007022556E+10
(PID.TID 0000.0001) %MON RA_mean                      =   8.2992246709265E+10
(PID.TID 0000.0001) %MON RA_sd                        =   1.7509089299457E+10
(PID.TID 0000.0001) %MON RAW_max                      =   1.0480965274559E+11
(PID.TID 0000.0001) %MON RAW_min                      =   1.2166903467143E+10
(PID.TID 0000.0001) %MON RAW_mean                     =   8.2992246709235E+10
(PID.TID 0000.0001) %MON RAW_sd                       =   1.7481917919656E+10
(PID.TID 0000.0001) %MON RAS_max                      =   1.0480965274559E+11
(PID.TID 0000.0001) %MON RAS_min                      =   1.2166903467143E+10
(PID.TID 0000.0001) %MON RAS_mean                     =   8.2992246709235E+10
(PID.TID 0000.0001) %MON RAS_sd                       =   1.7481917919656E+10
(PID.TID 0000.0001) %MON RAZ_max                      =   1.0484349334619E+11
(PID.TID 0000.0001) %MON RAZ_min                      =   8.8317900612505E+09
(PID.TID 0000.0001) %MON RAZ_mean                     =   8.2992246709235E+10
(PID.TID 0000.0001) %MON RAZ_sd                       =   1.7482297311044E+10
(PID.TID 0000.0001) %MON AngleCS_max                  =   9.9999994756719E-01
(PID.TID 0000.0001) %MON AngleCS_min                  =  -9.9968286884824E-01
(PID.TID 0000.0001) %MON AngleCS_mean                 =   3.3078922539000E-01
(PID.TID 0000.0001) %MON AngleCS_sd                   =   6.2496278958502E-01
(PID.TID 0000.0001) %MON AngleSN_max                  =   9.9968286884824E-01
(PID.TID 0000.0001) %MON AngleSN_min                  =  -9.9999994756719E-01
(PID.TID 0000.0001) %MON AngleSN_mean                 =  -3.3078922539000E-01
(PID.TID 0000.0001) %MON AngleSN_sd                   =   6.2496278958502E-01
(PID.TID 0000.0001)  MDS_READ_FIELD: opening global file: bathy_in_P.bin
(PID.TID 0000.0001) 
(PID.TID 0000.0001) // =======================================================
(PID.TID 0000.0001) // Calendar configuration >>> START <<<
(PID.TID 0000.0001) // =======================================================
(PID.TID 0000.0001) 
(PID.TID 0000.0001) modelstart = /* Start time of the model integration [s] */
(PID.TID 0000.0001)                 0.000000000000000E+00
(PID.TID 0000.0001)     ;
(PID.TID 0000.0001) modelend  = /* End time of the model integration [s] */
(PID.TID 0000.0001)                 8.640000000000000E+05
(PID.TID 0000.0001)     ;
(PID.TID 0000.0001) modelStep = /* Time interval for a model forward step [s] */
(PID.TID 0000.0001)                 8.640000000000000E+04
(PID.TID 0000.0001)     ;
(PID.TID 0000.0001) usingGregorianCalendar= /* Calendar Type: Gregorian Calendar */
(PID.TID 0000.0001)                   F
(PID.TID 0000.0001)     ;
(PID.TID 0000.0001) usingJulianCalendar = /* Calendar Type: Julian Calendar */
(PID.TID 0000.0001)                   F
(PID.TID 0000.0001)     ;
(PID.TID 0000.0001) usingNoLeapYearCal  = /* Calendar Type: without Leap Year */
(PID.TID 0000.0001)                   F
(PID.TID 0000.0001)     ;
(PID.TID 0000.0001) usingModelCalendar  = /* Calendar Type: Model Calendar */
(PID.TID 0000.0001)                   T
(PID.TID 0000.0001)     ;
(PID.TID 0000.0001) modelStartDate YYYYMMDD = /* Model start date YYYY-MM-DD */
(PID.TID 0000.0001)                   10101
(PID.TID 0000.0001)     ;
(PID.TID 0000.0001)   modelStartDate HHMMSS = /* Model start date HH-MM-SS  */
(PID.TID 0000.0001)                       0
(PID.TID 0000.0001)     ;
(PID.TID 0000.0001) modelEndDate   YYYYMMDD = /* Model end date YYYY-MM-DD */
(PID.TID 0000.0001)                   10111
(PID.TID 0000.0001)     ;
(PID.TID 0000.0001)   modelEndDate   HHMMSS = /* Model end date HH-MM-SS  */
(PID.TID 0000.0001)                       0
(PID.TID 0000.0001)     ;
(PID.TID 0000.0001) intyears = /* Number of calendar years affected by the integration */
(PID.TID 0000.0001)                       1
(PID.TID 0000.0001)     ;
(PID.TID 0000.0001) intmonths= /* Number of calendar months affected by the integration */
(PID.TID 0000.0001)                       1
(PID.TID 0000.0001)     ;
(PID.TID 0000.0001) intdays = /* Number of calendar days affected by the integration */
(PID.TID 0000.0001)                      10
(PID.TID 0000.0001)     ;
(PID.TID 0000.0001) modelIter0 = /* Base timestep number  */
(PID.TID 0000.0001)                       0
(PID.TID 0000.0001)     ;
(PID.TID 0000.0001) modelIterEnd = /* Final timestep number  */
(PID.TID 0000.0001)                      10
(PID.TID 0000.0001)     ;
(PID.TID 0000.0001) modelIntSteps= /* Number of model timesteps  */
(PID.TID 0000.0001)                      10
(PID.TID 0000.0001)     ;
(PID.TID 0000.0001) 
(PID.TID 0000.0001) // =======================================================
(PID.TID 0000.0001) // Calendar configuration  >>> END <<<
(PID.TID 0000.0001) // =======================================================
(PID.TID 0000.0001) 
(PID.TID 0000.0001) GAD_INIT_FIXED: GAD_OlMinSize=  1  0  1
(PID.TID 0000.0001) 
(PID.TID 0000.0001) // ===================================
(PID.TID 0000.0001) // GAD parameters :
(PID.TID 0000.0001) // ===================================
(PID.TID 0000.0001) tempAdvScheme =   /* Temp. Horiz.Advection scheme selector */
(PID.TID 0000.0001)                       2
(PID.TID 0000.0001)     ;
(PID.TID 0000.0001) tempVertAdvScheme =   /* Temp. Vert. Advection scheme selector */
(PID.TID 0000.0001)                       2
(PID.TID 0000.0001)     ;
(PID.TID 0000.0001) tempMultiDimAdvec =   /* use Muti-Dim Advec method for Temp */
(PID.TID 0000.0001)                   F
(PID.TID 0000.0001)     ;
(PID.TID 0000.0001) tempSOM_Advection = /* use 2nd Order Moment Advection for Temp */
(PID.TID 0000.0001)                   F
(PID.TID 0000.0001)     ;
(PID.TID 0000.0001) AdamsBashforthGt = /* apply Adams-Bashforth extrapolation on Gt */
(PID.TID 0000.0001)                   T
(PID.TID 0000.0001)     ;
(PID.TID 0000.0001) AdamsBashforth_T = /* apply Adams-Bashforth extrapolation on Temp */
(PID.TID 0000.0001)                   F
(PID.TID 0000.0001)     ;
(PID.TID 0000.0001) saltAdvScheme =   /* Salt. Horiz.advection scheme selector */
(PID.TID 0000.0001)                       2
(PID.TID 0000.0001)     ;
(PID.TID 0000.0001) saltVertAdvScheme =   /* Salt. Vert. Advection scheme selector */
(PID.TID 0000.0001)                       2
(PID.TID 0000.0001)     ;
(PID.TID 0000.0001) saltMultiDimAdvec =   /* use Muti-Dim Advec method for Salt */
(PID.TID 0000.0001)                   F
(PID.TID 0000.0001)     ;
(PID.TID 0000.0001) saltSOM_Advection = /* use 2nd Order Moment Advection for Salt */
(PID.TID 0000.0001)                   F
(PID.TID 0000.0001)     ;
(PID.TID 0000.0001) AdamsBashforthGs = /* apply Adams-Bashforth extrapolation on Gs */
(PID.TID 0000.0001)                   T
(PID.TID 0000.0001)     ;
(PID.TID 0000.0001) AdamsBashforth_S = /* apply Adams-Bashforth extrapolation on Salt */
(PID.TID 0000.0001)                   F
(PID.TID 0000.0001)     ;
(PID.TID 0000.0001) // ===================================
(PID.TID 0000.0001) 
(PID.TID 0000.0001) // =======================================================
(PID.TID 0000.0001) // External forcing (EXF) configuration >>> START <<<
(PID.TID 0000.0001) // =======================================================
(PID.TID 0000.0001) 
(PID.TID 0000.0001)  EXF general parameters:
(PID.TID 0000.0001) 
(PID.TID 0000.0001) exf_iprec = /* exf file precision */
(PID.TID 0000.0001)                      64
(PID.TID 0000.0001)     ;
(PID.TID 0000.0001) useExfYearlyFields = /* add extension _YEAR to input file names */
(PID.TID 0000.0001)                   F
(PID.TID 0000.0001)     ;
(PID.TID 0000.0001) twoDigitYear = /* use 2-digit year extension */
(PID.TID 0000.0001)                   F
(PID.TID 0000.0001)     ;
(PID.TID 0000.0001) useExfCheckRange = /* check for fields range */
(PID.TID 0000.0001)                   T
(PID.TID 0000.0001)     ;
(PID.TID 0000.0001) diags_opOceWeighted = /* weight flux diags by open-ocean fraction */
(PID.TID 0000.0001)                   T
(PID.TID 0000.0001)     ;
(PID.TID 0000.0001) exf_debugLev = /* select EXF-debug printing level */
(PID.TID 0000.0001)                       2
(PID.TID 0000.0001)     ;
(PID.TID 0000.0001) exf_monFreq  = /* EXF monitor frequency [ s ] */
(PID.TID 0000.0001)                 0.000000000000000E+00
(PID.TID 0000.0001)     ;
(PID.TID 0000.0001) exf_adjMonSelect = /* select group of exf AD-variables to monitor */
(PID.TID 0000.0001)                       1
(PID.TID 0000.0001)     ;
(PID.TID 0000.0001) repeatPeriod = /* period for cycling forcing dataset [ s ] */
(PID.TID 0000.0001)                 3.110400000000000E+07
(PID.TID 0000.0001)     ;
(PID.TID 0000.0001) climTempFreeze= /* Minimum climatological temperature [deg.C] */
(PID.TID 0000.0001)                -1.900000000000000E+00
(PID.TID 0000.0001)     ;
(PID.TID 0000.0001) windStressMax = /* Maximum absolute windstress [ Pa ] */
(PID.TID 0000.0001)                 2.000000000000000E+00
(PID.TID 0000.0001)     ;
(PID.TID 0000.0001) stressIsOnCgrid = /* set u,v_stress on Arakawa C-grid */
(PID.TID 0000.0001)                   T
(PID.TID 0000.0001)     ;
(PID.TID 0000.0001) rotateStressOnAgrid = /* rotate u,v_stress on Arakawa A-grid */
(PID.TID 0000.0001)                   F
(PID.TID 0000.0001)     ;
(PID.TID 0000.0001) cen2kel = /* conversion of deg. Centigrade to Kelvin [K] */
(PID.TID 0000.0001)                 2.731500000000000E+02
(PID.TID 0000.0001)     ;
(PID.TID 0000.0001) gravity_mks= /* gravitational acceleration [m/s^2] */
(PID.TID 0000.0001)                 9.810000000000000E+00
(PID.TID 0000.0001)     ;
(PID.TID 0000.0001) atmrho =  /* mean atmospheric density [kg/m^3] */
(PID.TID 0000.0001)                 1.220000000000000E+00
(PID.TID 0000.0001)     ;
(PID.TID 0000.0001) atmcp =  /* mean atmospheric specific heat [J/kg/K] */
(PID.TID 0000.0001)                 1.005000000000000E+03
(PID.TID 0000.0001)     ;
(PID.TID 0000.0001) flamb =  /* latent heat of evaporation [J/kg] */
(PID.TID 0000.0001)                 2.500000000000000E+06
(PID.TID 0000.0001)     ;
(PID.TID 0000.0001) flami =  /* latent heat of pure-ice melting [J/kg] */
(PID.TID 0000.0001)                 3.340000000000000E+05
(PID.TID 0000.0001)     ;
(PID.TID 0000.0001) cvapor_fac = /* const. for Saturation calculation [?] */
(PID.TID 0000.0001)                 6.403800000000000E+05
(PID.TID 0000.0001)     ;
(PID.TID 0000.0001) cvapor_exp = /* const. for Saturation calculation [?] */
(PID.TID 0000.0001)                 5.107400000000000E+03
(PID.TID 0000.0001)     ;
(PID.TID 0000.0001) cvapor_fac_ice= /* const. for Saturation calculation [?] */
(PID.TID 0000.0001)                 1.163780000000000E+07
(PID.TID 0000.0001)     ;
(PID.TID 0000.0001) cvapor_exp_ice= /* const. for Saturation calculation [?] */
(PID.TID 0000.0001)                 5.897800000000000E+03
(PID.TID 0000.0001)     ;
(PID.TID 0000.0001) humid_fac = /* humidity coef. in virtual temp. [(kg/kg)^-1] */
(PID.TID 0000.0001)                 6.080000000000000E-01
(PID.TID 0000.0001)     ;
(PID.TID 0000.0001) gamma_blk = /* adiabatic lapse rate [?] */
(PID.TID 0000.0001)                 1.000000000000000E-02
(PID.TID 0000.0001)     ;
(PID.TID 0000.0001) saltsat = /* reduction of Qsat over salty water [-] */
(PID.TID 0000.0001)                 9.800000000000000E-01
(PID.TID 0000.0001)     ;
(PID.TID 0000.0001) noNegativeEvap = /* prevent negative Evaporation */
(PID.TID 0000.0001)                   F
(PID.TID 0000.0001)     ;
(PID.TID 0000.0001) sstExtrapol = /* extrapolation coeff from lev. 1 & 2 to surf [-] */
(PID.TID 0000.0001)                 0.000000000000000E+00
(PID.TID 0000.0001)     ;
(PID.TID 0000.0001) cDrag_1 = /* coef used in drag calculation [m/s] */
(PID.TID 0000.0001)                 2.700000000000000E-03
(PID.TID 0000.0001)     ;
(PID.TID 0000.0001) cDrag_2 = /* coef used in drag calculation [-] */
(PID.TID 0000.0001)                 1.420000000000000E-04
(PID.TID 0000.0001)     ;
(PID.TID 0000.0001) cDrag_3 = /* coef used in drag calculation [s/m] */
(PID.TID 0000.0001)                 7.640000000000000E-05
(PID.TID 0000.0001)     ;
(PID.TID 0000.0001) cDrag_8 = /* coef used in drag calculation [(s/m)^6] */
(PID.TID 0000.0001)                 1.234567000000000E+05
(PID.TID 0000.0001)     ;
(PID.TID 0000.0001) cDragMax = /* maximum drag (Large and Yeager, 2009) [-] */
(PID.TID 0000.0001)                 1.234567000000000E+05
(PID.TID 0000.0001)     ;
(PID.TID 0000.0001) umax = /* at maximum wind (Large and Yeager, 2009) [m/s] */
(PID.TID 0000.0001)                 1.234567000000000E+05
(PID.TID 0000.0001)     ;
(PID.TID 0000.0001) cStanton_1 = /* coef used in Stanton number calculation [-] */
(PID.TID 0000.0001)                 3.270000000000000E-02
(PID.TID 0000.0001)     ;
(PID.TID 0000.0001) cStanton_2 = /* coef used in Stanton number calculation [-] */
(PID.TID 0000.0001)                 1.800000000000000E-02
(PID.TID 0000.0001)     ;
(PID.TID 0000.0001) cDalton = /* Dalton number [-] */
(PID.TID 0000.0001)                 3.460000000000000E-02
(PID.TID 0000.0001)     ;
(PID.TID 0000.0001) exf_scal_BulkCdn= /* Drag coefficient scaling factor [-] */
(PID.TID 0000.0001)                 1.000000000000000E+00
(PID.TID 0000.0001)     ;
(PID.TID 0000.0001) zolmin = /* minimum stability parameter [?] */
(PID.TID 0000.0001)                -1.000000000000000E+02
(PID.TID 0000.0001)     ;
(PID.TID 0000.0001) psim_fac = /* coef used in turbulent fluxes calculation [-] */
(PID.TID 0000.0001)                 5.000000000000000E+00
(PID.TID 0000.0001)     ;
(PID.TID 0000.0001) zref =  /* reference height [ m ] */
(PID.TID 0000.0001)                 1.000000000000000E+01
(PID.TID 0000.0001)     ;
(PID.TID 0000.0001) hu =  /* height of mean wind [ m ] */
(PID.TID 0000.0001)                 1.000000000000000E+01
(PID.TID 0000.0001)     ;
(PID.TID 0000.0001) ht =  /* height of mean temperature [ m ] */
(PID.TID 0000.0001)                 1.000000000000000E+01
(PID.TID 0000.0001)     ;
(PID.TID 0000.0001) hq =  /* height of mean spec.humidity [ m ] */
(PID.TID 0000.0001)                 1.000000000000000E+01
(PID.TID 0000.0001)     ;
(PID.TID 0000.0001) uMin = /* minimum wind speed [m/s] */
(PID.TID 0000.0001)                 5.000000000000000E-01
(PID.TID 0000.0001)     ;
(PID.TID 0000.0001) useStabilityFct_overIce= /* transfert Coeffs over sea-ice depend on stability */
(PID.TID 0000.0001)                   F
(PID.TID 0000.0001)     ;
(PID.TID 0000.0001) exf_iceCd = /* drag coefficient over sea-ice (fixed) [-] */
(PID.TID 0000.0001)                 1.630000000000000E-03
(PID.TID 0000.0001)     ;
(PID.TID 0000.0001) exf_iceCe = /* transfert coeff. over sea-ice, for Evap (fixed) [-] */
(PID.TID 0000.0001)                 1.630000000000000E-03
(PID.TID 0000.0001)     ;
(PID.TID 0000.0001) exf_iceCh = /* transfert coeff. over sea-ice, Sens.Heat.(fixed)[-] */
(PID.TID 0000.0001)                 1.630000000000000E-03
(PID.TID 0000.0001)     ;
(PID.TID 0000.0001) exf_albedo =  /* Sea-water albedo [-] */
(PID.TID 0000.0001)                 6.600000000000000E-02
(PID.TID 0000.0001)     ;
(PID.TID 0000.0001) useExfZenAlbedo = /* Sea-water albedo varies with zenith angle */
(PID.TID 0000.0001)                   F
(PID.TID 0000.0001)     ;
(PID.TID 0000.0001) select_ZenAlbedo = /* Sea-water albedo computation method */
(PID.TID 0000.0001)                       0
(PID.TID 0000.0001)     ;
(PID.TID 0000.0001) useExfZenIncoming = /* compute incoming solar radiation */
(PID.TID 0000.0001)                   F
(PID.TID 0000.0001)     ;
(PID.TID 0000.0001) ocean_emissivity = /* longwave ocean-surface emissivity [-] */
(PID.TID 0000.0001)                 1.000000000000000E+00
(PID.TID 0000.0001)     ;
(PID.TID 0000.0001) ice_emissivity = /* longwave seaice emissivity [-] */
(PID.TID 0000.0001)                 9.500000000000000E-01
(PID.TID 0000.0001)     ;
(PID.TID 0000.0001) snow_emissivity = /* longwave snow  emissivity [-] */
(PID.TID 0000.0001)                 9.500000000000000E-01
(PID.TID 0000.0001)     ;
(PID.TID 0000.0001) 
(PID.TID 0000.0001)  EXF main CPP flags:
(PID.TID 0000.0001) 
(PID.TID 0000.0001) // USE_EXF_INTERPOLATION:          NOT defined
(PID.TID 0000.0001) // ALLOW_ATM_TEMP:                     defined
(PID.TID 0000.0001) // ALLOW_ATM_WIND (useAtmWind):    NOT defined
(PID.TID 0000.0001) // ALLOW_DOWNWARD_RADIATION:           defined
(PID.TID 0000.0001) // ALLOW_BULKFORMULAE:                 defined
(PID.TID 0000.0001) 
(PID.TID 0000.0001)    Zonal wind stress forcing starts at             1296000.
(PID.TID 0000.0001)    Zonal wind stress forcing period is             2592000.
(PID.TID 0000.0001)    Zonal wind stress forcing repeat-cycle is      31104000.
(PID.TID 0000.0001)    Zonal wind stress forcing is read from file:
(PID.TID 0000.0001)    >> trenberth_taux.bin <<
(PID.TID 0000.0001) 
(PID.TID 0000.0001)    Meridional wind stress forcing starts at        1296000.
(PID.TID 0000.0001)    Meridional wind stress forcing period is        2592000.
(PID.TID 0000.0001)    Meridional wind stress forcing rep-cycle is    31104000.
(PID.TID 0000.0001)    Meridional wind stress forcing is read from file:
(PID.TID 0000.0001)    >> trenberth_tauy.bin <<
(PID.TID 0000.0001) 
(PID.TID 0000.0001)    Surface wind speed starts at                    1296000.
(PID.TID 0000.0001)    Surface wind speed period is                    2592000.
(PID.TID 0000.0001)    Surface wind speed repeat-cycle is             31104000.
(PID.TID 0000.0001)    Surface wind speed is read from file:
(PID.TID 0000.0001)    >> core_wndSpd_cs32.bin <<
(PID.TID 0000.0001) 
(PID.TID 0000.0001)    Atmospheric temperature starts at               1296000.
(PID.TID 0000.0001)    Atmospheric temperature period is               2592000.
(PID.TID 0000.0001)    Atmospheric temperature repeat-cycle is        31104000.
(PID.TID 0000.0001)    Atmospheric temperature is read from file:
(PID.TID 0000.0001)    >> core_t_Air_cs32.bin <<
(PID.TID 0000.0001) 
(PID.TID 0000.0001)    Atmospheric specific humidity starts at         1296000.
(PID.TID 0000.0001)    Atmospheric specific humidity period is         2592000.
(PID.TID 0000.0001)    Atmospheric specific humidity rep-cycle is     31104000.
(PID.TID 0000.0001)    Atmospheric specific humidity is read from file:
(PID.TID 0000.0001)    >> core_q_air_cs32.bin <<
(PID.TID 0000.0001) 
(PID.TID 0000.0001) // ALLOW_READ_TURBFLUXES:          NOT defined
(PID.TID 0000.0001) // EXF_READ_EVAP:                  NOT defined
(PID.TID 0000.0001) 
(PID.TID 0000.0001)    Precipitation data starts at                    1296000.
(PID.TID 0000.0001)    Precipitation data period is                    2592000.
(PID.TID 0000.0001)    Precipitation data repeat-cycle is             31104000.
(PID.TID 0000.0001)    Precipitation data is read from file:
(PID.TID 0000.0001)    >> core_prec_1_cs32.bin <<
(PID.TID 0000.0001) 
(PID.TID 0000.0001) // ALLOW_RUNOFF:                       defined
(PID.TID 0000.0001)    Runoff data starts at                           1296000.
(PID.TID 0000.0001)    Runoff data period is                           2592000.
(PID.TID 0000.0001)    Runoff data repeat-cycle is                    31104000.
(PID.TID 0000.0001)    Runoff data is read from file:
(PID.TID 0000.0001)    >> core_rnof_1_cs32.bin <<
(PID.TID 0000.0001) 
(PID.TID 0000.0001) // ALLOW_RUNOFTEMP:                    defined
(PID.TID 0000.0001)    Runoff temp. is read from file:
(PID.TID 0000.0001)    >> runoff_temperature.bin <<
(PID.TID 0000.0001) 
(PID.TID 0000.0001) // ALLOW_SALTFLX:                  NOT defined
(PID.TID 0000.0001) 
(PID.TID 0000.0001)    Downward shortwave flux starts at               1296000.
(PID.TID 0000.0001)    Downward shortwave flux period is               2592000.
(PID.TID 0000.0001)    Downward shortwave flux repeat-cycle is        31104000.
(PID.TID 0000.0001)    Downward shortwave flux is read from file:
(PID.TID 0000.0001)    >> core_dwnSw_cs32.bin <<
(PID.TID 0000.0001) 
(PID.TID 0000.0001)    Downward longwave flux starts at                1296000.
(PID.TID 0000.0001)    Downward longwave flux period is                2592000.
(PID.TID 0000.0001)    Downward longwave flux repeat-cycle is         31104000.
(PID.TID 0000.0001)    Downward longwave flux is read from file:
(PID.TID 0000.0001)    >> core_dwnLw_cs32.bin <<
(PID.TID 0000.0001) 
(PID.TID 0000.0001) // =======================================================
(PID.TID 0000.0001) // External forcing (EXF) climatology configuration :
(PID.TID 0000.0001) // =======================================================
(PID.TID 0000.0001) 
(PID.TID 0000.0001) // ALLOW_CLIMSST_RELAXATION:           defined
(PID.TID 0000.0001)    Climatological SST starts at                    1296000.
(PID.TID 0000.0001)    Climatological SST period is                    2592000.
(PID.TID 0000.0001)    Climatological SST repeat-cycle is             31104000.
(PID.TID 0000.0001)    Climatological SST is read from file:
(PID.TID 0000.0001)    >> lev_surfT_cs_12m.bin <<
(PID.TID 0000.0001) 
(PID.TID 0000.0001) // ALLOW_CLIMSSS_RELAXATION:           defined
(PID.TID 0000.0001)    Climatological SSS starts at                    1296000.
(PID.TID 0000.0001)    Climatological SSS period is                    2592000.
(PID.TID 0000.0001)    Climatological SSS repeat-cycle is             31104000.
(PID.TID 0000.0001)    Climatological SSS is read from file:
(PID.TID 0000.0001)    >> lev_surfS_cs_12m.bin <<
(PID.TID 0000.0001) 
(PID.TID 0000.0001) // =======================================================
(PID.TID 0000.0001) // External forcing (EXF) configuration  >>> END <<<
(PID.TID 0000.0001) // =======================================================
(PID.TID 0000.0001) 
(PID.TID 0000.0001) // =======================================================
(PID.TID 0000.0001) // Seaice configuration (SEAICE_PARM01) >>> START <<<
(PID.TID 0000.0001) // =======================================================
(PID.TID 0000.0001) 
(PID.TID 0000.0001)    Seaice time stepping configuration   > START <
(PID.TID 0000.0001)    ----------------------------------------------
(PID.TID 0000.0001) SEAICE_deltaTtherm= /* thermodynamic timestep */
(PID.TID 0000.0001)                 8.640000000000000E+04
(PID.TID 0000.0001)     ;
(PID.TID 0000.0001) SEAICE_deltaTdyn  = /* dynamic timestep */
(PID.TID 0000.0001)                 8.640000000000000E+04
(PID.TID 0000.0001)     ;
(PID.TID 0000.0001) SEAICEuseBDF2  = /* use backw. differencing for mom. eq. */
(PID.TID 0000.0001)                   F
(PID.TID 0000.0001)     ;
(PID.TID 0000.0001) SEAICEupdateOceanStress= /* update Ocean surf. stress */
(PID.TID 0000.0001)                   T
(PID.TID 0000.0001)     ;
(PID.TID 0000.0001) SEAICErestoreUnderIce  = /* restore T and S under ice */
(PID.TID 0000.0001)                   F
(PID.TID 0000.0001)     ;
(PID.TID 0000.0001) 
(PID.TID 0000.0001)    Seaice dynamics configuration   > START <
(PID.TID 0000.0001)    ------------------------------------------
(PID.TID 0000.0001) SEAICEuseDYNAMICS = /* use dynamics */
(PID.TID 0000.0001)                   T
(PID.TID 0000.0001)     ;
(PID.TID 0000.0001) model grid type   = /* type of sea ice model grid */
(PID.TID 0000.0001)               'C-GRID'
(PID.TID 0000.0001)     ;
(PID.TID 0000.0001) SEAICEuseStrImpCpl = /* use strongly implicit coupling */
(PID.TID 0000.0001)                   T
(PID.TID 0000.0001)     ;
(PID.TID 0000.0001) SEAICEusePicardAsPrecon = /* Picard as preconditioner */
(PID.TID 0000.0001)                   F
(PID.TID 0000.0001)     ;
(PID.TID 0000.0001) SEAICEuseLSR      = /* use default Picard-LSR solver */
(PID.TID 0000.0001)                   T
(PID.TID 0000.0001)     ;
(PID.TID 0000.0001) SEAICEuseLSRflex  = /* with residual norm criterion */
(PID.TID 0000.0001)                   F
(PID.TID 0000.0001)     ;
(PID.TID 0000.0001) SEAICEuseKrylov   = /* use Picard-Krylov solver */
(PID.TID 0000.0001)                   F
(PID.TID 0000.0001)     ;
(PID.TID 0000.0001) SEAICEuseEVP      = /* use EVP solver rather than LSR */
(PID.TID 0000.0001)                   F
(PID.TID 0000.0001)     ;
(PID.TID 0000.0001) SEAICEuseJFNK     = /* use JFNK solver */
(PID.TID 0000.0001)                   F
(PID.TID 0000.0001)     ;
(PID.TID 0000.0001) OCEAN_drag        = /* air-ocean drag coefficient */
(PID.TID 0000.0001)                 1.000000000000000E-03
(PID.TID 0000.0001)     ;
(PID.TID 0000.0001) SEAICE_drag       = /* air-ice drag coefficient */
(PID.TID 0000.0001)                 1.000000000000000E-03
(PID.TID 0000.0001)     ;
(PID.TID 0000.0001) SEAICE_drag_south      = /* Southern Ocean SEAICE_drag */
(PID.TID 0000.0001)                 1.000000000000000E-03
(PID.TID 0000.0001)     ;
(PID.TID 0000.0001) SEAICE_waterDrag  = /* water-ice drag (no units) */
(PID.TID 0000.0001)                 5.500000000000000E-03
(PID.TID 0000.0001)     ;
(PID.TID 0000.0001) SEAICE_waterDrag_south = /* Southern Ocean waterDrag (no units) */
(PID.TID 0000.0001)                 5.500000000000000E-03
(PID.TID 0000.0001)     ;
(PID.TID 0000.0001) SEAICEdWatMin = /* minimum linear water-ice drag (in m/s) */
(PID.TID 0000.0001)                 2.500000000000000E-01
(PID.TID 0000.0001)     ;
(PID.TID 0000.0001) SEAICEuseTilt     = /* include surface tilt in dyna. */
(PID.TID 0000.0001)                   T
(PID.TID 0000.0001)     ;
(PID.TID 0000.0001) SEAICEuseTEM      = /* use truncated ellipse rheology */
(PID.TID 0000.0001)                   F
(PID.TID 0000.0001)     ;
(PID.TID 0000.0001) SEAICE_strength   = /* sea-ice strength Pstar */
(PID.TID 0000.0001)                 2.750000000000000E+04
(PID.TID 0000.0001)     ;
(PID.TID 0000.0001) SEAICE_cStar      = /* sea-ice strength parameter cStar */
(PID.TID 0000.0001)                 2.000000000000000E+01
(PID.TID 0000.0001)     ;
(PID.TID 0000.0001) SEAICEpressReplFac= /* press. replacement method factor */
(PID.TID 0000.0001)                 1.000000000000000E+00
(PID.TID 0000.0001)     ;
(PID.TID 0000.0001) SEAICE_tensilFac  = /* sea-ice tensile strength factor */
(PID.TID 0000.0001)                 0.000000000000000E+00
(PID.TID 0000.0001)     ;
(PID.TID 0000.0001) SEAICE_tensilDepth= /* crit. depth for tensile strength */
(PID.TID 0000.0001)                 0.000000000000000E+00
(PID.TID 0000.0001)     ;
(PID.TID 0000.0001) SEAICEpresH0   = /* sea-ice strength Heff threshold */
(PID.TID 0000.0001)                 1.000000000000000E+00
(PID.TID 0000.0001)     ;
(PID.TID 0000.0001) SEAICEpresPow0 = /* exponent for Heff<SEAICEpresH0 */
(PID.TID 0000.0001)                       1
(PID.TID 0000.0001)     ;
(PID.TID 0000.0001) SEAICEpresPow1 = /* exponent for Heff>SEAICEpresH0 */
(PID.TID 0000.0001)                       1
(PID.TID 0000.0001)     ;
(PID.TID 0000.0001) SEAICEetaZmethod = /* method computing eta at Z-point */
(PID.TID 0000.0001)                       3
(PID.TID 0000.0001)     ;
(PID.TID 0000.0001) SEAICE_zetaMaxFac = /* factor for upper viscosity bound */
(PID.TID 0000.0001)                 2.500000000000000E+08
(PID.TID 0000.0001)     ;
(PID.TID 0000.0001) SEAICE_zetaMin    = /* lower bound for viscosity */
(PID.TID 0000.0001)                 0.000000000000000E+00
(PID.TID 0000.0001)     ;
(PID.TID 0000.0001) SEAICE_eccen    = /* elliptical yield curve eccent */
(PID.TID 0000.0001)                 2.000000000000000E+00
(PID.TID 0000.0001)     ;
(PID.TID 0000.0001) SEAICEstressFactor    = /* wind stress scaling factor */
(PID.TID 0000.0001)                 1.000000000000000E+00
(PID.TID 0000.0001)     ;
(PID.TID 0000.0001) SEAICE_airTurnAngle    = /* air-ice turning angle */
(PID.TID 0000.0001)                 0.000000000000000E+00
(PID.TID 0000.0001)     ;
(PID.TID 0000.0001) SEAICE_waterTurnAngle  = /* ice-water turning angle */
(PID.TID 0000.0001)                 0.000000000000000E+00
(PID.TID 0000.0001)     ;
(PID.TID 0000.0001) SEAICEuseMetricTerms = /* use metric terms */
(PID.TID 0000.0001)                   T
(PID.TID 0000.0001)     ;
(PID.TID 0000.0001) SEAICE_no_slip    = /* no slip boundary conditions */
(PID.TID 0000.0001)                   F
(PID.TID 0000.0001)     ;
(PID.TID 0000.0001) SEAICE_2ndOrderBC = /* 2nd order no slip boundary conditions */
(PID.TID 0000.0001)                   F
(PID.TID 0000.0001)     ;
(PID.TID 0000.0001) SEAICE_clipVeloctities = /* impose max. vels. */
(PID.TID 0000.0001)                   T
(PID.TID 0000.0001)     ;
(PID.TID 0000.0001) useHB87stressCoupling  = /* altern. ice-ocean stress */
(PID.TID 0000.0001)                   F
(PID.TID 0000.0001)     ;
(PID.TID 0000.0001) SEAICEscaleSurfStress  = /* scale atm. and ocean-surface stress with AREA */
(PID.TID 0000.0001)                   T
(PID.TID 0000.0001)     ;
(PID.TID 0000.0001) SEAICE_maskRHS    = /* mask RHS of solver */
(PID.TID 0000.0001)                   F
(PID.TID 0000.0001)     ;
(PID.TID 0000.0001) SEAICEaddSnowMass = /* add snow mass to seaiceMassC/U/V */
(PID.TID 0000.0001)                   T
(PID.TID 0000.0001)     ;
(PID.TID 0000.0001) LSR_mixIniGuess = /* mix free-drift sol. into LSR initial Guess */
(PID.TID 0000.0001)                      -1
(PID.TID 0000.0001)     ;
(PID.TID 0000.0001) SEAICE_LSRrelaxU  = /* LSR solver: relaxation parameter */
(PID.TID 0000.0001)                 9.500000000000000E-01
(PID.TID 0000.0001)     ;
(PID.TID 0000.0001) SEAICE_LSRrelaxV  = /* LSR solver: relaxation parameter */
(PID.TID 0000.0001)                 9.500000000000000E-01
(PID.TID 0000.0001)     ;
(PID.TID 0000.0001) LSR_ERROR         = /* sets accuracy of LSR solver */
(PID.TID 0000.0001)                 1.000000000000000E-12
(PID.TID 0000.0001)     ;
(PID.TID 0000.0001) SOLV_NCHECK       = /* test interval for LSR solver */
(PID.TID 0000.0001)                       2
(PID.TID 0000.0001)     ;
(PID.TID 0000.0001) SEAICEuseMultiTileSolver = /* use full domain tri-diag solver */
(PID.TID 0000.0001)                   F
(PID.TID 0000.0001)     ;
(PID.TID 0000.0001) SEAICE_OLx = /* overlap for LSR/preconditioner */
(PID.TID 0000.0001)                       2
(PID.TID 0000.0001)     ;
(PID.TID 0000.0001) SEAICE_OLy = /* overlap for LSR/preconditioner */
(PID.TID 0000.0001)                       2
(PID.TID 0000.0001)     ;
(PID.TID 0000.0001) SEAICEnonLinIterMax = /* max. number of nonlinear solver steps */
(PID.TID 0000.0001)                       2
(PID.TID 0000.0001)     ;
(PID.TID 0000.0001) SEAICElinearIterMax = /* max. number of linear solver steps */
(PID.TID 0000.0001)                    1500
(PID.TID 0000.0001)     ;
(PID.TID 0000.0001) SEAICEnonLinTol     = /* non-linear solver tolerance */
(PID.TID 0000.0001)                 0.000000000000000E+00
(PID.TID 0000.0001)     ;
(PID.TID 0000.0001) 
(PID.TID 0000.0001)    Seaice advection diffusion config,   > START <
(PID.TID 0000.0001)    -----------------------------------------------
(PID.TID 0000.0001) SEAICEmomAdvection = /* advect sea ice momentum */
(PID.TID 0000.0001)                   F
(PID.TID 0000.0001)     ;
(PID.TID 0000.0001) SEAICEadvHeff = /* advect effective ice thickness */
(PID.TID 0000.0001)                   T
(PID.TID 0000.0001)     ;
(PID.TID 0000.0001) SEAICEadvArea = /* advect fractional ice area */
(PID.TID 0000.0001)                   T
(PID.TID 0000.0001)     ;
(PID.TID 0000.0001) SEAICEadvSnow = /* advect snow layer together with ice */
(PID.TID 0000.0001)                   T
(PID.TID 0000.0001)     ;
(PID.TID 0000.0001) SEAICEmultiDimAdvection = /* multidimadvec */
(PID.TID 0000.0001)                   T
(PID.TID 0000.0001)     ;
(PID.TID 0000.0001) SEAICEadvScheme   = /* advection scheme for ice */
(PID.TID 0000.0001)                      77
(PID.TID 0000.0001)     ;
(PID.TID 0000.0001) SEAICEadvSchArea  = /* advection scheme for area */
(PID.TID 0000.0001)                      77
(PID.TID 0000.0001)     ;
(PID.TID 0000.0001) SEAICEadvSchHeff  = /* advection scheme for thickness */
(PID.TID 0000.0001)                      77
(PID.TID 0000.0001)     ;
(PID.TID 0000.0001) SEAICEadvSchSnow  = /* advection scheme for snow */
(PID.TID 0000.0001)                      77
(PID.TID 0000.0001)     ;
(PID.TID 0000.0001) SEAICEdiffKhArea  = /* diffusivity (m^2/s) for area */
(PID.TID 0000.0001)                 0.000000000000000E+00
(PID.TID 0000.0001)     ;
(PID.TID 0000.0001) SEAICEdiffKhHeff  = /* diffusivity (m^2/s) for heff */
(PID.TID 0000.0001)                 0.000000000000000E+00
(PID.TID 0000.0001)     ;
(PID.TID 0000.0001) SEAICEdiffKhSnow  = /* diffusivity (m^2/s) for snow */
(PID.TID 0000.0001)                 0.000000000000000E+00
(PID.TID 0000.0001)     ;
(PID.TID 0000.0001) DIFF1             = /* parameter used in advect.F [m/s] */
(PID.TID 0000.0001)                 0.000000000000000E+00
(PID.TID 0000.0001)     ;
(PID.TID 0000.0001) 
(PID.TID 0000.0001)    Seaice thermodynamics configuration   > START <
(PID.TID 0000.0001)    -----------------------------------------------
(PID.TID 0000.0001) SEAICE_rhoIce     = /* density of sea ice (kg/m3) */
(PID.TID 0000.0001)                 9.100000000000000E+02
(PID.TID 0000.0001)     ;
(PID.TID 0000.0001) SEAICE_rhoSnow    = /* density of snow (kg/m3) */
(PID.TID 0000.0001)                 3.300000000000000E+02
(PID.TID 0000.0001)     ;
(PID.TID 0000.0001) SEAICE_rhoAir     = /* density of air (kg/m3) */
(PID.TID 0000.0001)                 1.220000000000000E+00
(PID.TID 0000.0001)     ;
(PID.TID 0000.0001) usePW79thermodynamics  = /* default 0-layer TD */
(PID.TID 0000.0001)                   T
(PID.TID 0000.0001)     ;
(PID.TID 0000.0001) SEAICE_lhEvap     = /* latent heat of evaporation */
(PID.TID 0000.0001)                 2.500000000000000E+06
(PID.TID 0000.0001)     ;
(PID.TID 0000.0001) SEAICE_lhFusion   = /* latent heat of fusion */
(PID.TID 0000.0001)                 3.340000000000000E+05
(PID.TID 0000.0001)     ;
(PID.TID 0000.0001) SEAICE_mcPheePiston = /* turbulent flux "piston velocity" a la McPhee (m/s) */
(PID.TID 0000.0001)                 5.700000000000000E-04
(PID.TID 0000.0001)     ;
(PID.TID 0000.0001) SEAICE_mcPheeTaper = /* tapering of turbulent flux (0.< <1.) for AREA=1. */
(PID.TID 0000.0001)                 0.000000000000000E+00
(PID.TID 0000.0001)     ;
(PID.TID 0000.0001) SEAICE_mcPheeStepFunc = /* replace linear tapering with step funct. */
(PID.TID 0000.0001)                   F
(PID.TID 0000.0001)     ;
(PID.TID 0000.0001) SEAICE_frazilFrac = /* frazil (T<tempFrz) to seaice conversion rate (0.< <1.) */
(PID.TID 0000.0001)                 1.000000000000000E+00
(PID.TID 0000.0001)     ;
(PID.TID 0000.0001) SEAICE_tempFrz0   = /* freezing temp. of sea water (intercept) */
(PID.TID 0000.0001)                 9.010000000000000E-02
(PID.TID 0000.0001)     ;
(PID.TID 0000.0001) SEAICE_dTempFrz_dS= /* freezing temp. of sea water (slope) */
(PID.TID 0000.0001)                -5.750000000000000E-02
(PID.TID 0000.0001)     ;
(PID.TID 0000.0001) SEAICE_growMeltByConv  = /* grow,melt by vert. conv. */
(PID.TID 0000.0001)                   F
(PID.TID 0000.0001)     ;
(PID.TID 0000.0001) SEAICE_doOpenWaterGrowth = /* grow by open water */
(PID.TID 0000.0001)                   T
(PID.TID 0000.0001)     ;
(PID.TID 0000.0001) SEAICE_doOpenWaterMelt = /* melt by open water */
(PID.TID 0000.0001)                   F
(PID.TID 0000.0001)     ;
(PID.TID 0000.0001) SEAICE_areaGainFormula = /* ice cover gain formula (1,2)*/
(PID.TID 0000.0001)                       1
(PID.TID 0000.0001)     1=from growth by ATM
(PID.TID 0000.0001)     2=from predicted growth by ATM
(PID.TID 0000.0001)     ;
(PID.TID 0000.0001) SEAICE_areaLossFormula = /* ice cover loss formula (1,2)*/
(PID.TID 0000.0001)                       2
(PID.TID 0000.0001)     1=from all but only melt conributions by ATM and OCN
(PID.TID 0000.0001)     2=from net melt-grow>0 by ATM and OCN
(PID.TID 0000.0001)     3=from predicted melt by ATM
(PID.TID 0000.0001)     ;
(PID.TID 0000.0001) HO                = /* nominal thickness of new ice */
(PID.TID 0000.0001)                 5.000000000000000E-01
(PID.TID 0000.0001)     ;
(PID.TID 0000.0001) HO_south               = /* Southern Ocean HO */
(PID.TID 0000.0001)                 5.000000000000000E-01
(PID.TID 0000.0001)     ;
(PID.TID 0000.0001) SEAICE_area_max        = /* set to les than 1. to mimic open leads */
(PID.TID 0000.0001)                 1.000000000000000E+00
(PID.TID 0000.0001)     ;
(PID.TID 0000.0001) SEAICE_salt0   = /* constant sea ice salinity */
(PID.TID 0000.0001)                 4.000000000000000E+00
(PID.TID 0000.0001)     ;
(PID.TID 0000.0001) SEAICE_salinityTracer = /* test SITR varia. salinity */
(PID.TID 0000.0001)                   F
(PID.TID 0000.0001)     ;
(PID.TID 0000.0001) SEAICEuseFlooding = /* turn submerged snow into ice */
(PID.TID 0000.0001)                   T
(PID.TID 0000.0001)     ;
(PID.TID 0000.0001) 
(PID.TID 0000.0001)    Seaice air-sea fluxes configuration,   > START <
(PID.TID 0000.0001)    -----------------------------------------------
(PID.TID 0000.0001) SEAICEheatConsFix  = /* accound for ocn<->seaice advect. heat flux */
(PID.TID 0000.0001)                   T
(PID.TID 0000.0001)     ;
(PID.TID 0000.0001) SEAICE_multDim    = /* number of ice categories (1 or 7) */
(PID.TID 0000.0001)                       7
(PID.TID 0000.0001)     ;
(PID.TID 0000.0001) SEAICE_PDF        = /* sea-ice distribution (-) */
(PID.TID 0000.0001)     7 @  1.428571428571428E-01              /* K =  1:  7 */
(PID.TID 0000.0001)     ;
(PID.TID 0000.0001) IMAX_TICE         = /* iterations for ice surface temp */
(PID.TID 0000.0001)                      10
(PID.TID 0000.0001)     ;
(PID.TID 0000.0001) postSolvTempIter= /* flux calculation after surf. temp iter */
(PID.TID 0000.0001)                       2
(PID.TID 0000.0001)     ;
(PID.TID 0000.0001) SEAICE_dryIceAlb  = /* winter albedo */
(PID.TID 0000.0001)                 7.500000000000000E-01
(PID.TID 0000.0001)     ;
(PID.TID 0000.0001) SEAICE_wetIceAlb  = /* summer albedo */
(PID.TID 0000.0001)                 6.600000000000000E-01
(PID.TID 0000.0001)     ;
(PID.TID 0000.0001) SEAICE_drySnowAlb = /* dry snow albedo */
(PID.TID 0000.0001)                 8.400000000000000E-01
(PID.TID 0000.0001)     ;
(PID.TID 0000.0001) SEAICE_wetSnowAlb = /* wet snow albedo */
(PID.TID 0000.0001)                 7.000000000000000E-01
(PID.TID 0000.0001)     ;
(PID.TID 0000.0001) SEAICE_dryIceAlb_south = /* Southern Ocean dryIceAlb */
(PID.TID 0000.0001)                 7.500000000000000E-01
(PID.TID 0000.0001)     ;
(PID.TID 0000.0001) SEAICE_wetIceAlb_south = /* Southern Ocean wetIceAlb */
(PID.TID 0000.0001)                 6.600000000000000E-01
(PID.TID 0000.0001)     ;
(PID.TID 0000.0001) SEAICE_drySnowAlb_south= /* Southern Ocean drySnowAlb */
(PID.TID 0000.0001)                 8.400000000000000E-01
(PID.TID 0000.0001)     ;
(PID.TID 0000.0001) SEAICE_wetSnowAlb_south= /* Southern Ocean wetSnowAlb */
(PID.TID 0000.0001)                 7.000000000000000E-01
(PID.TID 0000.0001)     ;
(PID.TID 0000.0001) SEAICE_wetAlbTemp= /* Temp (o.C) threshold for wet-albedo */
(PID.TID 0000.0001)                 0.000000000000000E+00
(PID.TID 0000.0001)     ;
(PID.TID 0000.0001) SEAICE_snow_emiss = /* snow emissivity */
(PID.TID 0000.0001)                 9.500000000000000E-01
(PID.TID 0000.0001)     ;
(PID.TID 0000.0001) SEAICE_ice_emiss = /* seaice emissivity */
(PID.TID 0000.0001)                 9.500000000000000E-01
(PID.TID 0000.0001)     ;
(PID.TID 0000.0001) SEAICE_cpAir      = /* heat capacity of air */
(PID.TID 0000.0001)                 1.005000000000000E+03
(PID.TID 0000.0001)     ;
(PID.TID 0000.0001) SEAICE_dalton     = /* constant dalton number */
(PID.TID 0000.0001)                 1.750000000000000E-03
(PID.TID 0000.0001)     ;
(PID.TID 0000.0001) SEAICE_iceConduct = /* sea-ice conductivity */
(PID.TID 0000.0001)                 2.165600000000000E+00
(PID.TID 0000.0001)     ;
(PID.TID 0000.0001) SEAICE_snowConduct= /* snow conductivity */
(PID.TID 0000.0001)                 3.100000000000000E-01
(PID.TID 0000.0001)     ;
(PID.TID 0000.0001) SEAICE_snowThick  = /* cutoff snow thickness (for albedo) */
(PID.TID 0000.0001)                 1.500000000000000E-01
(PID.TID 0000.0001)     ;
(PID.TID 0000.0001) SEAICE_shortwave  = /* penetration shortwave radiation */
(PID.TID 0000.0001)                 3.000000000000000E-01
(PID.TID 0000.0001)     ;
(PID.TID 0000.0001) useMaykutSatVapPoly = /* use Maykut Polynomial for Sat.Vap.Pr */
(PID.TID 0000.0001)                   F
(PID.TID 0000.0001)     ;
(PID.TID 0000.0001) MIN_ATEMP         = /* minimum air temperature */
(PID.TID 0000.0001)                -5.000000000000000E+01
(PID.TID 0000.0001)     ;
(PID.TID 0000.0001) MIN_LWDOWN        = /* minimum downward longwave */
(PID.TID 0000.0001)                 6.000000000000000E+01
(PID.TID 0000.0001)     ;
(PID.TID 0000.0001) MIN_TICE          = /* minimum ice temperature */
(PID.TID 0000.0001)                -5.000000000000000E+01
(PID.TID 0000.0001)     ;
(PID.TID 0000.0001) 
(PID.TID 0000.0001)    Seaice initialization and IO config.,   > START <
(PID.TID 0000.0001)    -------------------------------------------------
(PID.TID 0000.0001) SEAICE_initialHEFF= /* initial sea-ice thickness */
(PID.TID 0000.0001)                 0.000000000000000E+00
(PID.TID 0000.0001)     ;
(PID.TID 0000.0001) AreaFile = /* Initial ice concentration File */
(PID.TID 0000.0001)               ''
(PID.TID 0000.0001)     ;
(PID.TID 0000.0001) HeffFile = /* Initial effective ice thickness File */
(PID.TID 0000.0001)               ''
(PID.TID 0000.0001)     ;
(PID.TID 0000.0001) HsnowFile = /* Initial snow thickness File */
(PID.TID 0000.0001)               ''
(PID.TID 0000.0001)     ;
(PID.TID 0000.0001) uIceFile = /* Initial U-ice velocity File */
(PID.TID 0000.0001)               ''
(PID.TID 0000.0001)     ;
(PID.TID 0000.0001) vIceFile = /* Initial V-ice velocity File */
(PID.TID 0000.0001)               ''
(PID.TID 0000.0001)     ;
(PID.TID 0000.0001) SEAICEwriteState  = /* write sea ice state to file */
(PID.TID 0000.0001)                   F
(PID.TID 0000.0001)     ;
(PID.TID 0000.0001) SEAICE_monFreq  = /* monitor frequency */
(PID.TID 0000.0001)                 1.000000000000000E+00
(PID.TID 0000.0001)     ;
(PID.TID 0000.0001) SEAICE_dumpFreq   = /* dump frequency */
(PID.TID 0000.0001)                 0.000000000000000E+00
(PID.TID 0000.0001)     ;
(PID.TID 0000.0001) SEAICE_taveFreq   = /* time-averaging frequency */
(PID.TID 0000.0001)                 0.000000000000000E+00
(PID.TID 0000.0001)     ;
(PID.TID 0000.0001) SEAICE_mon_stdio  = /* write monitor to std-outp */
(PID.TID 0000.0001)                   T
(PID.TID 0000.0001)     ;
(PID.TID 0000.0001) SEAICE_dump_mdsio = /* write snap-shot   using MDSIO */
(PID.TID 0000.0001)                   T
(PID.TID 0000.0001)     ;
(PID.TID 0000.0001) SEAICE_tave_mdsio = /* write TimeAverage using MDSIO */
(PID.TID 0000.0001)                   T
(PID.TID 0000.0001)     ;
(PID.TID 0000.0001) SEAICE_mon_mnc    = /* write monitor to netcdf file */
(PID.TID 0000.0001)                   F
(PID.TID 0000.0001)     ;
(PID.TID 0000.0001) SEAICE_dump_mnc   = /* write snap-shot   using MNC */
(PID.TID 0000.0001)                   F
(PID.TID 0000.0001)     ;
(PID.TID 0000.0001) SEAICE_tave_mnc   = /* write TimeAverage using MNC */
(PID.TID 0000.0001)                   F
(PID.TID 0000.0001)     ;
(PID.TID 0000.0001) 
(PID.TID 0000.0001)    Seaice regularization numbers,   > START <
(PID.TID 0000.0001)    -----------------------------------------------
(PID.TID 0000.0001) SEAICE_deltaMin   = /* reduce singularities in Delta */
(PID.TID 0000.0001)                 1.000000000000000E-10
(PID.TID 0000.0001)     ;
(PID.TID 0000.0001) SEAICE_EPS        = /* small number */
(PID.TID 0000.0001)                 1.000000000000000E-10
(PID.TID 0000.0001)     ;
(PID.TID 0000.0001) SEAICE_EPS_SQ     = /* small number squared */
(PID.TID 0000.0001)                 1.000000000000000E-20
(PID.TID 0000.0001)     ;
(PID.TID 0000.0001) SEAICE_area_reg   = /* reduce derivative singularities */
(PID.TID 0000.0001)                 1.000000000000000E-05
(PID.TID 0000.0001)     ;
(PID.TID 0000.0001) SEAICE_hice_reg   = /* reduce derivative singularities */
(PID.TID 0000.0001)                 5.000000000000000E-02
(PID.TID 0000.0001)     ;
(PID.TID 0000.0001) SEAICE_area_floor = /* reduce derivative singularities */
(PID.TID 0000.0001)                 1.000000000000000E-05
(PID.TID 0000.0001)     ;
(PID.TID 0000.0001) 
(PID.TID 0000.0001) // =======================================================
(PID.TID 0000.0001) // Seaice configuration (SEAICE_PARM01) >>> END <<<
(PID.TID 0000.0001) // =======================================================
(PID.TID 0000.0001) 
(PID.TID 0000.0001) ------------------------------------------------------------
(PID.TID 0000.0001) DIAGNOSTICS_SET_LEVELS: done
(PID.TID 0000.0001)  Total Nb of available Diagnostics: ndiagt=   329
(PID.TID 0000.0001)  write list of available Diagnostics to file: available_diagnostics.log
(PID.TID 0000.0001) SETDIAG: Allocate  1 x  1 Levels for Diagnostic #    23 ETAN
(PID.TID 0000.0001) SETDIAG: Allocate  1 x  1 Levels for Diagnostic #    24 ETANSQ
(PID.TID 0000.0001) SETDIAG: Allocate  1 x  1 Levels for Diagnostic #    25 DETADT2
(PID.TID 0000.0001) SETDIAG: Allocate  1 x  1 Levels for Diagnostic #    73 PHIBOT
(PID.TID 0000.0001) SETDIAG: Allocate  1 x  1 Levels for Diagnostic #    74 PHIBOTSQ
(PID.TID 0000.0001) SETDIAG: Allocate  1 x  1 Levels for Diagnostic #    82 oceTAUX
(PID.TID 0000.0001) SETDIAG: Allocate  1 x  1 Levels for Diagnostic #    83 oceTAUY
(PID.TID 0000.0001) SETDIAG: Allocate  1 x  1 Levels for Diagnostic #    88 oceQnet
(PID.TID 0000.0001) SETDIAG: Allocate  1 x  1 Levels for Diagnostic #    87 oceSflux
(PID.TID 0000.0001) SETDIAG: Allocate  1 x  1 Levels for Diagnostic #    86 oceFWflx
(PID.TID 0000.0001) SETDIAG: Allocate  1 x  1 Levels for Diagnostic #    78 MXLDEPTH
(PID.TID 0000.0001) SETDIAG: Allocate 15 x  1 Levels for Diagnostic #    30 UVEL
(PID.TID 0000.0001) SETDIAG: Allocate 15 x  1 Levels for Diagnostic #    31 VVEL
(PID.TID 0000.0001) SETDIAG: Allocate 15 x  1 Levels for Diagnostic #    32 WVEL
(PID.TID 0000.0001) SETDIAG: Allocate 15 x  1 Levels for Diagnostic #    71 PHIHYD
(PID.TID 0000.0001) SETDIAG: Allocate 15 x  1 Levels for Diagnostic #    46 VVELMASS
(PID.TID 0000.0001) SETDIAG: Allocate 15 x  1 Levels for Diagnostic #    45 UVELMASS
(PID.TID 0000.0001) SETDIAG: Allocate 15 x  1 Levels for Diagnostic #    38 WVELSQ
(PID.TID 0000.0001) SETDIAG: Allocate 15 x  1 Levels for Diagnostic #    26 THETA
(PID.TID 0000.0001) SETDIAG: Allocate 15 x  1 Levels for Diagnostic #    50 UTHMASS
(PID.TID 0000.0001) SETDIAG: Allocate 15 x  1 Levels for Diagnostic #    51 VTHMASS
(PID.TID 0000.0001) SETDIAG: Allocate 15 x  1 Levels for Diagnostic #    52 WTHMASS
(PID.TID 0000.0001) SETDIAG: Allocate 15 x  1 Levels for Diagnostic #    27 SALT
(PID.TID 0000.0001) SETDIAG: Allocate 15 x  1 Levels for Diagnostic #    53 USLTMASS
(PID.TID 0000.0001) SETDIAG: Allocate 15 x  1 Levels for Diagnostic #    54 VSLTMASS
(PID.TID 0000.0001) SETDIAG: Allocate 15 x  1 Levels for Diagnostic #    55 WSLTMASS
(PID.TID 0000.0001) SETDIAG: Allocate 15 x  1 Levels for Diagnostic #    79 DRHODR
(PID.TID 0000.0001) SETDIAG: Allocate 15 x  1 Levels for Diagnostic #    64 RHOAnoma
(PID.TID 0000.0001) SETDIAG: Allocate 15 x  1 Levels for Diagnostic #   231 GGL90TKE
(PID.TID 0000.0001) SETDIAG: Allocate 15 x  1 Levels for Diagnostic #   237 GGL90Kr
(PID.TID 0000.0001) SETDIAG: Allocate 15 x  1 Levels for Diagnostic #   233 GGL90Lmx
(PID.TID 0000.0001) SETDIAG: Allocate 15 x  1 Levels for Diagnostic #   241 IDEMIX_E
(PID.TID 0000.0001) SETDIAG: Allocate 15 x  1 Levels for Diagnostic #   246 IDEMIX_K
(PID.TID 0000.0001) SETDIAG: Allocate  1 x  1 Levels for Diagnostic #   254 SIheff
(PID.TID 0000.0001) SETDIAG: Allocate  1 x  1 Levels for Diagnostic #   251 SIarea
(PID.TID 0000.0001) SETDIAG: Allocate  1 x  1 Levels for Diagnostic #   256 SIhsnow
(PID.TID 0000.0001) SETDIAG: Allocate  1 x  1 Levels for Diagnostic #   268 SIuice
(PID.TID 0000.0001) SETDIAG: Allocate  1 x  1 Levels for Diagnostic #   269 SIvice
(PID.TID 0000.0001)   space allocated for all diagnostics:     346 levels
(PID.TID 0000.0001)   set mate pointer for diag #    82  oceTAUX  , Parms: UU      U1 , mate:    83
(PID.TID 0000.0001)   set mate pointer for diag #    83  oceTAUY  , Parms: VV      U1 , mate:    82
(PID.TID 0000.0001)   set mate pointer for diag #    30  UVEL     , Parms: UUR     MR , mate:    31
(PID.TID 0000.0001)   set mate pointer for diag #    31  VVEL     , Parms: VVR     MR , mate:    30
(PID.TID 0000.0001)   set mate pointer for diag #    46  VVELMASS , Parms: VVr     MR , mate:    45
(PID.TID 0000.0001)   set mate pointer for diag #    45  UVELMASS , Parms: UUr     MR , mate:    46
(PID.TID 0000.0001)   set mate pointer for diag #    50  UTHMASS  , Parms: UUr     MR , mate:    51
(PID.TID 0000.0001)   set mate pointer for diag #    51  VTHMASS  , Parms: VVr     MR , mate:    50
(PID.TID 0000.0001)   set mate pointer for diag #    53  USLTMASS , Parms: UUr     MR , mate:    54
(PID.TID 0000.0001)   set mate pointer for diag #    54  VSLTMASS , Parms: VVr     MR , mate:    53
(PID.TID 0000.0001)   set mate pointer for diag #   268  SIuice   , Parms: UU      M1 , mate:   269
(PID.TID 0000.0001)   set mate pointer for diag #   269  SIvice   , Parms: VV      M1 , mate:   268
(PID.TID 0000.0001) DIAGNOSTICS_SET_POINTERS: Set levels for Outp.Stream: surfDiag
(PID.TID 0000.0001)  Levels:       1.
(PID.TID 0000.0001) DIAGNOSTICS_SET_POINTERS: Set levels for Outp.Stream: dynDiag
(PID.TID 0000.0001)  Levels:       1.   2.   3.   4.   5.   6.   7.   8.   9.  10.  11.  12.  13.  14.  15.
(PID.TID 0000.0001) DIAGNOSTICS_SET_POINTERS: Set levels for Outp.Stream: oceDiag
(PID.TID 0000.0001)  Levels:       1.   2.   3.   4.   5.   6.   7.   8.   9.  10.  11.  12.  13.  14.  15.
(PID.TID 0000.0001) DIAGNOSTICS_SET_POINTERS: Set levels for Outp.Stream: seaiceDiag
(PID.TID 0000.0001)  Levels:       1.
(PID.TID 0000.0001) DIAGNOSTICS_SET_POINTERS: done, use     346 levels (numDiags =     600 )
(PID.TID 0000.0001) ------------------------------------------------------------
 DIAGSTATS_SET_REGIONS: start reading region-mask file: regMask_lat24.bin
 DIAGSTATS_SET_REGIONS:  reading set k=  1
(PID.TID 0000.0001)  MDS_READ_FIELD: opening global file: regMask_lat24.bin
 DIAGSTATS_SET_REGIONS:          set k=  1 <= done
(PID.TID 0000.0001) DIAGSTATS_SET_REGIONS: define   3 regions:  1  2  3
(PID.TID 0000.0001) ------------------------------------------------------------
(PID.TID 0000.0001) SETDIAG: Allocate  1 Levels for Stats-Diag #    23 ETAN
(PID.TID 0000.0001) SETDIAG: Allocate  1 Levels for Stats-Diag #    25 DETADT2
(PID.TID 0000.0001) SETDIAG: Allocate  1 Levels for Stats-Diag #    81 GCM_SST
(PID.TID 0000.0001) SETDIAG: Allocate 15 Levels for Stats-Diag #    30 UVEL
(PID.TID 0000.0001) SETDIAG: Allocate 15 Levels for Stats-Diag #    31 VVEL
(PID.TID 0000.0001) SETDIAG: Allocate 15 Levels for Stats-Diag #    32 WVEL
(PID.TID 0000.0001) SETDIAG: Allocate 15 Levels for Stats-Diag #    26 THETA
(PID.TID 0000.0001) SETDIAG: Allocate 15 Levels for Stats-Diag #    27 SALT
(PID.TID 0000.0001) SETDIAG: Allocate 15 Levels for Stats-Diag #    80 CONVADJ
(PID.TID 0000.0001) SETDIAG: Allocate  1 Levels for Stats-Diag #   254 SIheff
(PID.TID 0000.0001) SETDIAG: Allocate  1 Levels for Stats-Diag #   251 SIarea
(PID.TID 0000.0001) SETDIAG: Allocate  1 Levels for Stats-Diag #   256 SIhsnow
(PID.TID 0000.0001) SETDIAG: Allocate  1 Levels for Stats-Diag #   268 SIuice
(PID.TID 0000.0001) SETDIAG: Allocate  1 Levels for Stats-Diag #   269 SIvice
(PID.TID 0000.0001)   space allocated for all stats-diags:      98 levels
(PID.TID 0000.0001) DIAGSTATS_SET_POINTERS: done, use      98 levels (diagSt_size=     150 )
(PID.TID 0000.0001) ------------------------------------------------------------
(PID.TID 0000.0001) INI_GLOBAL_DOMAIN: Found  19 CS-corner Pts in the domain
(PID.TID 0000.0001)  MDS_READ_FIELD: opening global file: geopotanom.bin
(PID.TID 0000.0001) %MON fCori_max                    =   1.4574827780704E-04
(PID.TID 0000.0001) %MON fCori_min                    =  -1.4574827780704E-04
(PID.TID 0000.0001) %MON fCori_mean                   =   3.3881317890172E-21
(PID.TID 0000.0001) %MON fCori_sd                     =   8.4202189509968E-05
(PID.TID 0000.0001) %MON fCoriG_max                   =   1.4584247033981E-04
(PID.TID 0000.0001) %MON fCoriG_min                   =  -1.4584247033981E-04
(PID.TID 0000.0001) %MON fCoriG_mean                  =  -1.6940658945086E-20
(PID.TID 0000.0001) %MON fCoriG_sd                    =   8.4202189509968E-05
(PID.TID 0000.0001) %MON fCoriCos_max                 =   1.4580166994612E-04
(PID.TID 0000.0001) %MON fCoriCos_min                 =   5.2407700865903E-06
(PID.TID 0000.0001) %MON fCoriCos_mean                =   1.1514045869113E-04
(PID.TID 0000.0001) %MON fCoriCos_sd                  =   3.0375849106513E-05
(PID.TID 0000.0001) INI_CG2D: CG2D normalisation factor =  1.8867235104620207E-08
(PID.TID 0000.0001) 
(PID.TID 0000.0001) // =======================================================
(PID.TID 0000.0001) // Model configuration
(PID.TID 0000.0001) // =======================================================
(PID.TID 0000.0001) //
(PID.TID 0000.0001) // "Physical" paramters ( PARM01 in namelist )
(PID.TID 0000.0001) //
(PID.TID 0000.0001) buoyancyRelation = /* Type of relation to get Buoyancy */
(PID.TID 0000.0001)               'OCEANICP'
(PID.TID 0000.0001)     ;
(PID.TID 0000.0001) fluidIsAir   =  /* fluid major constituent is Air */
(PID.TID 0000.0001)                   F
(PID.TID 0000.0001)     ;
(PID.TID 0000.0001) fluidIsWater =  /* fluid major constituent is Water */
(PID.TID 0000.0001)                   T
(PID.TID 0000.0001)     ;
(PID.TID 0000.0001) usingPCoords =  /* use p (or p*) vertical coordinate */
(PID.TID 0000.0001)                   T
(PID.TID 0000.0001)     ;
(PID.TID 0000.0001) usingZCoords =  /* use z (or z*) vertical coordinate */
(PID.TID 0000.0001)                   F
(PID.TID 0000.0001)     ;
(PID.TID 0000.0001) tRef =   /* Reference temperature profile ( oC or K ) */
(PID.TID 0000.0001)    15 @  2.000000000000000E+01              /* K =  1: 15 */
(PID.TID 0000.0001)     ;
(PID.TID 0000.0001) sRef =   /* Reference salinity profile ( g/kg ) */
(PID.TID 0000.0001)    15 @  3.500000000000000E+01              /* K =  1: 15 */
(PID.TID 0000.0001)     ;
(PID.TID 0000.0001) rhoRef =   /* Density vertical profile from (Ref,sRef)( kg/m^3 ) */
(PID.TID 0000.0001)                 1.044895640658648E+03,      /* K =  1 */
(PID.TID 0000.0001)                 1.042222945460131E+03,      /* K =  2 */
(PID.TID 0000.0001)                 1.039723015524166E+03,      /* K =  3 */
(PID.TID 0000.0001)                 1.037402117393911E+03,      /* K =  4 */
(PID.TID 0000.0001)                 1.035266158892901E+03,      /* K =  5 */
(PID.TID 0000.0001)                 1.033320638790942E+03,      /* K =  6 */
(PID.TID 0000.0001)                 1.031570708097782E+03,      /* K =  7 */
(PID.TID 0000.0001)                 1.030021025792592E+03,      /* K =  8 */
(PID.TID 0000.0001)                 1.028675664591726E+03,      /* K =  9 */
(PID.TID 0000.0001)                 1.027538164561073E+03,      /* K = 10 */
(PID.TID 0000.0001)                 1.026611498879415E+03,      /* K = 11 */
(PID.TID 0000.0001)                 1.025898077319062E+03,      /* K = 12 */
(PID.TID 0000.0001)                 1.025378084889753E+03,      /* K = 13 */
(PID.TID 0000.0001)                 1.025009296639647E+03,      /* K = 14 */
(PID.TID 0000.0001)                 1.024748831561851E+03       /* K = 15 */
(PID.TID 0000.0001)     ;
(PID.TID 0000.0001) dBdrRef = /* Vertical grad. of reference buoyancy [(m/s/r)^2] */
(PID.TID 0000.0001)    15 @  0.000000000000000E+00              /* K =  1: 15 */
(PID.TID 0000.0001)     ;
(PID.TID 0000.0001) useStrainTensionVisc= /* Use StrainTension Form of Viscous Operator */
(PID.TID 0000.0001)                   F
(PID.TID 0000.0001)     ;
(PID.TID 0000.0001) useVariableVisc = /* Use variable horizontal viscosity */
(PID.TID 0000.0001)                   F
(PID.TID 0000.0001)     ;
(PID.TID 0000.0001) useHarmonicVisc = /* Use harmonic horizontal viscosity */
(PID.TID 0000.0001)                   T
(PID.TID 0000.0001)     ;
(PID.TID 0000.0001) useBiharmonicVisc= /* Use biharmonic horiz.  viscosity */
(PID.TID 0000.0001)                   F
(PID.TID 0000.0001)     ;
(PID.TID 0000.0001) useSmag3D = /* Use isotropic 3-D Smagorinsky viscosity */
(PID.TID 0000.0001)                   F
(PID.TID 0000.0001)     ;
(PID.TID 0000.0001) viscAh  =   /* Lateral harmonic viscosity ( m^2/s ) */
(PID.TID 0000.0001)                 3.000000000000000E+05
(PID.TID 0000.0001)     ;
(PID.TID 0000.0001) viscA4  =   /* Lateral biharmonic viscosity ( m^4/s ) */
(PID.TID 0000.0001)                 0.000000000000000E+00
(PID.TID 0000.0001)     ;
(PID.TID 0000.0001) no_slip_sides =  /* Viscous BCs: No-slip sides */
(PID.TID 0000.0001)                   T
(PID.TID 0000.0001)     ;
(PID.TID 0000.0001) sideDragFactor = /* side-drag scaling factor (non-dim) */
(PID.TID 0000.0001)                 2.000000000000000E+00
(PID.TID 0000.0001)     ;
(PID.TID 0000.0001) viscArNr = /* vertical profile of vertical viscosity (Pa^2/s )*/
(PID.TID 0000.0001)    15 @  0.000000000000000E+00              /* K =  1: 15 */
(PID.TID 0000.0001)     ;
(PID.TID 0000.0001) no_slip_bottom =  /* Viscous BCs: No-slip bottom */
(PID.TID 0000.0001)                   T
(PID.TID 0000.0001)     ;
(PID.TID 0000.0001) bottomVisc_pCell = /* Partial-cell in bottom Visc. BC */
(PID.TID 0000.0001)                   F
(PID.TID 0000.0001)     ;
(PID.TID 0000.0001) bottomDragLinear = /* linear bottom-drag coefficient ( m/s ) */
(PID.TID 0000.0001)                 0.000000000000000E+00
(PID.TID 0000.0001)     ;
(PID.TID 0000.0001) bottomDragQuadratic = /* quadratic bottom-drag coefficient (-) */
(PID.TID 0000.0001)                 0.000000000000000E+00
(PID.TID 0000.0001)     ;
(PID.TID 0000.0001) selectBotDragQuadr = /* select quadratic bottom drag options */
(PID.TID 0000.0001)                      -1
(PID.TID 0000.0001)     ;
(PID.TID 0000.0001) diffKhT =   /* Laplacian diffusion of heat laterally ( m^2/s ) */
(PID.TID 0000.0001)                 0.000000000000000E+00
(PID.TID 0000.0001)     ;
(PID.TID 0000.0001) diffK4T =   /* Biharmonic diffusion of heat laterally ( m^4/s ) */
(PID.TID 0000.0001)                 0.000000000000000E+00
(PID.TID 0000.0001)     ;
(PID.TID 0000.0001) diffKhS =   /* Laplacian diffusion of salt laterally ( m^2/s ) */
(PID.TID 0000.0001)                 0.000000000000000E+00
(PID.TID 0000.0001)     ;
(PID.TID 0000.0001) diffK4S =   /* Biharmonic diffusion of salt laterally ( m^4/s ) */
(PID.TID 0000.0001)                 0.000000000000000E+00
(PID.TID 0000.0001)     ;
(PID.TID 0000.0001) diffKrNrT = /* vertical profile of vertical diffusion of Temp (Pa^2/s )*/
(PID.TID 0000.0001)    15 @  0.000000000000000E+00              /* K =  1: 15 */
(PID.TID 0000.0001)     ;
(PID.TID 0000.0001) diffKrNrS = /* vertical profile of vertical diffusion of Salt (Pa^2/s )*/
(PID.TID 0000.0001)    15 @  0.000000000000000E+00              /* K =  1: 15 */
(PID.TID 0000.0001)     ;
(PID.TID 0000.0001) diffKrBL79surf = /* Surface diffusion for Bryan and Lewis 79 ( m^2/s ) */
(PID.TID 0000.0001)                 0.000000000000000E+00
(PID.TID 0000.0001)     ;
(PID.TID 0000.0001) diffKrBL79deep = /* Deep diffusion for Bryan and Lewis 1979 ( m^2/s ) */
(PID.TID 0000.0001)                 0.000000000000000E+00
(PID.TID 0000.0001)     ;
(PID.TID 0000.0001) diffKrBL79scl = /* Depth scale for Bryan and Lewis 1979 ( m ) */
(PID.TID 0000.0001)                 2.000000000000000E+02
(PID.TID 0000.0001)     ;
(PID.TID 0000.0001) diffKrBL79Ho = /* Turning depth for Bryan and Lewis 1979 ( m ) */
(PID.TID 0000.0001)                -2.000000000000000E+03
(PID.TID 0000.0001)     ;
(PID.TID 0000.0001) ivdc_kappa = /* Implicit Vertical Diffusivity for Convection (Pa^2/s) */
(PID.TID 0000.0001)                 1.030905162225000E+08
(PID.TID 0000.0001)     ;
(PID.TID 0000.0001) hMixCriteria=  /* Criteria for mixed-layer diagnostic */
(PID.TID 0000.0001)                -8.000000000000000E-01
(PID.TID 0000.0001)     ;
(PID.TID 0000.0001) dRhoSmall =  /* Parameter for mixed-layer diagnostic */
(PID.TID 0000.0001)                 1.000000000000000E-06
(PID.TID 0000.0001)     ;
(PID.TID 0000.0001) hMixSmooth=  /* Smoothing parameter for mixed-layer diagnostic */
(PID.TID 0000.0001)                 0.000000000000000E+00
(PID.TID 0000.0001)     ;
(PID.TID 0000.0001) eosType =  /* Type of Equation of State */
(PID.TID 0000.0001)               'TEOS10'
(PID.TID 0000.0001)     ;
(PID.TID 0000.0001) eosRefP0 = /* Reference atmospheric pressure for EOS ( Pa ) */
(PID.TID 0000.0001)                 1.013250000000000E+05
(PID.TID 0000.0001)     ;
(PID.TID 0000.0001) surf_pRef = /* Surface reference pressure ( Pa ) */
(PID.TID 0000.0001)                 1.013250000000000E+05
(PID.TID 0000.0001)     ;
(PID.TID 0000.0001) HeatCapacity_Cp =  /* Specific heat capacity ( J/kg/K ) */
(PID.TID 0000.0001)                 3.994000000000000E+03
(PID.TID 0000.0001)     ;
(PID.TID 0000.0001) celsius2K = /* 0 degree Celsius converted to Kelvin ( K ) */
(PID.TID 0000.0001)                 2.731500000000000E+02
(PID.TID 0000.0001)     ;
(PID.TID 0000.0001) rhoConst  = /* Reference density (Boussinesq)  ( kg/m^3 ) */
(PID.TID 0000.0001)                 1.035000000000000E+03
(PID.TID 0000.0001)     ;
(PID.TID 0000.0001) rhoFacC = /* normalized Reference density @ cell-Center (-) */
(PID.TID 0000.0001)    15 @  1.000000000000000E+00              /* K =  1: 15 */
(PID.TID 0000.0001)     ;
(PID.TID 0000.0001) rhoFacF = /* normalized Reference density @ W-Interface (-) */
(PID.TID 0000.0001)    16 @  1.000000000000000E+00              /* K =  1: 16 */
(PID.TID 0000.0001)     ;
(PID.TID 0000.0001) rhoConstFresh = /* Fresh-water reference density ( kg/m^3 ) */
(PID.TID 0000.0001)                 1.000000000000000E+03
(PID.TID 0000.0001)     ;
(PID.TID 0000.0001) gravity =   /* Gravitational acceleration ( m/s^2 ) */
(PID.TID 0000.0001)                 9.810000000000000E+00
(PID.TID 0000.0001)     ;
(PID.TID 0000.0001) gBaro =   /* Barotropic gravity ( m/s^2 ) */
(PID.TID 0000.0001)                 9.810000000000000E+00
(PID.TID 0000.0001)     ;
(PID.TID 0000.0001) gravFacC = /* gravity factor (vs surf.) @ cell-Center (-) */
(PID.TID 0000.0001)    15 @  1.000000000000000E+00              /* K =  1: 15 */
(PID.TID 0000.0001)     ;
(PID.TID 0000.0001) gravFacF = /* gravity factor (vs surf.) @ W-Interface (-) */
(PID.TID 0000.0001)    16 @  1.000000000000000E+00              /* K =  1: 16 */
(PID.TID 0000.0001)     ;
(PID.TID 0000.0001) rotationPeriod =   /* Rotation Period ( s ) */
(PID.TID 0000.0001)                 8.616400000000000E+04
(PID.TID 0000.0001)     ;
(PID.TID 0000.0001) omega =   /* Angular velocity ( rad/s ) */
(PID.TID 0000.0001)                 7.292123516990375E-05
(PID.TID 0000.0001)     ;
(PID.TID 0000.0001) f0 =   /* Reference coriolis parameter ( 1/s ) */
(PID.TID 0000.0001)                 1.000000000000000E-04
(PID.TID 0000.0001)     ;
(PID.TID 0000.0001) beta =   /* Beta ( 1/(m.s) ) */
(PID.TID 0000.0001)                 9.999999999999999E-12
(PID.TID 0000.0001)     ;
(PID.TID 0000.0001) fPrime =   /* Second coriolis parameter ( 1/s ) */
(PID.TID 0000.0001)                 0.000000000000000E+00
(PID.TID 0000.0001)     ;
(PID.TID 0000.0001) rigidLid =   /* Rigid lid on/off flag */
(PID.TID 0000.0001)                   F
(PID.TID 0000.0001)     ;
(PID.TID 0000.0001) implicitFreeSurface =   /* Implicit free surface on/off flag */
(PID.TID 0000.0001)                   T
(PID.TID 0000.0001)     ;
(PID.TID 0000.0001) freeSurfFac =   /* Implicit free surface factor */
(PID.TID 0000.0001)                 1.000000000000000E+00
(PID.TID 0000.0001)     ;
(PID.TID 0000.0001) implicSurfPress =  /* Surface Pressure implicit factor (0-1) */
(PID.TID 0000.0001)                 1.000000000000000E+00
(PID.TID 0000.0001)     ;
(PID.TID 0000.0001) implicDiv2DFlow =  /* Barot. Flow Div. implicit factor (0-1) */
(PID.TID 0000.0001)                 1.000000000000000E+00
(PID.TID 0000.0001)     ;
(PID.TID 0000.0001) uniformLin_PhiSurf = /* use uniform Bo_surf on/off flag */
(PID.TID 0000.0001)                   T
(PID.TID 0000.0001)     ;
(PID.TID 0000.0001) uniformFreeSurfLev = /* free-surface level-index is uniform */
(PID.TID 0000.0001)                   F
(PID.TID 0000.0001)     ;
(PID.TID 0000.0001) sIceLoadFac =  /* scale factor for sIceLoad (0-1) */
(PID.TID 0000.0001)                 1.000000000000000E+00
(PID.TID 0000.0001)     ;
(PID.TID 0000.0001) hFacMin =   /* minimum partial cell factor (hFac) */
(PID.TID 0000.0001)                 1.000000000000000E-01
(PID.TID 0000.0001)     ;
(PID.TID 0000.0001) hFacMinDr = /* minimum partial cell thickness (Pa) */
(PID.TID 0000.0001)                 2.030670000000000E+05
(PID.TID 0000.0001)     ;
(PID.TID 0000.0001) exactConserv =  /* Exact Volume Conservation on/off flag */
(PID.TID 0000.0001)                   T
(PID.TID 0000.0001)     ;
(PID.TID 0000.0001) linFSConserveTr = /* Tracer correction for Lin Free Surface on/off flag */
(PID.TID 0000.0001)                   F
(PID.TID 0000.0001)     ;
(PID.TID 0000.0001) nonlinFreeSurf = /* Non-linear Free Surf. options (-1,0,1,2,3)*/
(PID.TID 0000.0001)                       4
(PID.TID 0000.0001)      -1,0= Off ; 1,2,3= On, 2=+rescale gU,gV, 3=+update cg2d solv.
(PID.TID 0000.0001)     ;
(PID.TID 0000.0001) hFacInf =   /* lower threshold for hFac (nonlinFreeSurf only)*/
(PID.TID 0000.0001)                 2.000000000000000E-01
(PID.TID 0000.0001)     ;
(PID.TID 0000.0001) hFacSup =   /* upper threshold for hFac (nonlinFreeSurf only)*/
(PID.TID 0000.0001)                 2.000000000000000E+00
(PID.TID 0000.0001)     ;
(PID.TID 0000.0001) select_rStar = /* r* Vertical coord. options (=0 r coord.; >0 uses r*)*/
(PID.TID 0000.0001)                       2
(PID.TID 0000.0001)     ;
(PID.TID 0000.0001) useRealFreshWaterFlux = /* Real Fresh Water Flux on/off flag*/
(PID.TID 0000.0001)                   T
(PID.TID 0000.0001)     ;
(PID.TID 0000.0001) temp_EvPrRn = /* Temp. of Evap/Prec/R (UNSET=use local T)(oC)*/
(PID.TID 0000.0001)                 1.234567000000000E+05
(PID.TID 0000.0001)     ;
(PID.TID 0000.0001) salt_EvPrRn = /* Salin. of Evap/Prec/R (UNSET=use local S)(g/kg)*/
(PID.TID 0000.0001)                 0.000000000000000E+00
(PID.TID 0000.0001)     ;
(PID.TID 0000.0001) selectAddFluid = /* option for mass source/sink of fluid (=0: off) */
(PID.TID 0000.0001)                       0
(PID.TID 0000.0001)     ;
(PID.TID 0000.0001) temp_addMass = /* Temp. of addMass array (UNSET=use local T)(oC)*/
(PID.TID 0000.0001)                 1.234567000000000E+05
(PID.TID 0000.0001)     ;
(PID.TID 0000.0001) salt_addMass = /* Salin. of addMass array (UNSET=use local S)(g/kg)*/
(PID.TID 0000.0001)                 0.000000000000000E+00
(PID.TID 0000.0001)     ;
(PID.TID 0000.0001) use3Dsolver = /* use 3-D pressure solver on/off flag */
(PID.TID 0000.0001)                   F
(PID.TID 0000.0001)     ;
(PID.TID 0000.0001) nonHydrostatic =  /* Non-Hydrostatic on/off flag */
(PID.TID 0000.0001)                   F
(PID.TID 0000.0001)     ;
(PID.TID 0000.0001) nh_Am2 = /* Non-Hydrostatic terms scaling factor */
(PID.TID 0000.0001)                 1.000000000000000E+00
(PID.TID 0000.0001)     ;
(PID.TID 0000.0001) implicitNHPress = /* Non-Hyd Pressure implicit factor (0-1)*/
(PID.TID 0000.0001)                 1.000000000000000E+00
(PID.TID 0000.0001)     ;
(PID.TID 0000.0001) selectNHfreeSurf = /* Non-Hyd (free-)Surface option */
(PID.TID 0000.0001)                       0
(PID.TID 0000.0001)     ;
(PID.TID 0000.0001) quasiHydrostatic = /* Quasi-Hydrostatic on/off flag */
(PID.TID 0000.0001)                   F
(PID.TID 0000.0001)     ;
(PID.TID 0000.0001) calc_wVelocity = /* vertical velocity calculation on/off flag */
(PID.TID 0000.0001)                   T
(PID.TID 0000.0001)     ;
(PID.TID 0000.0001) momStepping =  /* Momentum equation on/off flag */
(PID.TID 0000.0001)                   T
(PID.TID 0000.0001)     ;
(PID.TID 0000.0001) vectorInvariantMomentum= /* Vector-Invariant Momentum on/off */
(PID.TID 0000.0001)                   T
(PID.TID 0000.0001)     ;
(PID.TID 0000.0001) momAdvection =  /* Momentum advection on/off flag */
(PID.TID 0000.0001)                   T
(PID.TID 0000.0001)     ;
(PID.TID 0000.0001) momViscosity =  /* Momentum viscosity on/off flag */
(PID.TID 0000.0001)                   T
(PID.TID 0000.0001)     ;
(PID.TID 0000.0001) momImplVertAdv= /* Momentum implicit vert. advection on/off*/
(PID.TID 0000.0001)                   F
(PID.TID 0000.0001)     ;
(PID.TID 0000.0001) implicitViscosity = /* Implicit viscosity on/off flag */
(PID.TID 0000.0001)                   T
(PID.TID 0000.0001)     ;
(PID.TID 0000.0001) selectImplicitDrag= /* Implicit bot Drag options (0,1,2)*/
(PID.TID 0000.0001)                       0
(PID.TID 0000.0001)     0= Expl. ; 1= Impl. on provis. Vel ; 2= Fully Impl (with surf.P)
(PID.TID 0000.0001)     ;
(PID.TID 0000.0001) useNHMTerms = /* Non-Hydrostatic Metric-Terms on/off */
(PID.TID 0000.0001)                   F
(PID.TID 0000.0001)     ;
(PID.TID 0000.0001) useCoriolis =  /* Coriolis on/off flag */
(PID.TID 0000.0001)                   T
(PID.TID 0000.0001)     ;
(PID.TID 0000.0001) useCDscheme =  /* CD scheme on/off flag */
(PID.TID 0000.0001)                   F
(PID.TID 0000.0001)     ;
(PID.TID 0000.0001) selectCoriMap = /* Coriolis Map options (0,1,2,3)*/
(PID.TID 0000.0001)                       2
(PID.TID 0000.0001)     0= f-Plane ; 1= Beta-Plane ; 2= Spherical ; 3= read from file
(PID.TID 0000.0001)     ;
(PID.TID 0000.0001) select3dCoriScheme= /* Scheme selector for 3-D Coriolis-Term */
(PID.TID 0000.0001)                       0
(PID.TID 0000.0001)    = 0 : Off (ignore 3-D Coriolis Terms in Omega.Cos(Lat) )
(PID.TID 0000.0001)    = 1 : original discretization ; = 2 : using averaged Transport
(PID.TID 0000.0001)    = 3 : same as 2 with hFac in gW_Cor
(PID.TID 0000.0001)     ;
(PID.TID 0000.0001) selectCoriScheme= /* Scheme selector for Coriolis-Term */
(PID.TID 0000.0001)                       0
(PID.TID 0000.0001)    = 0 : original discretization (simple averaging, no hFac)
(PID.TID 0000.0001)    = 1 : Wet-point averaging (Jamar & Ozer 1986)
(PID.TID 0000.0001)    = 2 : hFac weighted average (Angular Mom. conserving)
(PID.TID 0000.0001)    = 3 : energy conserving scheme using hFac weighted average
(PID.TID 0000.0001)     ;
(PID.TID 0000.0001) useAbsVorticity= /* V.I Works with f+zeta in Coriolis */
(PID.TID 0000.0001)                   F
(PID.TID 0000.0001)     ;
(PID.TID 0000.0001) selectVortScheme= /* V.I Scheme selector for Vorticity-Term */
(PID.TID 0000.0001)                       1
(PID.TID 0000.0001)    = 0 : enstrophy (Shallow-Water Eq.) conserving scheme by Sadourny, JAS 75
(PID.TID 0000.0001)    = 1 : same as 0 with modified hFac
(PID.TID 0000.0001)    = 2 : energy conserving scheme (used by Sadourny in JAS 75 paper)
(PID.TID 0000.0001)    = 3 : energy (general) and enstrophy (2D, nonDiv.) conserving scheme
(PID.TID 0000.0001)          from Sadourny (Burridge & Haseler, ECMWF Rep.4, 1977)
(PID.TID 0000.0001)    = 4 : shift 1/hFac from Vorticity to gU,gV tend. (Ang.Mom. conserving)
(PID.TID 0000.0001)     ;
(PID.TID 0000.0001) useJamartMomAdv= /* V.I Non-linear terms Jamart flag */
(PID.TID 0000.0001)                   F
(PID.TID 0000.0001)     ;
(PID.TID 0000.0001) upwindVorticity= /* V.I Upwind bias vorticity flag */
(PID.TID 0000.0001)                   F
(PID.TID 0000.0001)     ;
(PID.TID 0000.0001) highOrderVorticity= /* V.I High order vort. advect. flag */
(PID.TID 0000.0001)                   F
(PID.TID 0000.0001)     ;
(PID.TID 0000.0001) upwindShear= /* V.I Upwind vertical Shear advection flag */
(PID.TID 0000.0001)                   F
(PID.TID 0000.0001)     ;
(PID.TID 0000.0001) selectKEscheme= /* V.I Kinetic Energy scheme selector */
(PID.TID 0000.0001)                       0
(PID.TID 0000.0001)     ;
(PID.TID 0000.0001) momForcing =  /* Momentum forcing on/off flag */
(PID.TID 0000.0001)                   T
(PID.TID 0000.0001)     ;
(PID.TID 0000.0001) momTidalForcing = /* Momentum Tidal forcing on/off flag */
(PID.TID 0000.0001)                   T
(PID.TID 0000.0001)     ;
(PID.TID 0000.0001) momPressureForcing =  /* Momentum pressure term on/off flag */
(PID.TID 0000.0001)                   T
(PID.TID 0000.0001)     ;
(PID.TID 0000.0001) implicitIntGravWave= /* Implicit Internal Gravity Wave flag */
(PID.TID 0000.0001)                   F
(PID.TID 0000.0001)     ;
(PID.TID 0000.0001) staggerTimeStep =    /* Stagger time stepping on/off flag */
(PID.TID 0000.0001)                   T
(PID.TID 0000.0001)     ;
(PID.TID 0000.0001) doResetHFactors = /* reset thickness factors @ each time-step */
(PID.TID 0000.0001)                   T
(PID.TID 0000.0001)     ;
(PID.TID 0000.0001) multiDimAdvection =  /* enable/disable Multi-Dim Advection */
(PID.TID 0000.0001)                   T
(PID.TID 0000.0001)     ;
(PID.TID 0000.0001) useMultiDimAdvec =   /* Multi-Dim Advection is/is-not used */
(PID.TID 0000.0001)                   F
(PID.TID 0000.0001)     ;
(PID.TID 0000.0001) implicitDiffusion = /* Implicit Diffusion on/off flag */
(PID.TID 0000.0001)                   T
(PID.TID 0000.0001)     ;
(PID.TID 0000.0001) tempStepping =  /* Temperature equation on/off flag */
(PID.TID 0000.0001)                   T
(PID.TID 0000.0001)     ;
(PID.TID 0000.0001) tempAdvection = /* Temperature advection on/off flag */
(PID.TID 0000.0001)                   T
(PID.TID 0000.0001)     ;
(PID.TID 0000.0001) tempImplVertAdv = /* Temp. implicit vert. advection on/off */
(PID.TID 0000.0001)                   F
(PID.TID 0000.0001)     ;
(PID.TID 0000.0001) tempForcing  =  /* Temperature forcing on/off flag */
(PID.TID 0000.0001)                   T
(PID.TID 0000.0001)     ;
(PID.TID 0000.0001) balanceQnet  =  /* balance net heat-flux on/off flag */
(PID.TID 0000.0001)                   F
(PID.TID 0000.0001)     ;
(PID.TID 0000.0001) doThetaClimRelax = /* apply SST relaxation on/off flag */
(PID.TID 0000.0001)                   F
(PID.TID 0000.0001)     ;
(PID.TID 0000.0001) balanceThetaClimRelax= /* balance SST relaxation on/off flag */
(PID.TID 0000.0001)                   F
(PID.TID 0000.0001)     ;
(PID.TID 0000.0001) tempIsActiveTr = /* Temp. is a dynamically Active Tracer */
(PID.TID 0000.0001)                   T
(PID.TID 0000.0001)     ;
(PID.TID 0000.0001) saltStepping =  /* Salinity equation on/off flag */
(PID.TID 0000.0001)                   T
(PID.TID 0000.0001)     ;
(PID.TID 0000.0001) saltAdvection = /* Salinity advection on/off flag */
(PID.TID 0000.0001)                   T
(PID.TID 0000.0001)     ;
(PID.TID 0000.0001) saltImplVertAdv = /* Sali. implicit vert. advection on/off */
(PID.TID 0000.0001)                   F
(PID.TID 0000.0001)     ;
(PID.TID 0000.0001) saltForcing  =  /* Salinity forcing on/off flag */
(PID.TID 0000.0001)                   T
(PID.TID 0000.0001)     ;
(PID.TID 0000.0001) selectPenetratingSW = /* short wave penetration selector */
(PID.TID 0000.0001)                       1
(PID.TID 0000.0001)     ;
(PID.TID 0000.0001) selectBalanceEmPmR = /* balancing glob.mean EmPmR selector */
(PID.TID 0000.0001)                       0
(PID.TID 0000.0001)     ;
(PID.TID 0000.0001) doSaltClimRelax = /* apply SSS relaxation on/off flag */
(PID.TID 0000.0001)                   F
(PID.TID 0000.0001)     ;
(PID.TID 0000.0001) balanceSaltClimRelax= /* balance SSS relaxation on/off flag */
(PID.TID 0000.0001)                   F
(PID.TID 0000.0001)     ;
(PID.TID 0000.0001) saltIsActiveTr = /* Salt  is a dynamically Active Tracer */
(PID.TID 0000.0001)                   T
(PID.TID 0000.0001)     ;
(PID.TID 0000.0001)  readBinaryPrec = /* Precision used for reading binary files */
(PID.TID 0000.0001)                      64
(PID.TID 0000.0001)     ;
(PID.TID 0000.0001) writeBinaryPrec = /* Precision used for writing binary files */
(PID.TID 0000.0001)                      64
(PID.TID 0000.0001)     ;
(PID.TID 0000.0001) balancePrintMean = /* print means for balancing fluxes */
(PID.TID 0000.0001)                   F
(PID.TID 0000.0001)     ;
(PID.TID 0000.0001)  rwSuffixType =   /* select format of mds file suffix */
(PID.TID 0000.0001)                       0
(PID.TID 0000.0001)    = 0 : myIter (I10.10) ;   = 1 : 100*myTime (100th sec) ;
(PID.TID 0000.0001)    = 2 : myTime (seconds);   = 3 : myTime/360 (10th of hr);
(PID.TID 0000.0001)    = 4 : myTime/3600 (hours)
(PID.TID 0000.0001)     ;
(PID.TID 0000.0001)  globalFiles = /* write "global" (=not per tile) files */
(PID.TID 0000.0001)                   F
(PID.TID 0000.0001)     ;
(PID.TID 0000.0001)  useSingleCpuIO = /* only master MPI process does I/O */
(PID.TID 0000.0001)                   T
(PID.TID 0000.0001)     ;
(PID.TID 0000.0001)  useSingleCpuInput = /* only master process reads input */
(PID.TID 0000.0001)                   T
(PID.TID 0000.0001)     ;
(PID.TID 0000.0001) /* debLev[*]  : level of debug & auxiliary message printing */
(PID.TID 0000.0001) debLevZero =  0 ; /* level of disabled aux. msg printing */
(PID.TID 0000.0001)    debLevA =  1 ; /* level of minimum  aux. msg printing */
(PID.TID 0000.0001)    debLevB =  2 ; /* level of low aux. print (report read-file opening)*/
(PID.TID 0000.0001)    debLevC =  3 ; /* level of moderate debug prt (most pkgs debug msg) */
(PID.TID 0000.0001)    debLevD =  4 ; /* level of enhanced debug prt (add DEBUG_STATS prt) */
(PID.TID 0000.0001)    debLevE =  5 ; /* level of extensive debug printing */
(PID.TID 0000.0001) debugLevel =  /* select debug printing level */
(PID.TID 0000.0001)                       2
(PID.TID 0000.0001)     ;
(PID.TID 0000.0001)  plotLevel =  /* select PLOT_FIELD printing level */
(PID.TID 0000.0001)                       0
(PID.TID 0000.0001)     ;
(PID.TID 0000.0001) //
(PID.TID 0000.0001) // Elliptic solver(s) paramters ( PARM02 in namelist )
(PID.TID 0000.0001) //
(PID.TID 0000.0001) cg2dMaxIters =   /* Upper limit on 2d con. grad iterations  */
(PID.TID 0000.0001)                     200
(PID.TID 0000.0001)     ;
(PID.TID 0000.0001) cg2dMinItersNSA =   /* Minimum number of iterations of 2d con. grad solver  */
(PID.TID 0000.0001)                       0
(PID.TID 0000.0001)     ;
(PID.TID 0000.0001) cg2dUseMinResSol= /* use cg2d last-iter(=0) / min-resid.(=1) solution */
(PID.TID 0000.0001)                       0
(PID.TID 0000.0001)     ;
(PID.TID 0000.0001) cg2dTargetResidual =   /* 2d con. grad target residual  */
(PID.TID 0000.0001)                 1.000000000000000E-09
(PID.TID 0000.0001)     ;
(PID.TID 0000.0001) cg2dTargetResWunit =   /* CG2d target residual [W units] */
(PID.TID 0000.0001)                -1.000000000000000E+00
(PID.TID 0000.0001)     ;
(PID.TID 0000.0001) cg2dPreCondFreq =   /* Freq. for updating cg2d preconditioner */
(PID.TID 0000.0001)                       1
(PID.TID 0000.0001)     ;
(PID.TID 0000.0001) useSRCGSolver =  /* use single reduction CG solver(s) */
(PID.TID 0000.0001)                   F
(PID.TID 0000.0001)     ;
(PID.TID 0000.0001) useNSACGSolver =  /* use not-self-adjoint CG solver */
(PID.TID 0000.0001)                   F
(PID.TID 0000.0001)     ;
(PID.TID 0000.0001) printResidualFreq = /* Freq. for printing CG residual */
(PID.TID 0000.0001)                      -1
(PID.TID 0000.0001)     ;
(PID.TID 0000.0001) //
(PID.TID 0000.0001) // Time stepping paramters ( PARM03 in namelist )
(PID.TID 0000.0001) //
(PID.TID 0000.0001) deltaTMom =   /* Momentum equation timestep ( s ) */
(PID.TID 0000.0001)                 1.200000000000000E+03
(PID.TID 0000.0001)     ;
(PID.TID 0000.0001) deltaTFreeSurf = /* FreeSurface equation timestep ( s ) */
(PID.TID 0000.0001)                 8.640000000000000E+04
(PID.TID 0000.0001)     ;
(PID.TID 0000.0001) dTtracerLev =  /* Tracer equation timestep ( s ) */
(PID.TID 0000.0001)    15 @  8.640000000000000E+04              /* K =  1: 15 */
(PID.TID 0000.0001)     ;
(PID.TID 0000.0001) deltaTClock  =   /* Model clock timestep ( s ) */
(PID.TID 0000.0001)                 8.640000000000000E+04
(PID.TID 0000.0001)     ;
(PID.TID 0000.0001) cAdjFreq =   /* Convective adjustment interval ( s ) */
(PID.TID 0000.0001)                 0.000000000000000E+00
(PID.TID 0000.0001)     ;
(PID.TID 0000.0001) momForcingOutAB = /* =1: take Momentum Forcing out of Adams-Bash. stepping */
(PID.TID 0000.0001)                       1
(PID.TID 0000.0001)     ;
(PID.TID 0000.0001) tracForcingOutAB = /* =1: take T,S,pTr Forcing out of Adams-Bash. stepping */
(PID.TID 0000.0001)                       1
(PID.TID 0000.0001)     ;
(PID.TID 0000.0001) momDissip_In_AB = /* put Dissipation Tendency in Adams-Bash. stepping */
(PID.TID 0000.0001)                   T
(PID.TID 0000.0001)     ;
(PID.TID 0000.0001) doAB_onGtGs = /* apply AB on Tendencies (rather than on T,S)*/
(PID.TID 0000.0001)                   T
(PID.TID 0000.0001)     ;
(PID.TID 0000.0001) abEps =   /* Adams-Bashforth-2 stabilizing weight */
(PID.TID 0000.0001)                 1.000000000000000E-01
(PID.TID 0000.0001)     ;
(PID.TID 0000.0001) applyExchUV_early = /* Apply EXCH to U,V earlier in time-step */
(PID.TID 0000.0001)                   F
(PID.TID 0000.0001)     ;
(PID.TID 0000.0001) pickupStrictlyMatch= /* stop if pickup do not strictly match */
(PID.TID 0000.0001)                   T
(PID.TID 0000.0001)     ;
(PID.TID 0000.0001) nIter0   =   /* Run starting timestep number */
(PID.TID 0000.0001)                       0
(PID.TID 0000.0001)     ;
(PID.TID 0000.0001) nTimeSteps = /* Number of timesteps */
(PID.TID 0000.0001)                      10
(PID.TID 0000.0001)     ;
(PID.TID 0000.0001) nEndIter =   /* Run ending timestep number */
(PID.TID 0000.0001)                      10
(PID.TID 0000.0001)     ;
(PID.TID 0000.0001) baseTime =   /* Model base time ( s ) */
(PID.TID 0000.0001)                 0.000000000000000E+00
(PID.TID 0000.0001)     ;
(PID.TID 0000.0001) startTime =  /* Run start time ( s ) */
(PID.TID 0000.0001)                 0.000000000000000E+00
(PID.TID 0000.0001)     ;
(PID.TID 0000.0001) endTime  =   /* Integration ending time ( s ) */
(PID.TID 0000.0001)                 8.640000000000000E+05
(PID.TID 0000.0001)     ;
(PID.TID 0000.0001) pChkPtFreq = /* Permanent restart/pickup file interval ( s ) */
(PID.TID 0000.0001)                 3.110400000000000E+09
(PID.TID 0000.0001)     ;
(PID.TID 0000.0001) chkPtFreq  = /* Rolling restart/pickup file interval ( s ) */
(PID.TID 0000.0001)                 1.555200000000000E+08
(PID.TID 0000.0001)     ;
(PID.TID 0000.0001) pickup_write_mdsio =   /* Model IO flag. */
(PID.TID 0000.0001)                   T
(PID.TID 0000.0001)     ;
(PID.TID 0000.0001) pickup_read_mdsio =   /* Model IO flag. */
(PID.TID 0000.0001)                   T
(PID.TID 0000.0001)     ;
(PID.TID 0000.0001) pickup_write_mnc =   /* Model IO flag. */
(PID.TID 0000.0001)                   F
(PID.TID 0000.0001)     ;
(PID.TID 0000.0001) pickup_read_mnc =   /* Model IO flag. */
(PID.TID 0000.0001)                   F
(PID.TID 0000.0001)     ;
(PID.TID 0000.0001) writePickupAtEnd =   /* Model IO flag. */
(PID.TID 0000.0001)                   T
(PID.TID 0000.0001)     ;
(PID.TID 0000.0001) dumpFreq =   /* Model state write out interval ( s ). */
(PID.TID 0000.0001)                 0.000000000000000E+00
(PID.TID 0000.0001)     ;
(PID.TID 0000.0001) dumpInitAndLast= /* write out Initial & Last iter. model state */
(PID.TID 0000.0001)                   T
(PID.TID 0000.0001)     ;
(PID.TID 0000.0001) snapshot_mdsio =   /* Model IO flag. */
(PID.TID 0000.0001)                   T
(PID.TID 0000.0001)     ;
(PID.TID 0000.0001) snapshot_mnc =   /* Model IO flag. */
(PID.TID 0000.0001)                   F
(PID.TID 0000.0001)     ;
(PID.TID 0000.0001) monitorFreq =   /* Monitor output interval ( s ). */
(PID.TID 0000.0001)                 1.000000000000000E+00
(PID.TID 0000.0001)     ;
(PID.TID 0000.0001) monitorSelect = /* select group of variables to monitor */
(PID.TID 0000.0001)                       3
(PID.TID 0000.0001)     ;
(PID.TID 0000.0001) monitor_stdio =   /* Model IO flag. */
(PID.TID 0000.0001)                   T
(PID.TID 0000.0001)     ;
(PID.TID 0000.0001) monitor_mnc =   /* Model IO flag. */
(PID.TID 0000.0001)                   F
(PID.TID 0000.0001)     ;
(PID.TID 0000.0001) externForcingPeriod =   /* forcing period (s) */
(PID.TID 0000.0001)                 2.592000000000000E+06
(PID.TID 0000.0001)     ;
(PID.TID 0000.0001) externForcingCycle =   /* period of the cyle (s). */
(PID.TID 0000.0001)                 3.110400000000000E+07
(PID.TID 0000.0001)     ;
(PID.TID 0000.0001) tauThetaClimRelax =   /* relaxation time scale (s) */
(PID.TID 0000.0001)                 0.000000000000000E+00
(PID.TID 0000.0001)     ;
(PID.TID 0000.0001) tauSaltClimRelax =   /* relaxation time scale (s) */
(PID.TID 0000.0001)                 0.000000000000000E+00
(PID.TID 0000.0001)     ;
(PID.TID 0000.0001) latBandClimRelax =   /* max. Lat. where relaxation */
(PID.TID 0000.0001)                 1.800000000000000E+02
(PID.TID 0000.0001)     ;
(PID.TID 0000.0001) //
(PID.TID 0000.0001) // Gridding paramters ( PARM04 in namelist )
(PID.TID 0000.0001) //
(PID.TID 0000.0001) usingCartesianGrid = /* Cartesian coordinates flag ( True/False ) */
(PID.TID 0000.0001)                   F
(PID.TID 0000.0001)     ;
(PID.TID 0000.0001) usingCylindricalGrid = /* Cylindrical coordinates flag ( True/False ) */
(PID.TID 0000.0001)                   F
(PID.TID 0000.0001)     ;
(PID.TID 0000.0001) usingSphericalPolarGrid = /* Spherical coordinates flag ( True/False ) */
(PID.TID 0000.0001)                   F
(PID.TID 0000.0001)     ;
(PID.TID 0000.0001) usingCurvilinearGrid = /* Curvilinear coordinates flag ( True/False ) */
(PID.TID 0000.0001)                   T
(PID.TID 0000.0001)     ;
(PID.TID 0000.0001) useMin4hFacEdges = /* set hFacW,S as minimum of adjacent hFacC factor */
(PID.TID 0000.0001)                   F
(PID.TID 0000.0001)     ;
(PID.TID 0000.0001) interViscAr_pCell = /* account for partial-cell in interior vert. viscosity */
(PID.TID 0000.0001)                   F
(PID.TID 0000.0001)     ;
(PID.TID 0000.0001) interDiffKr_pCell = /* account for partial-cell in interior vert. diffusion */
(PID.TID 0000.0001)                   F
(PID.TID 0000.0001)     ;
(PID.TID 0000.0001) pCellMix_select = /* option to enhance mixing near surface & bottom */
(PID.TID 0000.0001)                       0
(PID.TID 0000.0001)     ;
(PID.TID 0000.0001) selectSigmaCoord = /* Hybrid-Sigma Vert. Coordinate option */
(PID.TID 0000.0001)                       0
(PID.TID 0000.0001)     ;
(PID.TID 0000.0001) rSigmaBnd = /* r/sigma transition ( units of r == Pa ) */
(PID.TID 0000.0001)                 1.234567000000000E+05
(PID.TID 0000.0001)     ;
(PID.TID 0000.0001) rkSign =   /* index orientation relative to vertical coordinate */
(PID.TID 0000.0001)                -1.000000000000000E+00
(PID.TID 0000.0001)     ;
(PID.TID 0000.0001) gravitySign = /* gravity orientation relative to vertical coordinate */
(PID.TID 0000.0001)                 1.000000000000000E+00
(PID.TID 0000.0001)     ;
(PID.TID 0000.0001) seaLev_Z =  /* reference height of sea-level [m] */
(PID.TID 0000.0001)                 0.000000000000000E+00
(PID.TID 0000.0001)     ;
(PID.TID 0000.0001) top_Pres =  /* pressure at the top (r-axis origin) [Pa] */
(PID.TID 0000.0001)                 0.000000000000000E+00
(PID.TID 0000.0001)     ;
(PID.TID 0000.0001) mass2rUnit = /* convert mass per unit area [kg/m2] to r-units [Pa] */
(PID.TID 0000.0001)                 9.810000000000000E+00
(PID.TID 0000.0001)     ;
(PID.TID 0000.0001) rUnit2mass = /* convert r-units [Pa] to mass per unit area [kg/m2] */
(PID.TID 0000.0001)                 1.019367991845056E-01
(PID.TID 0000.0001)     ;
(PID.TID 0000.0001) drC =   /* C spacing ( units of r ) */
(PID.TID 0000.0001)                 3.552590815589000E+06,      /* K =  1 */
(PID.TID 0000.0001)                 6.838430683410000E+06,      /* K =  2 */
(PID.TID 0000.0001)                 6.307096000805000E+06,      /* K =  3 */
(PID.TID 0000.0001)                 5.779789753830500E+06,      /* K =  4 */
(PID.TID 0000.0001)                 5.256128838809000E+06,      /* K =  5 */
(PID.TID 0000.0001)                 4.735790619145500E+06,      /* K =  6 */
(PID.TID 0000.0001)                 4.218239224087000E+06,      /* K =  7 */
(PID.TID 0000.0001)                 3.703226328546000E+06,      /* K =  8 */
(PID.TID 0000.0001)                 3.190660624493000E+06,      /* K =  9 */
(PID.TID 0000.0001)                 2.680260559297500E+06,      /* K = 10 */
(PID.TID 0000.0001)                 2.171774589024000E+06,      /* K = 11 */
(PID.TID 0000.0001)                 1.664899952158000E+06,      /* K = 12 */
(PID.TID 0000.0001)                 1.209624465162000E+06,      /* K = 13 */
(PID.TID 0000.0001)                 8.559169708345000E+05,      /* K = 14 */
(PID.TID 0000.0001)                 6.035281525760000E+05,      /* K = 15 */
(PID.TID 0000.0001)                 2.513278433230000E+05       /* K = 16 */
(PID.TID 0000.0001)     ;
(PID.TID 0000.0001) drF =   /* W spacing ( units of r ) */
(PID.TID 0000.0001)                 7.105181631178000E+06,      /* K =  1 */
(PID.TID 0000.0001)                 6.571679735642000E+06,      /* K =  2 */
(PID.TID 0000.0001)                 6.042512265968000E+06,      /* K =  3 */
(PID.TID 0000.0001)                 5.517067241693000E+06,      /* K =  4 */
(PID.TID 0000.0001)                 4.995190435925000E+06,      /* K =  5 */
(PID.TID 0000.0001)                 4.476390802366000E+06,      /* K =  6 */
(PID.TID 0000.0001)                 3.960087645808000E+06,      /* K =  7 */
(PID.TID 0000.0001)                 3.446365011284000E+06,      /* K =  8 */
(PID.TID 0000.0001)                 2.934956237702000E+06,      /* K =  9 */
(PID.TID 0000.0001)                 2.425564880893000E+06,      /* K = 10 */
(PID.TID 0000.0001)                 1.917984297155000E+06,      /* K = 11 */
(PID.TID 0000.0001)                 1.411815607161000E+06,      /* K = 12 */
(PID.TID 0000.0001)                 1.007433323163000E+06,      /* K = 13 */
(PID.TID 0000.0001)                 7.044006185060000E+05,      /* K = 14 */
(PID.TID 0000.0001)                 5.026556866460000E+05       /* K = 15 */
(PID.TID 0000.0001)     ;
(PID.TID 0000.0001) radius_fromHorizGrid = /* sphere Radius of input horiz. grid */
(PID.TID 0000.0001)                 6.370000000000000E+06
(PID.TID 0000.0001)     ;
(PID.TID 0000.0001) rSphere =  /* Radius ( ignored - cartesian, m - spherical ) */
(PID.TID 0000.0001)                 6.370000000000000E+06
(PID.TID 0000.0001)     ;
(PID.TID 0000.0001) deepAtmosphere = /* Deep/Shallow Atmosphere flag (True/False) */
(PID.TID 0000.0001)                   F
(PID.TID 0000.0001)     ;
(PID.TID 0000.0001) xC =  /* xC(:,1,:,1) : P-point X coord ( deg. or m if cartesian) */
(PID.TID 0000.0001)                -4.439521994760536E+01,      /* I =  1 */
(PID.TID 0000.0001)                -4.295641272275883E+01,      /* I =  2 */
(PID.TID 0000.0001)                -4.122055553388957E+01,      /* I =  3 */
(PID.TID 0000.0001)      . . .
(PID.TID 0000.0001)                 1.312205555338896E+02,      /* I = 94 */
(PID.TID 0000.0001)                 1.329564127227588E+02,      /* I = 95 */
(PID.TID 0000.0001)                 1.343952199476053E+02,      /* I = 96 */
(PID.TID 0000.0001)                 4.635509675007168E+01,      /* I = 97 */
(PID.TID 0000.0001)                 4.906731228843647E+01,      /* I = 98 */
(PID.TID 0000.0001)                 5.178550688214704E+01,      /* I = 99 */
(PID.TID 0000.0001)      . . .
(PID.TID 0000.0001)                -1.778001716525716E+02,      /* I =190 */
(PID.TID 0000.0001)                -1.779288225675308E+02,      /* I =191 */
(PID.TID 0000.0001)                -1.780367200854751E+02,      /* I =192 */
(PID.TID 0000.0001)                 1.356047800523947E+02,      /* I =193 */
(PID.TID 0000.0001)                 1.358367907661329E+02,      /* I =194 */
(PID.TID 0000.0001)                 1.359720382181193E+02,      /* I =195 */
(PID.TID 0000.0001)      . . .
(PID.TID 0000.0001)                -1.340279617818807E+02,      /* I =286 */
(PID.TID 0000.0001)                -1.341632092338671E+02,      /* I =287 */
(PID.TID 0000.0001)                -1.343952199476053E+02,      /* I =288 */
(PID.TID 0000.0001)                -8.812739148696656E+01,      /* I =289 */
(PID.TID 0000.0001)                -8.820362659721324E+01,      /* I =290 */
(PID.TID 0000.0001)                -8.826768106944316E+01,      /* I =291 */
(PID.TID 0000.0001)      . . .
(PID.TID 0000.0001)                 8.780017165257156E+01,      /* I =382 */
(PID.TID 0000.0001)                 8.792882256753080E+01,      /* I =383 */
(PID.TID 0000.0001)                 8.803672008547504E+01       /* I =384 */
(PID.TID 0000.0001)     ;
(PID.TID 0000.0001) yC =  /* yC(1,:,1,:) : P-point Y coord ( deg. or m if cartesian) */
(PID.TID 0000.0001)                -3.497677942598243E+01,      /* J =  1 */
(PID.TID 0000.0001)                -3.374005967394886E+01,      /* J =  2 */
(PID.TID 0000.0001)                -3.220655175667454E+01,      /* J =  3 */
(PID.TID 0000.0001)                -3.045756348838641E+01,      /* J =  4 */
(PID.TID 0000.0001)                -2.853728129852918E+01,      /* J =  5 */
(PID.TID 0000.0001)                -2.647426640173173E+01,      /* J =  6 */
(PID.TID 0000.0001)                -2.428936657094636E+01,      /* J =  7 */
(PID.TID 0000.0001)                -2.199915808312262E+01,      /* J =  8 */
(PID.TID 0000.0001)                -1.961768597440146E+01,      /* J =  9 */
(PID.TID 0000.0001)                -1.715743888281371E+01,      /* J = 10 */
(PID.TID 0000.0001)                -1.462993396899330E+01,      /* J = 11 */
(PID.TID 0000.0001)                -1.204608340464756E+01,      /* J = 12 */
(PID.TID 0000.0001)                -9.416429130284818E+00,      /* J = 13 */
(PID.TID 0000.0001)                -6.751293662992216E+00,      /* J = 14 */
(PID.TID 0000.0001)                -4.060875511835959E+00,      /* J = 15 */
(PID.TID 0000.0001)                -1.355307764409121E+00       /* J = 16 */
(PID.TID 0000.0001)     ;
(PID.TID 0000.0001) rcoord = /* P-point R coordinate (  units of r ) */
(PID.TID 0000.0001)                 4.946669460550100E+07,      /* K =  1 */
(PID.TID 0000.0001)                 4.262826392209099E+07,      /* K =  2 */
(PID.TID 0000.0001)                 3.632116792128599E+07,      /* K =  3 */
(PID.TID 0000.0001)                 3.054137816745549E+07,      /* K =  4 */
(PID.TID 0000.0001)                 2.528524932864650E+07,      /* K =  5 */
(PID.TID 0000.0001)                 2.054945870950100E+07,      /* K =  6 */
(PID.TID 0000.0001)                 1.633121948541400E+07,      /* K =  7 */
(PID.TID 0000.0001)                 1.262799315686800E+07,      /* K =  8 */
(PID.TID 0000.0001)                 9.437332532375000E+06,      /* K =  9 */
(PID.TID 0000.0001)                 6.757071973077500E+06,      /* K = 10 */
(PID.TID 0000.0001)                 4.585297384053500E+06,      /* K = 11 */
(PID.TID 0000.0001)                 2.920397431895500E+06,      /* K = 12 */
(PID.TID 0000.0001)                 1.710772966733500E+06,      /* K = 13 */
(PID.TID 0000.0001)                 8.548559958990000E+05,      /* K = 14 */
(PID.TID 0000.0001)                 2.513278433230000E+05       /* K = 15 */
(PID.TID 0000.0001)     ;
(PID.TID 0000.0001) rF =   /* W-Interf. R coordinate (  units of r ) */
(PID.TID 0000.0001)                 5.301928542109000E+07,      /* K =  1 */
(PID.TID 0000.0001)                 4.591410378991200E+07,      /* K =  2 */
(PID.TID 0000.0001)                 3.934242405427000E+07,      /* K =  3 */
(PID.TID 0000.0001)                 3.329991178830200E+07,      /* K =  4 */
(PID.TID 0000.0001)                 2.778284454660900E+07,      /* K =  5 */
(PID.TID 0000.0001)                 2.278765411068400E+07,      /* K =  6 */
(PID.TID 0000.0001)                 1.831126330831800E+07,      /* K =  7 */
(PID.TID 0000.0001)                 1.435117566251000E+07,      /* K =  8 */
(PID.TID 0000.0001)                 1.090481065122600E+07,      /* K =  9 */
(PID.TID 0000.0001)                 7.969854413524000E+06,      /* K = 10 */
(PID.TID 0000.0001)                 5.544289532631000E+06,      /* K = 11 */
(PID.TID 0000.0001)                 3.626305235476000E+06,      /* K = 12 */
(PID.TID 0000.0001)                 2.214489628315000E+06,      /* K = 13 */
(PID.TID 0000.0001)                 1.207056305152000E+06,      /* K = 14 */
(PID.TID 0000.0001)                 5.026556866460000E+05,      /* K = 15 */
(PID.TID 0000.0001)                 0.000000000000000E+00       /* K = 16 */
(PID.TID 0000.0001)     ;
(PID.TID 0000.0001) deepFacC = /* deep-model grid factor @ cell-Center (-) */
(PID.TID 0000.0001)    15 @  1.000000000000000E+00              /* K =  1: 15 */
(PID.TID 0000.0001)     ;
(PID.TID 0000.0001) deepFacF = /* deep-model grid factor @ W-Interface (-) */
(PID.TID 0000.0001)    16 @  1.000000000000000E+00              /* K =  1: 16 */
(PID.TID 0000.0001)     ;
(PID.TID 0000.0001) rVel2wUnit = /* convert units: rVel [Pa/s] -> wSpeed [m/s] */
(PID.TID 0000.0001)                 9.742887855143588E-05,      /* K =  1 */
(PID.TID 0000.0001)                 9.768627106249419E-05,      /* K =  2 */
(PID.TID 0000.0001)                 9.792907474950860E-05,      /* K =  3 */
(PID.TID 0000.0001)                 9.815645750666191E-05,      /* K =  4 */
(PID.TID 0000.0001)                 9.836761343676874E-05,      /* K =  5 */
(PID.TID 0000.0001)                 9.856178548148132E-05,      /* K =  6 */
(PID.TID 0000.0001)                 9.873825829905007E-05,      /* K =  7 */
(PID.TID 0000.0001)                 9.889635993378996E-05,      /* K =  8 */
(PID.TID 0000.0001)                 9.903549381018021E-05,      /* K =  9 */
(PID.TID 0000.0001)                 9.915513050133213E-05,      /* K = 10 */
(PID.TID 0000.0001)                 9.925481132009713E-05,      /* K = 11 */
(PID.TID 0000.0001)                 9.933415624910784E-05,      /* K = 12 */
(PID.TID 0000.0001)                 9.939285957918134E-05,      /* K = 13 */
(PID.TID 0000.0001)                 9.943490422617367E-05,      /* K = 14 */
(PID.TID 0000.0001)                 9.946437929981070E-05,      /* K = 15 */
(PID.TID 0000.0001)                 9.948545155757643E-05       /* K = 16 */
(PID.TID 0000.0001)     ;
(PID.TID 0000.0001) wUnit2rVel = /* convert units: wSpeed [m/s] -> rVel [Pa/s] */
(PID.TID 0000.0001)                 1.026389726401364E+04,      /* K =  1 */
(PID.TID 0000.0001)                 1.023685303086507E+04,      /* K =  2 */
(PID.TID 0000.0001)                 1.021147195108180E+04,      /* K =  3 */
(PID.TID 0000.0001)                 1.018781673057149E+04,      /* K =  4 */
(PID.TID 0000.0001)                 1.016594756202768E+04,      /* K =  5 */
(PID.TID 0000.0001)                 1.014592009585590E+04,      /* K =  6 */
(PID.TID 0000.0001)                 1.012778650572592E+04,      /* K =  7 */
(PID.TID 0000.0001)                 1.011159562060210E+04,      /* K =  8 */
(PID.TID 0000.0001)                 1.009738995108849E+04,      /* K =  9 */
(PID.TID 0000.0001)                 1.008520683643864E+04,      /* K = 10 */
(PID.TID 0000.0001)                 1.007507834330566E+04,      /* K = 11 */
(PID.TID 0000.0001)                 1.006703069478160E+04,      /* K = 12 */
(PID.TID 0000.0001)                 1.006108491328142E+04,      /* K = 13 */
(PID.TID 0000.0001)                 1.005683072541016E+04,      /* K = 14 */
(PID.TID 0000.0001)                 1.005385050446802E+04,      /* K = 15 */
(PID.TID 0000.0001)                 1.005172097370697E+04       /* K = 16 */
(PID.TID 0000.0001)     ;
(PID.TID 0000.0001) rUnit2z = /* convert units (@ center): dr [Pa] -> dz [m] */
(PID.TID 0000.0001)                 9.755691881368162E-05,      /* K =  1 */
(PID.TID 0000.0001)                 9.780709552455839E-05,      /* K =  2 */
(PID.TID 0000.0001)                 9.804226477867782E-05,      /* K =  3 */
(PID.TID 0000.0001)                 9.826160702330555E-05,      /* K =  4 */
(PID.TID 0000.0001)                 9.846434012053036E-05,      /* K =  5 */
(PID.TID 0000.0001)                 9.864972725579047E-05,      /* K =  6 */
(PID.TID 0000.0001)                 9.881707418047693E-05,      /* K =  7 */
(PID.TID 0000.0001)                 9.896574597209428E-05,      /* K =  8 */
(PID.TID 0000.0001)                 9.909517906692542E-05,      /* K =  9 */
(PID.TID 0000.0001)                 9.920487890398630E-05,      /* K = 10 */
(PID.TID 0000.0001)                 9.929442568661408E-05,      /* K = 11 */
(PID.TID 0000.0001)                 9.936347619530873E-05,      /* K = 12 */
(PID.TID 0000.0001)                 9.941386566250407E-05,      /* K = 13 */
(PID.TID 0000.0001)                 9.944963379228999E-05,      /* K = 14 */
(PID.TID 0000.0001)                 9.947491135866009E-05       /* K = 15 */
(PID.TID 0000.0001)     ;
(PID.TID 0000.0001) z2rUnit = /* convert units (@ center): dz [m] -> dr [Pa] */
(PID.TID 0000.0001)                 1.025042623486134E+04,      /* K =  1 */
(PID.TID 0000.0001)                 1.022420709496388E+04,      /* K =  2 */
(PID.TID 0000.0001)                 1.019968278229207E+04,      /* K =  3 */
(PID.TID 0000.0001)                 1.017691477163427E+04,      /* K =  4 */
(PID.TID 0000.0001)                 1.015596101873936E+04,      /* K =  5 */
(PID.TID 0000.0001)                 1.013687546653914E+04,      /* K =  6 */
(PID.TID 0000.0001)                 1.011970864643924E+04,      /* K =  7 */
(PID.TID 0000.0001)                 1.010450626302533E+04,      /* K =  8 */
(PID.TID 0000.0001)                 1.009130826964483E+04,      /* K =  9 */
(PID.TID 0000.0001)                 1.008014939434413E+04,      /* K = 10 */
(PID.TID 0000.0001)                 1.007105880400707E+04,      /* K = 11 */
(PID.TID 0000.0001)                 1.006406013850000E+04,      /* K = 12 */
(PID.TID 0000.0001)                 1.005895901276848E+04,      /* K = 13 */
(PID.TID 0000.0001)                 1.005534120003493E+04,      /* K = 14 */
(PID.TID 0000.0001)                 1.005278603762176E+04       /* K = 15 */
(PID.TID 0000.0001)     ;
(PID.TID 0000.0001) rotateGrid = /* use rotated grid ( True/False ) */
(PID.TID 0000.0001)                   F
(PID.TID 0000.0001)     ;
(PID.TID 0000.0001) phiEuler = /* Euler angle, rotation about original z-coordinate [rad] */
(PID.TID 0000.0001)                 0.000000000000000E+00
(PID.TID 0000.0001)     ;
(PID.TID 0000.0001) thetaEuler = /* Euler angle, rotation about new x-coordinate [rad] */
(PID.TID 0000.0001)                 0.000000000000000E+00
(PID.TID 0000.0001)     ;
(PID.TID 0000.0001) psiEuler = /* Euler angle, rotation about new z-coordinate [rad] */
(PID.TID 0000.0001)                 0.000000000000000E+00
(PID.TID 0000.0001)     ;
(PID.TID 0000.0001) dxF =  /* dxF(:,1,:,1) ( units: m ) */
(PID.TID 0000.0001)                 1.202082051331828E+05,      /* I =  1 */
(PID.TID 0000.0001)                 1.563594089971120E+05,      /* I =  2 */
(PID.TID 0000.0001)                 1.835530058121492E+05,      /* I =  3 */
(PID.TID 0000.0001)      . . .
(PID.TID 0000.0001)                 1.835530058121492E+05,      /* I = 94 */
(PID.TID 0000.0001)                 1.563594089971120E+05,      /* I = 95 */
(PID.TID 0000.0001)                 1.202082051331828E+05,      /* I = 96 */
(PID.TID 0000.0001)                 3.012844832048790E+05,      /* I = 97 */
(PID.TID 0000.0001)                 3.017314519159184E+05,      /* I = 98 */
(PID.TID 0000.0001)                 3.026061571839506E+05,      /* I = 99 */
(PID.TID 0000.0001)      . . .
(PID.TID 0000.0001)                 3.026061571839506E+05,      /* I =190 */
(PID.TID 0000.0001)                 3.017314519159184E+05,      /* I =191 */
(PID.TID 0000.0001)                 3.012844832048790E+05,      /* I =192 */
(PID.TID 0000.0001)                 1.202082051331828E+05,      /* I =193 */
(PID.TID 0000.0001)                 1.563594089971120E+05,      /* I =194 */
(PID.TID 0000.0001)                 1.835530058121492E+05,      /* I =195 */
(PID.TID 0000.0001)      . . .
(PID.TID 0000.0001)                 1.835530058121492E+05,      /* I =286 */
(PID.TID 0000.0001)                 1.563594089971120E+05,      /* I =287 */
(PID.TID 0000.0001)                 1.202082051331828E+05,      /* I =288 */
(PID.TID 0000.0001)                 3.012844832048790E+05,      /* I =289 */
(PID.TID 0000.0001)                 3.017314519159184E+05,      /* I =290 */
(PID.TID 0000.0001)                 3.026061571839506E+05,      /* I =291 */
(PID.TID 0000.0001)      . . .
(PID.TID 0000.0001)                 3.026061571839506E+05,      /* I =382 */
(PID.TID 0000.0001)                 3.017314519159184E+05,      /* I =383 */
(PID.TID 0000.0001)                 3.012844832048790E+05       /* I =384 */
(PID.TID 0000.0001)     ;
(PID.TID 0000.0001) dxF =  /* dxF(1,:,1,:) ( units: m ) */
(PID.TID 0000.0001)                 1.202082051331828E+05,      /* J =  1 */
(PID.TID 0000.0001)                 1.572908084538706E+05,      /* J =  2 */
(PID.TID 0000.0001)                 1.840412227747703E+05,      /* J =  3 */
(PID.TID 0000.0001)                 2.048868197919576E+05,      /* J =  4 */
(PID.TID 0000.0001)                 2.220405216043041E+05,      /* J =  5 */
(PID.TID 0000.0001)                 2.365892017348392E+05,      /* J =  6 */
(PID.TID 0000.0001)                 2.491250781852558E+05,      /* J =  7 */
(PID.TID 0000.0001)                 2.599949918261881E+05,      /* J =  8 */
(PID.TID 0000.0001)                 2.694110134598581E+05,      /* J =  9 */
(PID.TID 0000.0001)                 2.775055554645015E+05,      /* J = 10 */
(PID.TID 0000.0001)                 2.843615645344775E+05,      /* J = 11 */
(PID.TID 0000.0001)                 2.900303768613599E+05,      /* J = 12 */
(PID.TID 0000.0001)                 2.945429307892709E+05,      /* J = 13 */
(PID.TID 0000.0001)                 2.979171143158405E+05,      /* J = 14 */
(PID.TID 0000.0001)                 3.001626787528886E+05,      /* J = 15 */
(PID.TID 0000.0001)                 3.012844832048790E+05       /* J = 16 */
(PID.TID 0000.0001)     ;
(PID.TID 0000.0001) dyF =  /* dyF(:,1,:,1) ( units: m ) */
(PID.TID 0000.0001)                 1.202082051331828E+05,      /* I =  1 */
(PID.TID 0000.0001)                 1.572908084538706E+05,      /* I =  2 */
(PID.TID 0000.0001)                 1.840412227747703E+05,      /* I =  3 */
(PID.TID 0000.0001)      . . .
(PID.TID 0000.0001)                 1.840412227747703E+05,      /* I = 94 */
(PID.TID 0000.0001)                 1.572908084538706E+05,      /* I = 95 */
(PID.TID 0000.0001)                 1.202082051331828E+05,      /* I = 96 */
(PID.TID 0000.0001)                 3.012190981969055E+05,      /* I = 97 */
(PID.TID 0000.0001)                 3.016675528553907E+05,      /* I = 98 */
(PID.TID 0000.0001)                 3.025451404065074E+05,      /* I = 99 */
(PID.TID 0000.0001)      . . .
(PID.TID 0000.0001)                 3.025451404065074E+05,      /* I =190 */
(PID.TID 0000.0001)                 3.016675528553907E+05,      /* I =191 */
(PID.TID 0000.0001)                 3.012190981969055E+05,      /* I =192 */
(PID.TID 0000.0001)                 1.202082051331828E+05,      /* I =193 */
(PID.TID 0000.0001)                 1.572908084538706E+05,      /* I =194 */
(PID.TID 0000.0001)                 1.840412227747703E+05,      /* I =195 */
(PID.TID 0000.0001)      . . .
(PID.TID 0000.0001)                 1.840412227747703E+05,      /* I =286 */
(PID.TID 0000.0001)                 1.572908084538706E+05,      /* I =287 */
(PID.TID 0000.0001)                 1.202082051331828E+05,      /* I =288 */
(PID.TID 0000.0001)                 3.012190981969055E+05,      /* I =289 */
(PID.TID 0000.0001)                 3.016675528553907E+05,      /* I =290 */
(PID.TID 0000.0001)                 3.025451404065074E+05,      /* I =291 */
(PID.TID 0000.0001)      . . .
(PID.TID 0000.0001)                 3.025451404065074E+05,      /* I =382 */
(PID.TID 0000.0001)                 3.016675528553907E+05,      /* I =383 */
(PID.TID 0000.0001)                 3.012190981969055E+05       /* I =384 */
(PID.TID 0000.0001)     ;
(PID.TID 0000.0001) dyF =  /* dyF(1,:,1,:) ( units: m ) */
(PID.TID 0000.0001)                 1.202082051331828E+05,      /* J =  1 */
(PID.TID 0000.0001)                 1.563594089971120E+05,      /* J =  2 */
(PID.TID 0000.0001)                 1.835530058121492E+05,      /* J =  3 */
(PID.TID 0000.0001)                 2.045883481718707E+05,      /* J =  4 */
(PID.TID 0000.0001)                 2.218350349844185E+05,      /* J =  5 */
(PID.TID 0000.0001)                 2.364352994647058E+05,      /* J =  6 */
(PID.TID 0000.0001)                 2.490022710862746E+05,      /* J =  7 */
(PID.TID 0000.0001)                 2.598919724358304E+05,      /* J =  8 */
(PID.TID 0000.0001)                 2.693210245495156E+05,      /* J =  9 */
(PID.TID 0000.0001)                 2.774243179696503E+05,      /* J = 10 */
(PID.TID 0000.0001)                 2.842862532064524E+05,      /* J = 11 */
(PID.TID 0000.0001)                 2.899590699694043E+05,      /* J = 12 */
(PID.TID 0000.0001)                 2.944742915095688E+05,      /* J = 13 */
(PID.TID 0000.0001)                 2.978501920522794E+05,      /* J = 14 */
(PID.TID 0000.0001)                 3.000967749619962E+05,      /* J = 15 */
(PID.TID 0000.0001)                 3.012190981969055E+05       /* J = 16 */
(PID.TID 0000.0001)     ;
(PID.TID 0000.0001) dxG =  /* dxG(:,1,:,1) ( units: m ) */
(PID.TID 0000.0001)                 1.009837800879055E+05,      /* I =  1 */
(PID.TID 0000.0001)                 1.534505834330338E+05,      /* I =  2 */
(PID.TID 0000.0001)                 1.823321598773926E+05,      /* I =  3 */
(PID.TID 0000.0001)      . . .
(PID.TID 0000.0001)                 1.823321598773926E+05,      /* I = 94 */
(PID.TID 0000.0001)                 1.534505834330338E+05,      /* I = 95 */
(PID.TID 0000.0001)                 1.009837800879055E+05,      /* I = 96 */
(PID.TID 0000.0001)                 3.014246674484008E+05,      /* I = 97 */
(PID.TID 0000.0001)                 3.018694497480782E+05,      /* I = 98 */
(PID.TID 0000.0001)                 3.027399364062562E+05,      /* I = 99 */
(PID.TID 0000.0001)      . . .
(PID.TID 0000.0001)                 3.027399364062562E+05,      /* I =190 */
(PID.TID 0000.0001)                 3.018694497480782E+05,      /* I =191 */
(PID.TID 0000.0001)                 3.014246674484008E+05,      /* I =192 */
(PID.TID 0000.0001)                 1.009837800879055E+05,      /* I =193 */
(PID.TID 0000.0001)                 1.534505834330338E+05,      /* I =194 */
(PID.TID 0000.0001)                 1.823321598773926E+05,      /* I =195 */
(PID.TID 0000.0001)      . . .
(PID.TID 0000.0001)                 1.823321598773926E+05,      /* I =286 */
(PID.TID 0000.0001)                 1.534505834330338E+05,      /* I =287 */
(PID.TID 0000.0001)                 1.009837800879055E+05,      /* I =288 */
(PID.TID 0000.0001)                 3.014246674484008E+05,      /* I =289 */
(PID.TID 0000.0001)                 3.018694497480782E+05,      /* I =290 */
(PID.TID 0000.0001)                 3.027399364062562E+05,      /* I =291 */
(PID.TID 0000.0001)      . . .
(PID.TID 0000.0001)                 3.027399364062562E+05,      /* I =382 */
(PID.TID 0000.0001)                 3.018694497480782E+05,      /* I =383 */
(PID.TID 0000.0001)                 3.014246674484008E+05       /* I =384 */
(PID.TID 0000.0001)     ;
(PID.TID 0000.0001) dxG =  /* dxG(1,:,1,:) ( units: m ) */
(PID.TID 0000.0001)                 1.009837800879055E+05,      /* J =  1 */
(PID.TID 0000.0001)                 1.403701524205398E+05,      /* J =  2 */
(PID.TID 0000.0001)                 1.716197227386011E+05,      /* J =  3 */
(PID.TID 0000.0001)                 1.950254041626018E+05,      /* J =  4 */
(PID.TID 0000.0001)                 2.138410773065497E+05,      /* J =  5 */
(PID.TID 0000.0001)                 2.295958105911512E+05,      /* J =  6 */
(PID.TID 0000.0001)                 2.430829951739083E+05,      /* J =  7 */
(PID.TID 0000.0001)                 2.547526806712889E+05,      /* J =  8 */
(PID.TID 0000.0001)                 2.648750305193301E+05,      /* J =  9 */
(PID.TID 0000.0001)                 2.736173771018112E+05,      /* J = 10 */
(PID.TID 0000.0001)                 2.810845823202647E+05,      /* J = 11 */
(PID.TID 0000.0001)                 2.873420591008078E+05,      /* J = 12 */
(PID.TID 0000.0001)                 2.924298293668651E+05,      /* J = 13 */
(PID.TID 0000.0001)                 2.963715635865306E+05,      /* J = 14 */
(PID.TID 0000.0001)                 2.991805843171258E+05,      /* J = 15 */
(PID.TID 0000.0001)                 3.008638765647886E+05       /* J = 16 */
(PID.TID 0000.0001)     ;
(PID.TID 0000.0001) dyG =  /* dyG(:,1,:,1) ( units: m ) */
(PID.TID 0000.0001)                 1.009837800879055E+05,      /* I =  1 */
(PID.TID 0000.0001)                 1.403701524205398E+05,      /* I =  2 */
(PID.TID 0000.0001)                 1.716197227386011E+05,      /* I =  3 */
(PID.TID 0000.0001)      . . .
(PID.TID 0000.0001)                 1.950254041626018E+05,      /* I = 94 */
(PID.TID 0000.0001)                 1.716197227386011E+05,      /* I = 95 */
(PID.TID 0000.0001)                 1.403701524205398E+05,      /* I = 96 */
(PID.TID 0000.0001)                 3.011625828699101E+05,      /* I = 97 */
(PID.TID 0000.0001)                 3.013880313304323E+05,      /* I = 98 */
(PID.TID 0000.0001)                 3.020546438966793E+05,      /* I = 99 */
(PID.TID 0000.0001)      . . .
(PID.TID 0000.0001)                 3.031337933484788E+05,      /* I =190 */
(PID.TID 0000.0001)                 3.020546438966793E+05,      /* I =191 */
(PID.TID 0000.0001)                 3.013880313304323E+05,      /* I =192 */
(PID.TID 0000.0001)                 1.009837800879055E+05,      /* I =193 */
(PID.TID 0000.0001)                 1.403701524205398E+05,      /* I =194 */
(PID.TID 0000.0001)                 1.716197227386011E+05,      /* I =195 */
(PID.TID 0000.0001)      . . .
(PID.TID 0000.0001)                 1.950254041626018E+05,      /* I =286 */
(PID.TID 0000.0001)                 1.716197227386011E+05,      /* I =287 */
(PID.TID 0000.0001)                 1.403701524205398E+05,      /* I =288 */
(PID.TID 0000.0001)                 3.011625828699101E+05,      /* I =289 */
(PID.TID 0000.0001)                 3.013880313304323E+05,      /* I =290 */
(PID.TID 0000.0001)                 3.020546438966793E+05,      /* I =291 */
(PID.TID 0000.0001)      . . .
(PID.TID 0000.0001)                 3.031337933484788E+05,      /* I =382 */
(PID.TID 0000.0001)                 3.020546438966793E+05,      /* I =383 */
(PID.TID 0000.0001)                 3.013880313304323E+05       /* I =384 */
(PID.TID 0000.0001)     ;
(PID.TID 0000.0001) dyG =  /* dyG(1,:,1,:) ( units: m ) */
(PID.TID 0000.0001)                 1.009837800879055E+05,      /* J =  1 */
(PID.TID 0000.0001)                 1.534505834330338E+05,      /* J =  2 */
(PID.TID 0000.0001)                 1.823321598773926E+05,      /* J =  3 */
(PID.TID 0000.0001)                 2.038999045536999E+05,      /* J =  4 */
(PID.TID 0000.0001)                 2.213884732245467E+05,      /* J =  5 */
(PID.TID 0000.0001)                 2.361211699596122E+05,      /* J =  6 */
(PID.TID 0000.0001)                 2.487693460283865E+05,      /* J =  7 */
(PID.TID 0000.0001)                 2.597126963772147E+05,      /* J =  8 */
(PID.TID 0000.0001)                 2.691790288994575E+05,      /* J =  9 */
(PID.TID 0000.0001)                 2.773091043277394E+05,      /* J = 10 */
(PID.TID 0000.0001)                 2.841906470085516E+05,      /* J = 11 */
(PID.TID 0000.0001)                 2.898778860929753E+05,      /* J = 12 */
(PID.TID 0000.0001)                 2.944035815526416E+05,      /* J = 13 */
(PID.TID 0000.0001)                 2.977867909042096E+05,      /* J = 14 */
(PID.TID 0000.0001)                 3.000380090330854E+05,      /* J = 15 */
(PID.TID 0000.0001)                 3.011625828699101E+05       /* J = 16 */
(PID.TID 0000.0001)     ;
(PID.TID 0000.0001) dxC =  /* dxC(:,1,:,1) ( units: m ) */
(PID.TID 0000.0001)                 1.114203141013064E+05,      /* I =  1 */
(PID.TID 0000.0001)                 1.391343389937106E+05,      /* I =  2 */
(PID.TID 0000.0001)                 1.709574999026266E+05,      /* I =  3 */
(PID.TID 0000.0001)      . . .
(PID.TID 0000.0001)                 1.946503699269892E+05,      /* I = 94 */
(PID.TID 0000.0001)                 1.709574999026266E+05,      /* I = 95 */
(PID.TID 0000.0001)                 1.391343389937106E+05,      /* I = 96 */
(PID.TID 0000.0001)                 3.012281885409289E+05,      /* I = 97 */
(PID.TID 0000.0001)                 3.014528555318499E+05,      /* I = 98 */
(PID.TID 0000.0001)                 3.021172674809921E+05,      /* I = 99 */
(PID.TID 0000.0001)      . . .
(PID.TID 0000.0001)                 3.031928954490276E+05,      /* I =190 */
(PID.TID 0000.0001)                 3.021172674809921E+05,      /* I =191 */
(PID.TID 0000.0001)                 3.014528555318499E+05,      /* I =192 */
(PID.TID 0000.0001)                 1.114203141013064E+05,      /* I =193 */
(PID.TID 0000.0001)                 1.391343389937106E+05,      /* I =194 */
(PID.TID 0000.0001)                 1.709574999026266E+05,      /* I =195 */
(PID.TID 0000.0001)      . . .
(PID.TID 0000.0001)                 1.946503699269892E+05,      /* I =286 */
(PID.TID 0000.0001)                 1.709574999026266E+05,      /* I =287 */
(PID.TID 0000.0001)                 1.391343389937106E+05,      /* I =288 */
(PID.TID 0000.0001)                 3.012281885409289E+05,      /* I =289 */
(PID.TID 0000.0001)                 3.014528555318499E+05,      /* I =290 */
(PID.TID 0000.0001)                 3.021172674809921E+05,      /* I =291 */
(PID.TID 0000.0001)      . . .
(PID.TID 0000.0001)                 3.031928954490276E+05,      /* I =382 */
(PID.TID 0000.0001)                 3.021172674809921E+05,      /* I =383 */
(PID.TID 0000.0001)                 3.014528555318499E+05       /* I =384 */
(PID.TID 0000.0001)     ;
(PID.TID 0000.0001) dxC =  /* dxC(1,:,1,:) ( units: m ) */
(PID.TID 0000.0001)                 1.114203141013064E+05,      /* J =  1 */
(PID.TID 0000.0001)                 1.549545757850771E+05,      /* J =  2 */
(PID.TID 0000.0001)                 1.829777599966776E+05,      /* J =  3 */
(PID.TID 0000.0001)                 2.042717761866506E+05,      /* J =  4 */
(PID.TID 0000.0001)                 2.216367828252819E+05,      /* J =  5 */
(PID.TID 0000.0001)                 2.363029564123586E+05,      /* J =  6 */
(PID.TID 0000.0001)                 2.489113743322025E+05,      /* J =  7 */
(PID.TID 0000.0001)                 2.598293319150326E+05,      /* J =  8 */
(PID.TID 0000.0001)                 2.692787333338535E+05,      /* J =  9 */
(PID.TID 0000.0001)                 2.773972106720365E+05,      /* J = 10 */
(PID.TID 0000.0001)                 2.842706922224557E+05,      /* J = 11 */
(PID.TID 0000.0001)                 2.899523122489403E+05,      /* J = 12 */
(PID.TID 0000.0001)                 2.944741346384699E+05,      /* J = 13 */
(PID.TID 0000.0001)                 2.978547649292580E+05,      /* J = 14 */
(PID.TID 0000.0001)                 3.001044073506459E+05,      /* J = 15 */
(PID.TID 0000.0001)                 3.012281885409289E+05       /* J = 16 */
(PID.TID 0000.0001)     ;
(PID.TID 0000.0001) dyC =  /* dyC(:,1,:,1) ( units: m ) */
(PID.TID 0000.0001)                 1.114203141013064E+05,      /* I =  1 */
(PID.TID 0000.0001)                 1.549545757850771E+05,      /* I =  2 */
(PID.TID 0000.0001)                 1.829777599966776E+05,      /* I =  3 */
(PID.TID 0000.0001)      . . .
(PID.TID 0000.0001)                 1.829777599966776E+05,      /* I = 94 */
(PID.TID 0000.0001)                 1.549545757850771E+05,      /* I = 95 */
(PID.TID 0000.0001)                 1.114203141013064E+05,      /* I = 96 */
(PID.TID 0000.0001)                 3.013593857228136E+05,      /* I = 97 */
(PID.TID 0000.0001)                 3.018056440786431E+05,      /* I = 98 */
(PID.TID 0000.0001)                 3.026789946729719E+05,      /* I = 99 */
(PID.TID 0000.0001)      . . .
(PID.TID 0000.0001)                 3.026789946729719E+05,      /* I =190 */
(PID.TID 0000.0001)                 3.018056440786431E+05,      /* I =191 */
(PID.TID 0000.0001)                 3.013593857228136E+05,      /* I =192 */
(PID.TID 0000.0001)                 1.114203141013064E+05,      /* I =193 */
(PID.TID 0000.0001)                 1.549545757850771E+05,      /* I =194 */
(PID.TID 0000.0001)                 1.829777599966776E+05,      /* I =195 */
(PID.TID 0000.0001)      . . .
(PID.TID 0000.0001)                 1.829777599966776E+05,      /* I =286 */
(PID.TID 0000.0001)                 1.549545757850771E+05,      /* I =287 */
(PID.TID 0000.0001)                 1.114203141013064E+05,      /* I =288 */
(PID.TID 0000.0001)                 3.013593857228136E+05,      /* I =289 */
(PID.TID 0000.0001)                 3.018056440786431E+05,      /* I =290 */
(PID.TID 0000.0001)                 3.026789946729719E+05,      /* I =291 */
(PID.TID 0000.0001)      . . .
(PID.TID 0000.0001)                 3.026789946729719E+05,      /* I =382 */
(PID.TID 0000.0001)                 3.018056440786431E+05,      /* I =383 */
(PID.TID 0000.0001)                 3.013593857228136E+05       /* I =384 */
(PID.TID 0000.0001)     ;
(PID.TID 0000.0001) dyC =  /* dyC(1,:,1,:) ( units: m ) */
(PID.TID 0000.0001)                 1.114203141013064E+05,      /* J =  1 */
(PID.TID 0000.0001)                 1.391343389937106E+05,      /* J =  2 */
(PID.TID 0000.0001)                 1.709574999026266E+05,      /* J =  3 */
(PID.TID 0000.0001)                 1.946503699269892E+05,      /* J =  4 */
(PID.TID 0000.0001)                 2.135964483342134E+05,      /* J =  5 */
(PID.TID 0000.0001)                 2.294195678257306E+05,      /* J =  6 */
(PID.TID 0000.0001)                 2.429464709770498E+05,      /* J =  7 */
(PID.TID 0000.0001)                 2.546408290696998E+05,      /* J =  8 */
(PID.TID 0000.0001)                 2.647791839299727E+05,      /* J =  9 */
(PID.TID 0000.0001)                 2.735321911346108E+05,      /* J = 10 */
(PID.TID 0000.0001)                 2.810065951609633E+05,      /* J = 11 */
(PID.TID 0000.0001)                 2.872689479506990E+05,      /* J = 12 */
(PID.TID 0000.0001)                 2.923599955312932E+05,      /* J = 13 */
(PID.TID 0000.0001)                 2.963038832565530E+05,      /* J = 14 */
(PID.TID 0000.0001)                 2.991142470004740E+05,      /* J = 15 */
(PID.TID 0000.0001)                 3.007982711627968E+05       /* J = 16 */
(PID.TID 0000.0001)     ;
(PID.TID 0000.0001) dxV =  /* dxV(:,1,:,1) ( units: m ) */
(PID.TID 0000.0001)                 8.015229982413632E+04,      /* I =  1 */
(PID.TID 0000.0001)                 1.333130744933864E+05,      /* I =  2 */
(PID.TID 0000.0001)                 1.691744868129062E+05,      /* I =  3 */
(PID.TID 0000.0001)      . . .
(PID.TID 0000.0001)                 1.937548202849060E+05,      /* I = 94 */
(PID.TID 0000.0001)                 1.691744868129062E+05,      /* I = 95 */
(PID.TID 0000.0001)                 1.333130744933864E+05,      /* I = 96 */
(PID.TID 0000.0001)                 3.013686170436881E+05,      /* I = 97 */
(PID.TID 0000.0001)                 3.015922136961168E+05,      /* I = 98 */
(PID.TID 0000.0001)                 3.022533948177109E+05,      /* I = 99 */
(PID.TID 0000.0001)      . . .
(PID.TID 0000.0001)                 3.033238888442880E+05,      /* I =190 */
(PID.TID 0000.0001)                 3.022533948177109E+05,      /* I =191 */
(PID.TID 0000.0001)                 3.015922136961168E+05,      /* I =192 */
(PID.TID 0000.0001)                 8.015229982413632E+04,      /* I =193 */
(PID.TID 0000.0001)                 1.333130744933864E+05,      /* I =194 */
(PID.TID 0000.0001)                 1.691744868129062E+05,      /* I =195 */
(PID.TID 0000.0001)      . . .
(PID.TID 0000.0001)                 1.937548202849060E+05,      /* I =286 */
(PID.TID 0000.0001)                 1.691744868129062E+05,      /* I =287 */
(PID.TID 0000.0001)                 1.333130744933864E+05,      /* I =288 */
(PID.TID 0000.0001)                 3.013686170436881E+05,      /* I =289 */
(PID.TID 0000.0001)                 3.015922136961168E+05,      /* I =290 */
(PID.TID 0000.0001)                 3.022533948177109E+05,      /* I =291 */
(PID.TID 0000.0001)      . . .
(PID.TID 0000.0001)                 3.033238888442880E+05,      /* I =382 */
(PID.TID 0000.0001)                 3.022533948177109E+05,      /* I =383 */
(PID.TID 0000.0001)                 3.015922136961168E+05       /* I =384 */
(PID.TID 0000.0001)     ;
(PID.TID 0000.0001) dxV =  /* dxV(1,:,1,:) ( units: m ) */
(PID.TID 0000.0001)                 8.015229982413632E+04,      /* J =  1 */
(PID.TID 0000.0001)                 1.362652340208229E+05,      /* J =  2 */
(PID.TID 0000.0001)                 1.701080315742101E+05,      /* J =  3 */
(PID.TID 0000.0001)                 1.942331448101592E+05,      /* J =  4 */
(PID.TID 0000.0001)                 2.133486626971531E+05,      /* J =  5 */
(PID.TID 0000.0001)                 2.292584591272880E+05,      /* J =  6 */
(PID.TID 0000.0001)                 2.428369969078989E+05,      /* J =  7 */
(PID.TID 0000.0001)                 2.545652950875683E+05,      /* J =  8 */
(PID.TID 0000.0001)                 2.647274964828301E+05,      /* J =  9 */
(PID.TID 0000.0001)                 2.734980225206389E+05,      /* J = 10 */
(PID.TID 0000.0001)                 2.809856491525217E+05,      /* J = 11 */
(PID.TID 0000.0001)                 2.872580915202295E+05,      /* J = 12 */
(PID.TID 0000.0001)                 2.923567890694162E+05,      /* J = 13 */
(PID.TID 0000.0001)                 2.963063101754721E+05,      /* J = 14 */
(PID.TID 0000.0001)                 2.991205495886625E+05,      /* J = 15 */
(PID.TID 0000.0001)                 3.008068453676764E+05       /* J = 16 */
(PID.TID 0000.0001)     ;
(PID.TID 0000.0001) dyU =  /* dyU(:,1,:,1) ( units: m ) */
(PID.TID 0000.0001)                 8.015229982413632E+04,      /* I =  1 */
(PID.TID 0000.0001)                 1.362652340208229E+05,      /* I =  2 */
(PID.TID 0000.0001)                 1.701080315742101E+05,      /* I =  3 */
(PID.TID 0000.0001)      . . .
(PID.TID 0000.0001)                 1.942331448101592E+05,      /* I = 94 */
(PID.TID 0000.0001)                 1.701080315742101E+05,      /* I = 95 */
(PID.TID 0000.0001)                 1.362652340208229E+05,      /* I = 96 */
(PID.TID 0000.0001)                 3.013031486919771E+05,      /* I = 97 */
(PID.TID 0000.0001)                 3.015274890091515E+05,      /* I = 98 */
(PID.TID 0000.0001)                 3.021908563699420E+05,      /* I = 99 */
(PID.TID 0000.0001)      . . .
(PID.TID 0000.0001)                 3.032648502024415E+05,      /* I =190 */
(PID.TID 0000.0001)                 3.021908563699420E+05,      /* I =191 */
(PID.TID 0000.0001)                 3.015274890091515E+05,      /* I =192 */
(PID.TID 0000.0001)                 8.015229982413632E+04,      /* I =193 */
(PID.TID 0000.0001)                 1.362652340208229E+05,      /* I =194 */
(PID.TID 0000.0001)                 1.701080315742101E+05,      /* I =195 */
(PID.TID 0000.0001)      . . .
(PID.TID 0000.0001)                 1.942331448101592E+05,      /* I =286 */
(PID.TID 0000.0001)                 1.701080315742101E+05,      /* I =287 */
(PID.TID 0000.0001)                 1.362652340208229E+05,      /* I =288 */
(PID.TID 0000.0001)                 3.013031486919771E+05,      /* I =289 */
(PID.TID 0000.0001)                 3.015274890091515E+05,      /* I =290 */
(PID.TID 0000.0001)                 3.021908563699420E+05,      /* I =291 */
(PID.TID 0000.0001)      . . .
(PID.TID 0000.0001)                 3.032648502024415E+05,      /* I =382 */
(PID.TID 0000.0001)                 3.021908563699420E+05,      /* I =383 */
(PID.TID 0000.0001)                 3.015274890091515E+05       /* I =384 */
(PID.TID 0000.0001)     ;
(PID.TID 0000.0001) dyU =  /* dyU(1,:,1,:) ( units: m ) */
(PID.TID 0000.0001)                 8.015229982413632E+04,      /* J =  1 */
(PID.TID 0000.0001)                 1.333130744933864E+05,      /* J =  2 */
(PID.TID 0000.0001)                 1.691744868129062E+05,      /* J =  3 */
(PID.TID 0000.0001)                 1.937548202849060E+05,      /* J =  4 */
(PID.TID 0000.0001)                 2.130490056267208E+05,      /* J =  5 */
(PID.TID 0000.0001)                 2.290479919481738E+05,      /* J =  6 */
(PID.TID 0000.0001)                 2.426774358027003E+05,      /* J =  7 */
(PID.TID 0000.0001)                 2.544372984215561E+05,      /* J =  8 */
(PID.TID 0000.0001)                 2.646201463834826E+05,      /* J =  9 */
(PID.TID 0000.0001)                 2.734046499619031E+05,      /* J = 10 */
(PID.TID 0000.0001)                 2.809019351693761E+05,      /* J = 11 */
(PID.TID 0000.0001)                 2.871811105274442E+05,      /* J = 12 */
(PID.TID 0000.0001)                 2.922844849381675E+05,      /* J = 13 */
(PID.TID 0000.0001)                 2.962371870847826E+05,      /* J = 14 */
(PID.TID 0000.0001)                 2.990534755671296E+05,      /* J = 15 */
(PID.TID 0000.0001)                 3.007409169495504E+05       /* J = 16 */
(PID.TID 0000.0001)     ;
(PID.TID 0000.0001) rA  =  /* rA (:,1,:,1) ( units: m^2 ) */
(PID.TID 0000.0001)                 1.401900702255611E+10,      /* I =  1 */
(PID.TID 0000.0001)                 2.459906945574446E+10,      /* I =  2 */
(PID.TID 0000.0001)                 3.378518544307869E+10,      /* I =  3 */
(PID.TID 0000.0001)      . . .
(PID.TID 0000.0001)                 3.378518544304265E+10,      /* I = 94 */
(PID.TID 0000.0001)                 2.459906945574446E+10,      /* I = 95 */
(PID.TID 0000.0001)                 1.401900702259215E+10,      /* I = 96 */
(PID.TID 0000.0001)                 9.076111290422060E+10,      /* I = 97 */
(PID.TID 0000.0001)                 9.103111035233499E+10,      /* I = 98 */
(PID.TID 0000.0001)                 9.156064070993231E+10,      /* I = 99 */
(PID.TID 0000.0001)      . . .
(PID.TID 0000.0001)                 9.156064070993231E+10,      /* I =190 */
(PID.TID 0000.0001)                 9.103111035233499E+10,      /* I =191 */
(PID.TID 0000.0001)                 9.076111290418457E+10,      /* I =192 */
(PID.TID 0000.0001)                 1.401900702255611E+10,      /* I =193 */
(PID.TID 0000.0001)                 2.459906945574446E+10,      /* I =194 */
(PID.TID 0000.0001)                 3.378518544307869E+10,      /* I =195 */
(PID.TID 0000.0001)      . . .
(PID.TID 0000.0001)                 3.378518544304265E+10,      /* I =286 */
(PID.TID 0000.0001)                 2.459906945574446E+10,      /* I =287 */
(PID.TID 0000.0001)                 1.401900702259215E+10,      /* I =288 */
(PID.TID 0000.0001)                 9.076111290422060E+10,      /* I =289 */
(PID.TID 0000.0001)                 9.103111035233499E+10,      /* I =290 */
(PID.TID 0000.0001)                 9.156064070993231E+10,      /* I =291 */
(PID.TID 0000.0001)      . . .
(PID.TID 0000.0001)                 9.156064070993231E+10,      /* I =382 */
(PID.TID 0000.0001)                 9.103111035233499E+10,      /* I =383 */
(PID.TID 0000.0001)                 9.076111290418457E+10       /* I =384 */
(PID.TID 0000.0001)     ;
(PID.TID 0000.0001) rA  =  /* rA (1,:,1,:) ( units: m^2 ) */
(PID.TID 0000.0001)                 1.401900702255611E+10,      /* J =  1 */
(PID.TID 0000.0001)                 2.459906945574446E+10,      /* J =  2 */
(PID.TID 0000.0001)                 3.378518544307869E+10,      /* J =  3 */
(PID.TID 0000.0001)                 4.192037169898667E+10,      /* J =  4 */
(PID.TID 0000.0001)                 4.925938996118163E+10,      /* J =  5 */
(PID.TID 0000.0001)                 5.594154126607553E+10,      /* J =  6 */
(PID.TID 0000.0001)                 6.203683527776127E+10,      /* J =  7 */
(PID.TID 0000.0001)                 6.757541173817516E+10,      /* J =  8 */
(PID.TID 0000.0001)                 7.256353271748119E+10,      /* J =  9 */
(PID.TID 0000.0001)                 7.699293007098555E+10,      /* J = 10 */
(PID.TID 0000.0001)                 8.084683449728902E+10,      /* J = 11 */
(PID.TID 0000.0001)                 8.410423102799828E+10,      /* J = 12 */
(PID.TID 0000.0001)                 8.674306976737517E+10,      /* J = 13 */
(PID.TID 0000.0001)                 8.874277443041928E+10,      /* J = 14 */
(PID.TID 0000.0001)                 9.008620045350865E+10,      /* J = 15 */
(PID.TID 0000.0001)                 9.076111290418457E+10       /* J = 16 */
(PID.TID 0000.0001)     ;
(PID.TID 0000.0001) rAw =  /* rAw(:,1,:,1) ( units: m^2 ) */
(PID.TID 0000.0001)                 1.216690346714270E+10,      /* I =  1 */
(PID.TID 0000.0001)                 1.974052138506315E+10,      /* I =  2 */
(PID.TID 0000.0001)                 2.943712825252015E+10,      /* I =  3 */
(PID.TID 0000.0001)      . . .
(PID.TID 0000.0001)                 3.801790263325260E+10,      /* I = 94 */
(PID.TID 0000.0001)                 2.943712825251114E+10,      /* I = 95 */
(PID.TID 0000.0001)                 1.974052138509018E+10,      /* I = 96 */
(PID.TID 0000.0001)                 9.071447638299399E+10,      /* I = 97 */
(PID.TID 0000.0001)                 9.085012105610597E+10,      /* I = 98 */
(PID.TID 0000.0001)                 9.125179254955583E+10,      /* I = 99 */
(PID.TID 0000.0001)      . . .
(PID.TID 0000.0001)                 9.190392048045309E+10,      /* I =190 */
(PID.TID 0000.0001)                 9.125179254954683E+10,      /* I =191 */
(PID.TID 0000.0001)                 9.085012105606993E+10,      /* I =192 */
(PID.TID 0000.0001)                 1.216690346714270E+10,      /* I =193 */
(PID.TID 0000.0001)                 1.974052138506315E+10,      /* I =194 */
(PID.TID 0000.0001)                 2.943712825252015E+10,      /* I =195 */
(PID.TID 0000.0001)      . . .
(PID.TID 0000.0001)                 3.801790263325260E+10,      /* I =286 */
(PID.TID 0000.0001)                 2.943712825251114E+10,      /* I =287 */
(PID.TID 0000.0001)                 1.974052138509018E+10,      /* I =288 */
(PID.TID 0000.0001)                 9.071447638299399E+10,      /* I =289 */
(PID.TID 0000.0001)                 9.085012105610597E+10,      /* I =290 */
(PID.TID 0000.0001)                 9.125179254955583E+10,      /* I =291 */
(PID.TID 0000.0001)      . . .
(PID.TID 0000.0001)                 9.190392048045309E+10,      /* I =382 */
(PID.TID 0000.0001)                 9.125179254954683E+10,      /* I =383 */
(PID.TID 0000.0001)                 9.085012105606993E+10       /* I =384 */
(PID.TID 0000.0001)     ;
(PID.TID 0000.0001) rAw =  /* rAw(1,:,1,:) ( units: m^2 ) */
(PID.TID 0000.0001)                 1.216690346714270E+10,      /* J =  1 */
(PID.TID 0000.0001)                 2.390126200743558E+10,      /* J =  2 */
(PID.TID 0000.0001)                 3.341968103208270E+10,      /* J =  3 */
(PID.TID 0000.0001)                 4.168532893152940E+10,      /* J =  4 */
(PID.TID 0000.0001)                 4.909074590409593E+10,      /* J =  5 */
(PID.TID 0000.0001)                 5.581203765722643E+10,      /* J =  6 */
(PID.TID 0000.0001)                 6.193257577506788E+10,      /* J =  7 */
(PID.TID 0000.0001)                 6.748840226738273E+10,      /* J =  8 */
(PID.TID 0000.0001)                 7.248875782324815E+10,      /* J =  9 */
(PID.TID 0000.0001)                 7.692702995909871E+10,      /* J = 10 */
(PID.TID 0000.0001)                 8.078743937057304E+10,      /* J = 11 */
(PID.TID 0000.0001)                 8.404959656062837E+10,      /* J = 12 */
(PID.TID 0000.0001)                 8.669186205742538E+10,      /* J = 13 */
(PID.TID 0000.0001)                 8.869393350723613E+10,      /* J = 14 */
(PID.TID 0000.0001)                 9.003884657168852E+10,      /* J = 15 */
(PID.TID 0000.0001)                 9.071447638299399E+10       /* J = 16 */
(PID.TID 0000.0001)     ;
(PID.TID 0000.0001) rAs =  /* rAs(:,1,:,1) ( units: m^2 ) */
(PID.TID 0000.0001)                 1.216690346714270E+10,      /* I =  1 */
(PID.TID 0000.0001)                 2.390126200743558E+10,      /* I =  2 */
(PID.TID 0000.0001)                 3.341968103208270E+10,      /* I =  3 */
(PID.TID 0000.0001)      . . .
(PID.TID 0000.0001)                 3.341968103208270E+10,      /* I = 94 */
(PID.TID 0000.0001)                 2.390126200743558E+10,      /* I = 95 */
(PID.TID 0000.0001)                 1.216690346714270E+10,      /* I = 96 */
(PID.TID 0000.0001)                 9.083293515008307E+10,      /* I = 97 */
(PID.TID 0000.0001)                 9.110170898494536E+10,      /* I = 98 */
(PID.TID 0000.0001)                 9.162886297688426E+10,      /* I = 99 */
(PID.TID 0000.0001)      . . .
(PID.TID 0000.0001)                 9.162886297688426E+10,      /* I =190 */
(PID.TID 0000.0001)                 9.110170898494536E+10,      /* I =191 */
(PID.TID 0000.0001)                 9.083293515008307E+10,      /* I =192 */
(PID.TID 0000.0001)                 1.216690346714270E+10,      /* I =193 */
(PID.TID 0000.0001)                 2.390126200743558E+10,      /* I =194 */
(PID.TID 0000.0001)                 3.341968103208270E+10,      /* I =195 */
(PID.TID 0000.0001)      . . .
(PID.TID 0000.0001)                 3.341968103208270E+10,      /* I =286 */
(PID.TID 0000.0001)                 2.390126200743558E+10,      /* I =287 */
(PID.TID 0000.0001)                 1.216690346714270E+10,      /* I =288 */
(PID.TID 0000.0001)                 9.083293515008307E+10,      /* I =289 */
(PID.TID 0000.0001)                 9.110170898494536E+10,      /* I =290 */
(PID.TID 0000.0001)                 9.162886297688426E+10,      /* I =291 */
(PID.TID 0000.0001)      . . .
(PID.TID 0000.0001)                 9.162886297688426E+10,      /* I =382 */
(PID.TID 0000.0001)                 9.110170898494536E+10,      /* I =383 */
(PID.TID 0000.0001)                 9.083293515008307E+10       /* I =384 */
(PID.TID 0000.0001)     ;
(PID.TID 0000.0001) rAs =  /* rAs(1,:,1,:) ( units: m^2 ) */
(PID.TID 0000.0001)                 1.216690346714270E+10,      /* J =  1 */
(PID.TID 0000.0001)                 1.974052138506315E+10,      /* J =  2 */
(PID.TID 0000.0001)                 2.943712825252015E+10,      /* J =  3 */
(PID.TID 0000.0001)                 3.801790263324359E+10,      /* J =  4 */
(PID.TID 0000.0001)                 4.571243814189866E+10,      /* J =  5 */
(PID.TID 0000.0001)                 5.269930713599979E+10,      /* J =  6 */
(PID.TID 0000.0001)                 5.907428494299063E+10,      /* J =  7 */
(PID.TID 0000.0001)                 6.488320895111514E+10,      /* J =  8 */
(PID.TID 0000.0001)                 7.014205907741882E+10,      /* J =  9 */
(PID.TID 0000.0001)                 7.484854821847499E+10,      /* J = 10 */
(PID.TID 0000.0001)                 7.898934631431560E+10,      /* J = 11 */
(PID.TID 0000.0001)                 8.254500894894537E+10,      /* J = 12 */
(PID.TID 0000.0001)                 8.549360686473492E+10,      /* J = 13 */
(PID.TID 0000.0001)                 8.781353403175085E+10,      /* J = 14 */
(PID.TID 0000.0001)                 8.948571540392021E+10,      /* J = 15 */
(PID.TID 0000.0001)                 9.049530583086168E+10       /* J = 16 */
(PID.TID 0000.0001)     ;
(PID.TID 0000.0001) globalArea = /* Integrated horizontal Area (m^2) */
(PID.TID 0000.0001)                 3.638867375081599E+14
(PID.TID 0000.0001)     ;
(PID.TID 0000.0001) hasWetCSCorners = /* Domain contains CS corners (True/False) */
(PID.TID 0000.0001)                   T
(PID.TID 0000.0001)     ;
(PID.TID 0000.0001) // =======================================================
(PID.TID 0000.0001) // End of Model config. summary
(PID.TID 0000.0001) // =======================================================
(PID.TID 0000.0001) 
(PID.TID 0000.0001) == Packages configuration : Check & print summary ==
(PID.TID 0000.0001) 
(PID.TID 0000.0001) GGL90_CHECK: #define ALLOW_GGL90
(PID.TID 0000.0001) GGL90_CHECK: Some form of convection has been enabled
(PID.TID 0000.0001) EXF_CHECK: #define ALLOW_EXF
(PID.TID 0000.0001) SEAICE_CHECK: #define ALLOW_SEAICE
(PID.TID 0000.0001) GAD_CHECK: #define ALLOW_GENERIC_ADVDIFF
(PID.TID 0000.0001) // =======================================================
(PID.TID 0000.0001) // Check Model config. (CONFIG_CHECK):
(PID.TID 0000.0001) // CONFIG_CHECK : Normal End
(PID.TID 0000.0001) // =======================================================
(PID.TID 0000.0001) 
(PID.TID 0000.0001)  MDS_READ_FIELD: opening global file: lev_T_cs_flip15.bin
(PID.TID 0000.0001)  MDS_READ_FIELD: opening global file: lev_S_cs_flip15.bin
(PID.TID 0000.0001) Start initial hydrostatic pressure computation
(PID.TID 0000.0001) Pressure is predetermined for buoyancyRelation OCEANICP
(PID.TID 0000.0001) 
(PID.TID 0000.0001) DIAGSTATS_INI_IO: open file: dynStDiag.0000000000.txt , unit=     9
(PID.TID 0000.0001) DIAGSTATS_INI_IO: open file: seaiceStDiag.0000000000.txt , unit=    10
(PID.TID 0000.0001)  write diagnostics summary to file ioUnit:      6
Iter.Nb:         0 ; Time(s):  0.0000000000000E+00
------------------------------------------------------------------------
2D/3D diagnostics: Number of lists:     4
------------------------------------------------------------------------
listId=    1 ; file name: surfDiag
 nFlds, nActive,       freq     &     phase        , nLev               
   11  |   11  |  15552000.000000         0.000000 |   1
 levels:   1
 diag# | name   |   ipt  |  iMate | kLev|   count |   mate.C|           
    23 |ETAN    |      1 |      0 |   1 |       0 |
    24 |ETANSQ  |      2 |      0 |   1 |       0 |
    25 |DETADT2 |      3 |      0 |   1 |       0 |
    73 |PHIBOT  |      4 |      0 |   1 |       0 |
    74 |PHIBOTSQ|      5 |      0 |   1 |       0 |
    82 |oceTAUX |      6 |      7 |   1 |       0 |       0 |
    83 |oceTAUY |      7 |      6 |   1 |       0 |       0 |
    88 |oceQnet |      8 |      0 |   1 |       0 |
    87 |oceSflux|      9 |      0 |   1 |       0 |
    86 |oceFWflx|     10 |      0 |   1 |       0 |
    78 |MXLDEPTH|     11 |      0 |   1 |       0 |
------------------------------------------------------------------------
listId=    2 ; file name: dynDiag
 nFlds, nActive,       freq     &     phase        , nLev               
   15  |   15  |  15552000.000000         0.000000 |  15
 levels:   1   2   3   4   5   6   7   8   9  10  11  12  13  14  15
 diag# | name   |   ipt  |  iMate | kLev|   count |   mate.C|           
    30 |UVEL    |     12 |     27 |  15 |       0 |       0 |
    31 |VVEL    |     27 |     12 |  15 |       0 |       0 |
    32 |WVEL    |     42 |      0 |  15 |       0 |
    71 |PHIHYD  |     57 |      0 |  15 |       0 |
    46 |VVELMASS|     72 |     87 |  15 |       0 |       0 |
    45 |UVELMASS|     87 |     72 |  15 |       0 |       0 |
    38 |WVELSQ  |    102 |      0 |  15 |       0 |
    26 |THETA   |    117 |      0 |  15 |       0 |
    50 |UTHMASS |    132 |    147 |  15 |       0 |       0 |
    51 |VTHMASS |    147 |    132 |  15 |       0 |       0 |
    52 |WTHMASS |    162 |      0 |  15 |       0 |
    27 |SALT    |    177 |      0 |  15 |       0 |
    53 |USLTMASS|    192 |    207 |  15 |       0 |       0 |
    54 |VSLTMASS|    207 |    192 |  15 |       0 |       0 |
    55 |WSLTMASS|    222 |      0 |  15 |       0 |
------------------------------------------------------------------------
listId=    3 ; file name: oceDiag
 nFlds, nActive,       freq     &     phase        , nLev               
    7  |    7  |  15552000.000000         0.000000 |  15
 levels:   1   2   3   4   5   6   7   8   9  10  11  12  13  14  15
 diag# | name   |   ipt  |  iMate | kLev|   count |   mate.C|           
    79 |DRHODR  |    237 |      0 |  15 |       0 |
    64 |RHOAnoma|    252 |      0 |  15 |       0 |
   231 |GGL90TKE|    267 |      0 |  15 |       0 |
   237 |GGL90Kr |    282 |      0 |  15 |       0 |
   233 |GGL90Lmx|    297 |      0 |  15 |       0 |
   241 |IDEMIX_E|    312 |      0 |  15 |       0 |
   246 |IDEMIX_K|    327 |      0 |  15 |       0 |
------------------------------------------------------------------------
listId=    4 ; file name: seaiceDiag
 nFlds, nActive,       freq     &     phase        , nLev               
    5  |    5  |  15552000.000000         0.000000 |   1
 levels:   1
 diag# | name   |   ipt  |  iMate | kLev|   count |   mate.C|           
   254 |SIheff  |    342 |      0 |   1 |       0 |
   251 |SIarea  |    343 |      0 |   1 |       0 |
   256 |SIhsnow |    344 |      0 |   1 |       0 |
   268 |SIuice  |    345 |    346 |   1 |       0 |       0 |
   269 |SIvice  |    346 |    345 |   1 |       0 |       0 |
------------------------------------------------------------------------
Global & Regional Statistics diagnostics: Number of lists:     2
------------------------------------------------------------------------
listId=   1 ; file name: dynStDiag
 nFlds, nActive,       freq     &     phase        |                    
    9  |    9  |    864000.000000         0.000000 |
 Regions:   0
 diag# | name   |   ipt  |  iMate |    Volume   |   mate-Vol. |         
    23 |ETAN    |      1 |      0 | 0.00000E+00 |
    25 |DETADT2 |      2 |      0 | 0.00000E+00 |
    81 |GCM_SST |      3 |      0 | 0.00000E+00 |
    30 |UVEL    |      4 |      0 | 0.00000E+00 |
    31 |VVEL    |     19 |      0 | 0.00000E+00 |
    32 |WVEL    |     34 |      0 | 0.00000E+00 |
    26 |THETA   |     49 |      0 | 0.00000E+00 |
    27 |SALT    |     64 |      0 | 0.00000E+00 |
    80 |CONVADJ |     79 |      0 | 0.00000E+00 |
------------------------------------------------------------------------
listId=   2 ; file name: seaiceStDiag
 nFlds, nActive,       freq     &     phase        |                    
    5  |    5  |    864000.000000         0.000000 |
 Regions:   0  1  3
 diag# | name   |   ipt  |  iMate |    Volume   |   mate-Vol. |         
   254 |SIheff  |     94 |      0 | 0.00000E+00 |
   251 |SIarea  |     95 |      0 | 0.00000E+00 |
   256 |SIhsnow |     96 |      0 | 0.00000E+00 |
   268 |SIuice  |     97 |      0 | 0.00000E+00 |
   269 |SIvice  |     98 |      0 | 0.00000E+00 |
------------------------------------------------------------------------
(PID.TID 0000.0001)  MDS_READ_FIELD: opening global file: idemix_tidal_forcing.192x32.bin
(PID.TID 0000.0001)  MDS_READ_FIELD: opening global file: idemix_wind_forcing.192x32.bin
(PID.TID 0000.0001) // =======================================================
(PID.TID 0000.0001) // Model current state
(PID.TID 0000.0001) // =======================================================
(PID.TID 0000.0001) 
(PID.TID 0000.0001) // =======================================================
(PID.TID 0000.0001) // Begin MONITOR dynamic field statistics
(PID.TID 0000.0001) // =======================================================
(PID.TID 0000.0001) %MON time_tsnumber                =                     0
(PID.TID 0000.0001) %MON time_secondsf                =   0.0000000000000E+00
(PID.TID 0000.0001) %MON dynstat_eta_max              =   0.0000000000000E+00
(PID.TID 0000.0001) %MON dynstat_eta_min              =   0.0000000000000E+00
(PID.TID 0000.0001) %MON dynstat_eta_mean             =   0.0000000000000E+00
(PID.TID 0000.0001) %MON dynstat_eta_sd               =   0.0000000000000E+00
(PID.TID 0000.0001) %MON dynstat_eta_del2             =   0.0000000000000E+00
(PID.TID 0000.0001) %MON dynstat_uvel_max             =   0.0000000000000E+00
(PID.TID 0000.0001) %MON dynstat_uvel_min             =   0.0000000000000E+00
(PID.TID 0000.0001) %MON dynstat_uvel_mean            =   0.0000000000000E+00
(PID.TID 0000.0001) %MON dynstat_uvel_sd              =   0.0000000000000E+00
(PID.TID 0000.0001) %MON dynstat_uvel_del2            =   0.0000000000000E+00
(PID.TID 0000.0001) %MON dynstat_vvel_max             =   0.0000000000000E+00
(PID.TID 0000.0001) %MON dynstat_vvel_min             =   0.0000000000000E+00
(PID.TID 0000.0001) %MON dynstat_vvel_mean            =   0.0000000000000E+00
(PID.TID 0000.0001) %MON dynstat_vvel_sd              =   0.0000000000000E+00
(PID.TID 0000.0001) %MON dynstat_vvel_del2            =   0.0000000000000E+00
(PID.TID 0000.0001) %MON dynstat_wvel_max             =   0.0000000000000E+00
(PID.TID 0000.0001) %MON dynstat_wvel_min             =   0.0000000000000E+00
(PID.TID 0000.0001) %MON dynstat_wvel_mean            =   0.0000000000000E+00
(PID.TID 0000.0001) %MON dynstat_wvel_sd              =   0.0000000000000E+00
(PID.TID 0000.0001) %MON dynstat_wvel_del2            =   0.0000000000000E+00
(PID.TID 0000.0001) %MON dynstat_theta_max            =   2.9382676376985E+01
(PID.TID 0000.0001) %MON dynstat_theta_min            =  -1.8552983134796E+00
(PID.TID 0000.0001) %MON dynstat_theta_mean           =   3.5911800119018E+00
(PID.TID 0000.0001) %MON dynstat_theta_sd             =   4.4266930247071E+00
(PID.TID 0000.0001) %MON dynstat_theta_del2           =   2.1326598561892E-03
(PID.TID 0000.0001) %MON dynstat_salt_max             =   4.0715748807407E+01
(PID.TID 0000.0001) %MON dynstat_salt_min             =   1.8144841495627E+01
(PID.TID 0000.0001) %MON dynstat_salt_mean            =   3.4721450909937E+01
(PID.TID 0000.0001) %MON dynstat_salt_sd              =   4.8791814713556E-01
(PID.TID 0000.0001) %MON dynstat_salt_del2            =   5.1558447735922E-04
(PID.TID 0000.0001) %MON forcing_qnet_max             =   0.0000000000000E+00
(PID.TID 0000.0001) %MON forcing_qnet_min             =   0.0000000000000E+00
(PID.TID 0000.0001) %MON forcing_qnet_mean            =   0.0000000000000E+00
(PID.TID 0000.0001) %MON forcing_qnet_sd              =   0.0000000000000E+00
(PID.TID 0000.0001) %MON forcing_qnet_del2            =   0.0000000000000E+00
(PID.TID 0000.0001) %MON forcing_qsw_max              =   0.0000000000000E+00
(PID.TID 0000.0001) %MON forcing_qsw_min              =   0.0000000000000E+00
(PID.TID 0000.0001) %MON forcing_qsw_mean             =   0.0000000000000E+00
(PID.TID 0000.0001) %MON forcing_qsw_sd               =   0.0000000000000E+00
(PID.TID 0000.0001) %MON forcing_qsw_del2             =   0.0000000000000E+00
(PID.TID 0000.0001) %MON forcing_empmr_max            =   0.0000000000000E+00
(PID.TID 0000.0001) %MON forcing_empmr_min            =   0.0000000000000E+00
(PID.TID 0000.0001) %MON forcing_empmr_mean           =   0.0000000000000E+00
(PID.TID 0000.0001) %MON forcing_empmr_sd             =   0.0000000000000E+00
(PID.TID 0000.0001) %MON forcing_empmr_del2           =   0.0000000000000E+00
(PID.TID 0000.0001) %MON forcing_fu_max               =   0.0000000000000E+00
(PID.TID 0000.0001) %MON forcing_fu_min               =   0.0000000000000E+00
(PID.TID 0000.0001) %MON forcing_fu_mean              =   0.0000000000000E+00
(PID.TID 0000.0001) %MON forcing_fu_sd                =   0.0000000000000E+00
(PID.TID 0000.0001) %MON forcing_fu_del2              =   0.0000000000000E+00
(PID.TID 0000.0001) %MON forcing_fv_max               =   0.0000000000000E+00
(PID.TID 0000.0001) %MON forcing_fv_min               =   0.0000000000000E+00
(PID.TID 0000.0001) %MON forcing_fv_mean              =   0.0000000000000E+00
(PID.TID 0000.0001) %MON forcing_fv_sd                =   0.0000000000000E+00
(PID.TID 0000.0001) %MON forcing_fv_del2              =   0.0000000000000E+00
(PID.TID 0000.0001) %MON trAdv_CFL_u_max              =   0.0000000000000E+00
(PID.TID 0000.0001) %MON trAdv_CFL_v_max              =   0.0000000000000E+00
(PID.TID 0000.0001) %MON trAdv_CFL_w_max              =   0.0000000000000E+00
(PID.TID 0000.0001) %MON advcfl_uvel_max              =   0.0000000000000E+00
(PID.TID 0000.0001) %MON advcfl_vvel_max              =   0.0000000000000E+00
(PID.TID 0000.0001) %MON advcfl_wvel_max              =   0.0000000000000E+00
(PID.TID 0000.0001) %MON advcfl_W_hf_max              =   0.0000000000000E+00
(PID.TID 0000.0001) %MON pe_b_mean                    =   0.0000000000000E+00
(PID.TID 0000.0001) %MON ke_max                       =   0.0000000000000E+00
(PID.TID 0000.0001) %MON ke_mean                      =   0.0000000000000E+00
(PID.TID 0000.0001) %MON ke_vol                       =   1.3604176684230E+22
(PID.TID 0000.0001) %MON vort_r_min                   =   0.0000000000000E+00
(PID.TID 0000.0001) %MON vort_r_max                   =   0.0000000000000E+00
(PID.TID 0000.0001) %MON vort_a_mean                  =  -2.0556865257795E-05
(PID.TID 0000.0001) %MON vort_a_sd                    =   7.5247403105505E-05
(PID.TID 0000.0001) %MON vort_p_mean                  =  -2.4859393568698E-05
(PID.TID 0000.0001) %MON vort_p_sd                    =   1.2918978855221E-04
(PID.TID 0000.0001) %MON surfExpan_theta_mean         =   0.0000000000000E+00
(PID.TID 0000.0001) %MON surfExpan_salt_mean          =   0.0000000000000E+00
(PID.TID 0000.0001) // =======================================================
(PID.TID 0000.0001) // End MONITOR dynamic field statistics
(PID.TID 0000.0001) // =======================================================
(PID.TID 0000.0001) // =======================================================
(PID.TID 0000.0001) // Begin MONITOR SEAICE statistics
(PID.TID 0000.0001) // =======================================================
(PID.TID 0000.0001) %MON seaice_tsnumber              =                     0
(PID.TID 0000.0001) %MON seaice_time_sec              =   0.0000000000000E+00
(PID.TID 0000.0001) %MON seaice_uice_max              =   0.0000000000000E+00
(PID.TID 0000.0001) %MON seaice_uice_min              =   0.0000000000000E+00
(PID.TID 0000.0001) %MON seaice_uice_mean             =   0.0000000000000E+00
(PID.TID 0000.0001) %MON seaice_uice_sd               =   0.0000000000000E+00
(PID.TID 0000.0001) %MON seaice_uice_del2             =   0.0000000000000E+00
(PID.TID 0000.0001) %MON seaice_vice_max              =   0.0000000000000E+00
(PID.TID 0000.0001) %MON seaice_vice_min              =   0.0000000000000E+00
(PID.TID 0000.0001) %MON seaice_vice_mean             =   0.0000000000000E+00
(PID.TID 0000.0001) %MON seaice_vice_sd               =   0.0000000000000E+00
(PID.TID 0000.0001) %MON seaice_vice_del2             =   0.0000000000000E+00
(PID.TID 0000.0001) %MON seaice_area_max              =   0.0000000000000E+00
(PID.TID 0000.0001) %MON seaice_area_min              =   0.0000000000000E+00
(PID.TID 0000.0001) %MON seaice_area_mean             =   0.0000000000000E+00
(PID.TID 0000.0001) %MON seaice_area_sd               =   0.0000000000000E+00
(PID.TID 0000.0001) %MON seaice_area_del2             =   0.0000000000000E+00
(PID.TID 0000.0001) %MON seaice_heff_max              =   0.0000000000000E+00
(PID.TID 0000.0001) %MON seaice_heff_min              =   0.0000000000000E+00
(PID.TID 0000.0001) %MON seaice_heff_mean             =   0.0000000000000E+00
(PID.TID 0000.0001) %MON seaice_heff_sd               =   0.0000000000000E+00
(PID.TID 0000.0001) %MON seaice_heff_del2             =   0.0000000000000E+00
(PID.TID 0000.0001) %MON seaice_hsnow_max             =   0.0000000000000E+00
(PID.TID 0000.0001) %MON seaice_hsnow_min             =   0.0000000000000E+00
(PID.TID 0000.0001) %MON seaice_hsnow_mean            =   0.0000000000000E+00
(PID.TID 0000.0001) %MON seaice_hsnow_sd              =   0.0000000000000E+00
(PID.TID 0000.0001) %MON seaice_hsnow_del2            =   0.0000000000000E+00
(PID.TID 0000.0001) // =======================================================
(PID.TID 0000.0001) // End MONITOR SEAICE statistics
(PID.TID 0000.0001) // =======================================================
(PID.TID 0000.0001)  MDS_READ_FIELD: opening global file: lev_surfT_cs_12m.bin
(PID.TID 0000.0001)  MDS_READ_FIELD: opening global file: lev_surfT_cs_12m.bin
(PID.TID 0000.0001)  MDS_READ_FIELD: opening global file: lev_surfS_cs_12m.bin
(PID.TID 0000.0001)  MDS_READ_FIELD: opening global file: lev_surfS_cs_12m.bin
(PID.TID 0000.0001)  MDS_READ_FIELD: opening global file: trenberth_taux.bin
(PID.TID 0000.0001)  MDS_READ_FIELD: opening global file: trenberth_taux.bin
(PID.TID 0000.0001)  MDS_READ_FIELD: opening global file: trenberth_tauy.bin
(PID.TID 0000.0001)  MDS_READ_FIELD: opening global file: trenberth_tauy.bin
(PID.TID 0000.0001)  MDS_READ_FIELD: opening global file: core_wndSpd_cs32.bin
(PID.TID 0000.0001)  MDS_READ_FIELD: opening global file: core_wndSpd_cs32.bin
(PID.TID 0000.0001)  MDS_READ_FIELD: opening global file: core_t_Air_cs32.bin
(PID.TID 0000.0001)  MDS_READ_FIELD: opening global file: core_t_Air_cs32.bin
(PID.TID 0000.0001)  MDS_READ_FIELD: opening global file: core_q_air_cs32.bin
(PID.TID 0000.0001)  MDS_READ_FIELD: opening global file: core_q_air_cs32.bin
(PID.TID 0000.0001)  MDS_READ_FIELD: opening global file: core_prec_1_cs32.bin
(PID.TID 0000.0001)  MDS_READ_FIELD: opening global file: core_prec_1_cs32.bin
(PID.TID 0000.0001)  MDS_READ_FIELD: opening global file: core_dwnSw_cs32.bin
(PID.TID 0000.0001)  MDS_READ_FIELD: opening global file: core_dwnSw_cs32.bin
(PID.TID 0000.0001)  MDS_READ_FIELD: opening global file: core_dwnLw_cs32.bin
(PID.TID 0000.0001)  MDS_READ_FIELD: opening global file: core_dwnLw_cs32.bin
(PID.TID 0000.0001)  MDS_READ_FIELD: opening global file: core_rnof_1_cs32.bin
(PID.TID 0000.0001)  MDS_READ_FIELD: opening global file: core_rnof_1_cs32.bin
(PID.TID 0000.0001)  MDS_READ_FIELD: opening global file: runoff_temperature.bin
(PID.TID 0000.0001)  MDS_READ_FIELD: opening global file: runoff_temperature.bin
 EXTERNAL_FIELDS_LOAD,         0 : iP,iLd,i0,i1=   12    0   12    1 ; Wght=  0.5000000000  0.5000000000
 EXTERNAL_FIELDS_LOAD, it=         0 : Reading new data, i0,i1=   12    1 (prev=   12    0 )
 SEAICE_LSR: Residual Initial ipass,Uice,Vice=         1  0.00000000E+00  0.00000000E+00
 SEAICE_LSR (ipass=        1) iters,dU,Resid=        2  0.00000000E+00  0.00000000E+00
 SEAICE_LSR (ipass=        1) iters,dV,Resid=        2  0.00000000E+00  0.00000000E+00
 SEAICE_LSR: Residual Initial ipass,Uice,Vice=         2  0.00000000E+00  0.00000000E+00
 SEAICE_LSR (ipass=        2) iters,dU,Resid=        2  0.00000000E+00  0.00000000E+00
 SEAICE_LSR (ipass=        2) iters,dV,Resid=        2  0.00000000E+00  0.00000000E+00
(PID.TID 0000.0001) SOLVE_FOR_PRESSURE: putPmEinXvector =    F
(PID.TID 0000.0001) SOLVE_FOR_PRESSURE: oldFreeSurfTerm =    F
 cg2d: Sum(rhs),rhsMax =   3.01089116401272E-02  1.58090187952693E+01
(PID.TID 0000.0001)      cg2d_init_res =   1.28067079790822E+01
(PID.TID 0000.0001)      cg2d_iters(min,last) =      -1     113
(PID.TID 0000.0001)      cg2d_last_res =   9.61288258550045E-10
(PID.TID 0000.0001) // =======================================================
(PID.TID 0000.0001) // Begin MONITOR dynamic field statistics
(PID.TID 0000.0001) // =======================================================
(PID.TID 0000.0001) %MON time_tsnumber                =                     1
(PID.TID 0000.0001) %MON time_secondsf                =   8.6400000000000E+04
(PID.TID 0000.0001) %MON dynstat_eta_max              =   1.3486148641162E+04
(PID.TID 0000.0001) %MON dynstat_eta_min              =  -1.2618545357513E+04
(PID.TID 0000.0001) %MON dynstat_eta_mean             =  -7.1882053107191E+00
(PID.TID 0000.0001) %MON dynstat_eta_sd               =   3.6780779142326E+03
(PID.TID 0000.0001) %MON dynstat_eta_del2             =   7.3889394528551E+01
(PID.TID 0000.0001) %MON dynstat_uvel_max             =   1.8531317509873E-02
(PID.TID 0000.0001) %MON dynstat_uvel_min             =  -2.2880347109235E-02
(PID.TID 0000.0001) %MON dynstat_uvel_mean            =  -1.3222189292510E-04
(PID.TID 0000.0001) %MON dynstat_uvel_sd              =   1.3820791570420E-03
(PID.TID 0000.0001) %MON dynstat_uvel_del2            =   6.9075782306122E-06
(PID.TID 0000.0001) %MON dynstat_vvel_max             =   5.5575680961503E-02
(PID.TID 0000.0001) %MON dynstat_vvel_min             =  -2.8180187163101E-02
(PID.TID 0000.0001) %MON dynstat_vvel_mean            =  -3.1878857109662E-05
(PID.TID 0000.0001) %MON dynstat_vvel_sd              =   1.4568050274899E-03
(PID.TID 0000.0001) %MON dynstat_vvel_del2            =   7.1740483929761E-06
(PID.TID 0000.0001) %MON dynstat_wvel_max             =   9.4575810480311E-01
(PID.TID 0000.0001) %MON dynstat_wvel_min             =  -1.5153808208105E+00
(PID.TID 0000.0001) %MON dynstat_wvel_mean            =   4.3601916340135E-03
(PID.TID 0000.0001) %MON dynstat_wvel_sd              =   4.9239127415830E-02
(PID.TID 0000.0001) %MON dynstat_wvel_del2            =   4.3631125870280E-04
(PID.TID 0000.0001) %MON dynstat_theta_max            =   2.9392809720264E+01
(PID.TID 0000.0001) %MON dynstat_theta_min            =  -1.8744449393007E+00
(PID.TID 0000.0001) %MON dynstat_theta_mean           =   3.5912753907054E+00
(PID.TID 0000.0001) %MON dynstat_theta_sd             =   4.4270705844579E+00
(PID.TID 0000.0001) %MON dynstat_theta_del2           =   2.1212741602260E-03
(PID.TID 0000.0001) %MON dynstat_salt_max             =   4.0715774689715E+01
(PID.TID 0000.0001) %MON dynstat_salt_min             =   1.8145208929025E+01
(PID.TID 0000.0001) %MON dynstat_salt_mean            =   3.4721454303851E+01
(PID.TID 0000.0001) %MON dynstat_salt_sd              =   4.8787681075309E-01
(PID.TID 0000.0001) %MON dynstat_salt_del2            =   5.1445887014596E-04
(PID.TID 0000.0001) %MON forcing_qnet_max             =   7.0395185950993E+02
(PID.TID 0000.0001) %MON forcing_qnet_min             =  -3.1780481308873E+02
(PID.TID 0000.0001) %MON forcing_qnet_mean            =  -1.7632783892798E+01
(PID.TID 0000.0001) %MON forcing_qnet_sd              =   1.7951574129751E+02
(PID.TID 0000.0001) %MON forcing_qnet_del2            =   8.7404342522229E-01
(PID.TID 0000.0001) %MON forcing_qsw_max              =   0.0000000000000E+00
(PID.TID 0000.0001) %MON forcing_qsw_min              =  -3.0191527312954E+02
(PID.TID 0000.0001) %MON forcing_qsw_mean             =  -1.8592646878981E+02
(PID.TID 0000.0001) %MON forcing_qsw_sd               =   7.9310439395766E+01
(PID.TID 0000.0001) %MON forcing_qsw_del2             =   1.1059481284686E-01
(PID.TID 0000.0001) %MON forcing_empmr_max            =   1.8208758856008E-03
(PID.TID 0000.0001) %MON forcing_empmr_min            =  -4.4440967855388E-04
(PID.TID 0000.0001) %MON forcing_empmr_mean           =   8.4808176071267E-06
(PID.TID 0000.0001) %MON forcing_empmr_sd             =   1.2279246931958E-04
(PID.TID 0000.0001) %MON forcing_empmr_del2           =   1.9091621078252E-06
(PID.TID 0000.0001) %MON forcing_fu_max               =   2.4760613571392E-01
(PID.TID 0000.0001) %MON forcing_fu_min               =  -2.0293190974520E-01
(PID.TID 0000.0001) %MON forcing_fu_mean              =  -4.5478806648627E-03
(PID.TID 0000.0001) %MON forcing_fu_sd                =   6.3937396831278E-02
(PID.TID 0000.0001) %MON forcing_fu_del2              =   2.0509729664672E-04
(PID.TID 0000.0001) %MON forcing_fv_max               =   2.5281098043587E-01
(PID.TID 0000.0001) %MON forcing_fv_min               =  -3.2691992401999E-01
(PID.TID 0000.0001) %MON forcing_fv_mean              =  -1.3684501518858E-02
(PID.TID 0000.0001) %MON forcing_fv_sd                =   7.5153512230531E-02
(PID.TID 0000.0001) %MON forcing_fv_del2              =   2.3373863441584E-04
(PID.TID 0000.0001) %MON trAdv_CFL_u_max              =   1.0990682906508E-02
(PID.TID 0000.0001) %MON trAdv_CFL_v_max              =   1.8821353622142E-02
(PID.TID 0000.0001) %MON trAdv_CFL_w_max              =   3.9435986496095E-02
(PID.TID 0000.0001) %MON advcfl_uvel_max              =   6.8320974727535E-03
(PID.TID 0000.0001) %MON advcfl_vvel_max              =   1.8134880407909E-02
(PID.TID 0000.0001) %MON advcfl_wvel_max              =   4.3183448771481E-02
(PID.TID 0000.0001) %MON advcfl_W_hf_max              =   4.7717913245031E-02
(PID.TID 0000.0001) %MON pe_b_mean                    =   6.7173103026139E-03
(PID.TID 0000.0001) %MON ke_max                       =   8.0460487170736E-04
(PID.TID 0000.0001) %MON ke_mean                      =   1.8705840708128E-06
(PID.TID 0000.0001) %MON ke_vol                       =   1.3604176684230E+22
(PID.TID 0000.0001) %MON vort_r_min                   =  -2.2188473105259E-07
(PID.TID 0000.0001) %MON vort_r_max                   =   2.6877206922782E-07
(PID.TID 0000.0001) %MON vort_a_mean                  =  -2.0556865257795E-05
(PID.TID 0000.0001) %MON vort_a_sd                    =   7.5247374436230E-05
(PID.TID 0000.0001) %MON vort_p_mean                  =  -2.4859393568698E-05
(PID.TID 0000.0001) %MON vort_p_sd                    =   1.2919000106987E-04
(PID.TID 0000.0001) %MON surfExpan_theta_mean         =   2.2542382663732E-03
(PID.TID 0000.0001) %MON surfExpan_salt_mean          =  -1.8775679637728E-03
(PID.TID 0000.0001) // =======================================================
(PID.TID 0000.0001) // End MONITOR dynamic field statistics
(PID.TID 0000.0001) // =======================================================
(PID.TID 0000.0001) // =======================================================
(PID.TID 0000.0001) // Begin MONITOR SEAICE statistics
(PID.TID 0000.0001) // =======================================================
(PID.TID 0000.0001) %MON seaice_tsnumber              =                     1
(PID.TID 0000.0001) %MON seaice_time_sec              =   8.6400000000000E+04
(PID.TID 0000.0001) %MON seaice_uice_max              =   0.0000000000000E+00
(PID.TID 0000.0001) %MON seaice_uice_min              =   0.0000000000000E+00
(PID.TID 0000.0001) %MON seaice_uice_mean             =   0.0000000000000E+00
(PID.TID 0000.0001) %MON seaice_uice_sd               =   0.0000000000000E+00
(PID.TID 0000.0001) %MON seaice_uice_del2             =   0.0000000000000E+00
(PID.TID 0000.0001) %MON seaice_vice_max              =   0.0000000000000E+00
(PID.TID 0000.0001) %MON seaice_vice_min              =   0.0000000000000E+00
(PID.TID 0000.0001) %MON seaice_vice_mean             =   0.0000000000000E+00
(PID.TID 0000.0001) %MON seaice_vice_sd               =   0.0000000000000E+00
(PID.TID 0000.0001) %MON seaice_vice_del2             =   0.0000000000000E+00
(PID.TID 0000.0001) %MON seaice_area_max              =   3.1567419815730E-01
(PID.TID 0000.0001) %MON seaice_area_min              =   0.0000000000000E+00
(PID.TID 0000.0001) %MON seaice_area_mean             =   1.9588058014086E-03
(PID.TID 0000.0001) %MON seaice_area_sd               =   2.1474948208356E-02
(PID.TID 0000.0001) %MON seaice_area_del2             =   3.4574563432097E-04
(PID.TID 0000.0001) %MON seaice_heff_max              =   1.6992305696298E-01
(PID.TID 0000.0001) %MON seaice_heff_min              =   0.0000000000000E+00
(PID.TID 0000.0001) %MON seaice_heff_mean             =   9.8962313287614E-04
(PID.TID 0000.0001) %MON seaice_heff_sd               =   1.0887007449325E-02
(PID.TID 0000.0001) %MON seaice_heff_del2             =   1.7926889969193E-04
(PID.TID 0000.0001) %MON seaice_hsnow_max             =   0.0000000000000E+00
(PID.TID 0000.0001) %MON seaice_hsnow_min             =   0.0000000000000E+00
(PID.TID 0000.0001) %MON seaice_hsnow_mean            =   0.0000000000000E+00
(PID.TID 0000.0001) %MON seaice_hsnow_sd              =   0.0000000000000E+00
(PID.TID 0000.0001) %MON seaice_hsnow_del2            =   0.0000000000000E+00
(PID.TID 0000.0001) // =======================================================
(PID.TID 0000.0001) // End MONITOR SEAICE statistics
(PID.TID 0000.0001) // =======================================================
 EXTERNAL_FIELDS_LOAD,         1 : iP,iLd,i0,i1=   12    1   12    1 ; Wght=  0.4666666667  0.5333333333
 SEAICE_LSR: Residual Initial ipass,Uice,Vice=         1  5.09326004E-04  9.88966320E-04
 SEAICE_LSR (ipass=        1) iters,dU,Resid=       12  4.18443058E-13  1.46844171E-19
 SEAICE_LSR (ipass=        1) iters,dV,Resid=       12  2.78499446E-13  2.48110832E-19
 SEAICE_LSR: Residual Initial ipass,Uice,Vice=         2  2.86037510E-04  5.20949453E-04
 SEAICE_LSR (ipass=        2) iters,dU,Resid=       12  6.08957329E-14  1.06629363E-19
 SEAICE_LSR (ipass=        2) iters,dV,Resid=       12  4.13558077E-14  1.47336645E-19
 cg2d: Sum(rhs),rhsMax =   9.59346777648005E-02  1.59886100279099E+01
(PID.TID 0000.0001)      cg2d_init_res =   4.90653458357917E-01
(PID.TID 0000.0001)      cg2d_iters(min,last) =      -1     109
(PID.TID 0000.0001)      cg2d_last_res =   9.01620502588309E-10
(PID.TID 0000.0001) // =======================================================
(PID.TID 0000.0001) // Begin MONITOR dynamic field statistics
(PID.TID 0000.0001) // =======================================================
(PID.TID 0000.0001) %MON time_tsnumber                =                     2
(PID.TID 0000.0001) %MON time_secondsf                =   1.7280000000000E+05
(PID.TID 0000.0001) %MON dynstat_eta_max              =   1.4738511438538E+04
(PID.TID 0000.0001) %MON dynstat_eta_min              =  -1.7874167567991E+04
(PID.TID 0000.0001) %MON dynstat_eta_mean             =  -2.3163641303701E+01
(PID.TID 0000.0001) %MON dynstat_eta_sd               =   5.2121838060951E+03
(PID.TID 0000.0001) %MON dynstat_eta_del2             =   7.6739193754801E+01
(PID.TID 0000.0001) %MON dynstat_uvel_max             =   3.6897164848049E-02
(PID.TID 0000.0001) %MON dynstat_uvel_min             =  -4.4902702005833E-02
(PID.TID 0000.0001) %MON dynstat_uvel_mean            =  -3.0926263701819E-04
(PID.TID 0000.0001) %MON dynstat_uvel_sd              =   2.2724810876701E-03
(PID.TID 0000.0001) %MON dynstat_uvel_del2            =   1.2067599356448E-05
(PID.TID 0000.0001) %MON dynstat_vvel_max             =   7.3139003062855E-02
(PID.TID 0000.0001) %MON dynstat_vvel_min             =  -5.5848628978552E-02
(PID.TID 0000.0001) %MON dynstat_vvel_mean            =  -8.0645281217354E-05
(PID.TID 0000.0001) %MON dynstat_vvel_sd              =   2.3806320301436E-03
(PID.TID 0000.0001) %MON dynstat_vvel_del2            =   1.2656680518808E-05
(PID.TID 0000.0001) %MON dynstat_wvel_max             =   1.8402398836383E+00
(PID.TID 0000.0001) %MON dynstat_wvel_min             =  -2.9575113631193E+00
(PID.TID 0000.0001) %MON dynstat_wvel_mean            =   1.5038198757539E-03
(PID.TID 0000.0001) %MON dynstat_wvel_sd              =   8.8508056919085E-02
(PID.TID 0000.0001) %MON dynstat_wvel_del2            =   7.6256092955744E-04
(PID.TID 0000.0001) %MON dynstat_theta_max            =   2.9401842538681E+01
(PID.TID 0000.0001) %MON dynstat_theta_min            =  -1.8773302874202E+00
(PID.TID 0000.0001) %MON dynstat_theta_mean           =   3.5913328715191E+00
(PID.TID 0000.0001) %MON dynstat_theta_sd             =   4.4273618867180E+00
(PID.TID 0000.0001) %MON dynstat_theta_del2           =   2.1121293555099E-03
(PID.TID 0000.0001) %MON dynstat_salt_max             =   4.0715791268670E+01
(PID.TID 0000.0001) %MON dynstat_salt_min             =   1.8084371927744E+01
(PID.TID 0000.0001) %MON dynstat_salt_mean            =   3.4721466507748E+01
(PID.TID 0000.0001) %MON dynstat_salt_sd              =   4.8778690804556E-01
(PID.TID 0000.0001) %MON dynstat_salt_del2            =   5.1561080202721E-04
(PID.TID 0000.0001) %MON forcing_qnet_max             =   6.9542810299368E+02
(PID.TID 0000.0001) %MON forcing_qnet_min             =  -3.1702500219146E+02
(PID.TID 0000.0001) %MON forcing_qnet_mean            =  -2.1876334531688E+01
(PID.TID 0000.0001) %MON forcing_qnet_sd              =   1.7060754777087E+02
(PID.TID 0000.0001) %MON forcing_qnet_del2            =   1.0021947014072E+00
(PID.TID 0000.0001) %MON forcing_qsw_max              =   0.0000000000000E+00
(PID.TID 0000.0001) %MON forcing_qsw_min              =  -3.0190327619373E+02
(PID.TID 0000.0001) %MON forcing_qsw_mean             =  -1.8593263173828E+02
(PID.TID 0000.0001) %MON forcing_qsw_sd               =   7.9196898018470E+01
(PID.TID 0000.0001) %MON forcing_qsw_del2             =   1.1042682315671E-01
(PID.TID 0000.0001) %MON forcing_empmr_max            =   1.7532131026002E-03
(PID.TID 0000.0001) %MON forcing_empmr_min            =  -4.4615428816489E-04
(PID.TID 0000.0001) %MON forcing_empmr_mean           =   1.8848203827566E-05
(PID.TID 0000.0001) %MON forcing_empmr_sd             =   1.7392960930594E-04
(PID.TID 0000.0001) %MON forcing_empmr_del2           =   2.4740400772680E-06
(PID.TID 0000.0001) %MON forcing_fu_max               =   2.4755808644372E-01
(PID.TID 0000.0001) %MON forcing_fu_min               =  -2.0607770640355E-01
(PID.TID 0000.0001) %MON forcing_fu_mean              =  -4.4980739804884E-03
(PID.TID 0000.0001) %MON forcing_fu_sd                =   6.3946726618715E-02
(PID.TID 0000.0001) %MON forcing_fu_del2              =   2.0538714204687E-04
(PID.TID 0000.0001) %MON forcing_fv_max               =   2.5549422200851E-01
(PID.TID 0000.0001) %MON forcing_fv_min               =  -3.2770782795392E-01
(PID.TID 0000.0001) %MON forcing_fv_mean              =  -1.3688500786173E-02
(PID.TID 0000.0001) %MON forcing_fv_sd                =   7.5192963111694E-02
(PID.TID 0000.0001) %MON forcing_fv_del2              =   2.3383924811758E-04
(PID.TID 0000.0001) %MON trAdv_CFL_u_max              =   1.7883441524133E-02
(PID.TID 0000.0001) %MON trAdv_CFL_v_max              =   2.4851226588819E-02
(PID.TID 0000.0001) %MON trAdv_CFL_w_max              =   7.6632518505185E-02
(PID.TID 0000.0001) %MON advcfl_uvel_max              =   1.4085823132975E-02
(PID.TID 0000.0001) %MON advcfl_vvel_max              =   2.3865961707556E-02
(PID.TID 0000.0001) %MON advcfl_wvel_max              =   8.3920140135679E-02
(PID.TID 0000.0001) %MON advcfl_W_hf_max              =   9.2726065573146E-02
(PID.TID 0000.0001) %MON pe_b_mean                    =   8.9267461452755E-03
(PID.TID 0000.0001) %MON ke_max                       =   1.5964941769825E-03
(PID.TID 0000.0001) %MON ke_mean                      =   5.0486049134978E-06
(PID.TID 0000.0001) %MON ke_vol                       =   1.3604174068537E+22
(PID.TID 0000.0001) %MON vort_r_min                   =  -2.9190005178941E-07
(PID.TID 0000.0001) %MON vort_r_max                   =   4.1341191868372E-07
(PID.TID 0000.0001) %MON vort_a_mean                  =  -2.0556865257795E-05
(PID.TID 0000.0001) %MON vort_a_sd                    =   7.5247339943134E-05
(PID.TID 0000.0001) %MON vort_p_mean                  =  -2.4859329078595E-05
(PID.TID 0000.0001) %MON vort_p_sd                    =   1.2919455934097E-04
(PID.TID 0000.0001) %MON surfExpan_theta_mean         =   2.0802678855611E-02
(PID.TID 0000.0001) %MON surfExpan_salt_mean          =  -5.1073225732737E-03
(PID.TID 0000.0001) // =======================================================
(PID.TID 0000.0001) // End MONITOR dynamic field statistics
(PID.TID 0000.0001) // =======================================================
(PID.TID 0000.0001) // =======================================================
(PID.TID 0000.0001) // Begin MONITOR SEAICE statistics
(PID.TID 0000.0001) // =======================================================
(PID.TID 0000.0001) %MON seaice_tsnumber              =                     2
(PID.TID 0000.0001) %MON seaice_time_sec              =   1.7280000000000E+05
(PID.TID 0000.0001) %MON seaice_uice_max              =   7.2857473536146E-02
(PID.TID 0000.0001) %MON seaice_uice_min              =  -1.5273919456653E-01
(PID.TID 0000.0001) %MON seaice_uice_mean             =  -2.3773589353624E-04
(PID.TID 0000.0001) %MON seaice_uice_sd               =   7.3510280120281E-03
(PID.TID 0000.0001) %MON seaice_uice_del2             =   1.4122142658432E-04
(PID.TID 0000.0001) %MON seaice_vice_max              =   1.1074474839954E-01
(PID.TID 0000.0001) %MON seaice_vice_min              =  -1.1179223042557E-01
(PID.TID 0000.0001) %MON seaice_vice_mean             =   3.7552702040425E-04
(PID.TID 0000.0001) %MON seaice_vice_sd               =   1.0691983896256E-02
(PID.TID 0000.0001) %MON seaice_vice_del2             =   1.4982050512993E-04
(PID.TID 0000.0001) %MON seaice_area_max              =   5.2814927136486E-01
(PID.TID 0000.0001) %MON seaice_area_min              =   0.0000000000000E+00
(PID.TID 0000.0001) %MON seaice_area_mean             =   5.7814920041213E-03
(PID.TID 0000.0001) %MON seaice_area_sd               =   4.8192184249976E-02
(PID.TID 0000.0001) %MON seaice_area_del2             =   5.1699158998595E-04
(PID.TID 0000.0001) %MON seaice_heff_max              =   2.8822288694159E-01
(PID.TID 0000.0001) %MON seaice_heff_min              =   0.0000000000000E+00
(PID.TID 0000.0001) %MON seaice_heff_mean             =   2.9666938728433E-03
(PID.TID 0000.0001) %MON seaice_heff_sd               =   2.4874047612171E-02
(PID.TID 0000.0001) %MON seaice_heff_del2             =   2.6712277278500E-04
(PID.TID 0000.0001) %MON seaice_hsnow_max             =   7.7342497007071E-04
(PID.TID 0000.0001) %MON seaice_hsnow_min             =   0.0000000000000E+00
(PID.TID 0000.0001) %MON seaice_hsnow_mean            =   4.4739015932865E-06
(PID.TID 0000.0001) %MON seaice_hsnow_sd              =   4.8561691877312E-05
(PID.TID 0000.0001) %MON seaice_hsnow_del2            =   8.0250403843462E-07
(PID.TID 0000.0001) // =======================================================
(PID.TID 0000.0001) // End MONITOR SEAICE statistics
(PID.TID 0000.0001) // =======================================================
 EXTERNAL_FIELDS_LOAD,         2 : iP,iLd,i0,i1=   12    1   12    1 ; Wght=  0.4333333333  0.5666666667
 SEAICE_LSR: Residual Initial ipass,Uice,Vice=         1  5.59727345E-04  8.38928589E-04
 SEAICE_LSR (ipass=        1) iters,dU,Resid=       12  2.62068145E-13  2.27375761E-19
 SEAICE_LSR (ipass=        1) iters,dV,Resid=       12  1.41470169E-13  3.41934492E-19
 SEAICE_LSR: Residual Initial ipass,Uice,Vice=         2  1.57192169E-04  1.92001296E-04
 SEAICE_LSR (ipass=        2) iters,dU,Resid=       12  2.16354712E-14  1.82946956E-19
 SEAICE_LSR (ipass=        2) iters,dV,Resid=       12  3.59898743E-14  3.45113229E-19
 cg2d: Sum(rhs),rhsMax =   1.72720357246105E-01  1.58662249736686E+01
(PID.TID 0000.0001)      cg2d_init_res =   1.97136376816922E-01
(PID.TID 0000.0001)      cg2d_iters(min,last) =      -1     103
(PID.TID 0000.0001)      cg2d_last_res =   8.32827857031531E-10
(PID.TID 0000.0001) // =======================================================
(PID.TID 0000.0001) // Begin MONITOR dynamic field statistics
(PID.TID 0000.0001) // =======================================================
(PID.TID 0000.0001) %MON time_tsnumber                =                     3
(PID.TID 0000.0001) %MON time_secondsf                =   2.5920000000000E+05
(PID.TID 0000.0001) %MON dynstat_eta_max              =   1.4911685739100E+04
(PID.TID 0000.0001) %MON dynstat_eta_min              =  -2.0514159278970E+04
(PID.TID 0000.0001) %MON dynstat_eta_mean             =  -4.1384492680168E+01
(PID.TID 0000.0001) %MON dynstat_eta_sd               =   5.9496508893939E+03
(PID.TID 0000.0001) %MON dynstat_eta_del2             =   7.5642493468888E+01
(PID.TID 0000.0001) %MON dynstat_uvel_max             =   5.3716328295696E-02
(PID.TID 0000.0001) %MON dynstat_uvel_min             =  -6.4748532023207E-02
(PID.TID 0000.0001) %MON dynstat_uvel_mean            =  -4.2145664113142E-04
(PID.TID 0000.0001) %MON dynstat_uvel_sd              =   3.1723183265146E-03
(PID.TID 0000.0001) %MON dynstat_uvel_del2            =   1.7121089759954E-05
(PID.TID 0000.0001) %MON dynstat_vvel_max             =   8.8924155943779E-02
(PID.TID 0000.0001) %MON dynstat_vvel_min             =  -8.1301626398223E-02
(PID.TID 0000.0001) %MON dynstat_vvel_mean            =  -1.7034713985020E-04
(PID.TID 0000.0001) %MON dynstat_vvel_sd              =   3.2736574511024E-03
(PID.TID 0000.0001) %MON dynstat_vvel_del2            =   1.7943336546647E-05
(PID.TID 0000.0001) %MON dynstat_wvel_max             =   2.6762712440117E+00
(PID.TID 0000.0001) %MON dynstat_wvel_min             =  -4.3336539089591E+00
(PID.TID 0000.0001) %MON dynstat_wvel_mean            =   4.7805007195541E-04
(PID.TID 0000.0001) %MON dynstat_wvel_sd              =   1.2565180290182E-01
(PID.TID 0000.0001) %MON dynstat_wvel_del2            =   1.0585757840294E-03
(PID.TID 0000.0001) %MON dynstat_theta_max            =   2.9410115363688E+01
(PID.TID 0000.0001) %MON dynstat_theta_min            =  -1.8864022789144E+00
(PID.TID 0000.0001) %MON dynstat_theta_mean           =   3.5914837477417E+00
(PID.TID 0000.0001) %MON dynstat_theta_sd             =   4.4277400021541E+00
(PID.TID 0000.0001) %MON dynstat_theta_del2           =   2.0885200807470E-03
(PID.TID 0000.0001) %MON dynstat_salt_max             =   4.0715798766292E+01
(PID.TID 0000.0001) %MON dynstat_salt_min             =   1.7879702702345E+01
(PID.TID 0000.0001) %MON dynstat_salt_mean            =   3.4721482565934E+01
(PID.TID 0000.0001) %MON dynstat_salt_sd              =   4.8771095922699E-01
(PID.TID 0000.0001) %MON dynstat_salt_del2            =   5.1263294394937E-04
(PID.TID 0000.0001) %MON forcing_qnet_max             =   6.8733041597542E+02
(PID.TID 0000.0001) %MON forcing_qnet_min             =  -3.1618153095468E+02
(PID.TID 0000.0001) %MON forcing_qnet_mean            =  -2.4521606624907E+01
(PID.TID 0000.0001) %MON forcing_qnet_sd              =   1.6478198240719E+02
(PID.TID 0000.0001) %MON forcing_qnet_del2            =   1.1174684197656E+00
(PID.TID 0000.0001) %MON forcing_qsw_max              =   0.0000000000000E+00
(PID.TID 0000.0001) %MON forcing_qsw_min              =  -3.0189127925792E+02
(PID.TID 0000.0001) %MON forcing_qsw_mean             =  -1.8593879213685E+02
(PID.TID 0000.0001) %MON forcing_qsw_sd               =   7.9086030748663E+01
(PID.TID 0000.0001) %MON forcing_qsw_del2             =   1.1032203144653E-01
(PID.TID 0000.0001) %MON forcing_empmr_max            =   1.7806757523701E-03
(PID.TID 0000.0001) %MON forcing_empmr_min            =  -4.4791126922564E-04
(PID.TID 0000.0001) %MON forcing_empmr_mean           =   2.1497398932101E-05
(PID.TID 0000.0001) %MON forcing_empmr_sd             =   1.7629739154975E-04
(PID.TID 0000.0001) %MON forcing_empmr_del2           =   2.7013278336837E-06
(PID.TID 0000.0001) %MON forcing_fu_max               =   2.4751003717351E-01
(PID.TID 0000.0001) %MON forcing_fu_min               =  -2.0922350306190E-01
(PID.TID 0000.0001) %MON forcing_fu_mean              =  -4.4448172783743E-03
(PID.TID 0000.0001) %MON forcing_fu_sd                =   6.3964317409383E-02
(PID.TID 0000.0001) %MON forcing_fu_del2              =   2.0566913929340E-04
(PID.TID 0000.0001) %MON forcing_fv_max               =   2.5817746358114E-01
(PID.TID 0000.0001) %MON forcing_fv_min               =  -3.2849573188785E-01
(PID.TID 0000.0001) %MON forcing_fv_mean              =  -1.3690445127107E-02
(PID.TID 0000.0001) %MON forcing_fv_sd                =   7.5246419358930E-02
(PID.TID 0000.0001) %MON forcing_fv_del2              =   2.3423436475841E-04
(PID.TID 0000.0001) %MON trAdv_CFL_u_max              =   2.4031983416879E-02
(PID.TID 0000.0001) %MON trAdv_CFL_v_max              =   3.1803927878379E-02
(PID.TID 0000.0001) %MON trAdv_CFL_w_max              =   1.1210247438682E-01
(PID.TID 0000.0001) %MON advcfl_uvel_max              =   1.9882479980176E-02
(PID.TID 0000.0001) %MON advcfl_vvel_max              =   2.5139009387958E-02
(PID.TID 0000.0001) %MON advcfl_wvel_max              =   1.2275879856267E-01
(PID.TID 0000.0001) %MON advcfl_W_hf_max              =   1.3564504460598E-01
(PID.TID 0000.0001) %MON pe_b_mean                    =   9.6258315645746E-03
(PID.TID 0000.0001) %MON ke_max                       =   2.6636599343102E-03
(PID.TID 0000.0001) %MON ke_mean                      =   9.6901124281309E-06
(PID.TID 0000.0001) %MON ke_vol                       =   1.3604168255288E+22
(PID.TID 0000.0001) %MON vort_r_min                   =  -3.9360560017914E-07
(PID.TID 0000.0001) %MON vort_r_max                   =   4.8391564593234E-07
(PID.TID 0000.0001) %MON vort_a_mean                  =  -2.0556865257795E-05
(PID.TID 0000.0001) %MON vort_a_sd                    =   7.5247327401340E-05
(PID.TID 0000.0001) %MON vort_p_mean                  =  -2.4859309369056E-05
(PID.TID 0000.0001) %MON vort_p_sd                    =   1.2919897060445E-04
(PID.TID 0000.0001) %MON surfExpan_theta_mean         =   1.8366333656039E-02
(PID.TID 0000.0001) %MON surfExpan_salt_mean          =  -6.3234634019296E-03
(PID.TID 0000.0001) // =======================================================
(PID.TID 0000.0001) // End MONITOR dynamic field statistics
(PID.TID 0000.0001) // =======================================================
(PID.TID 0000.0001) // =======================================================
(PID.TID 0000.0001) // Begin MONITOR SEAICE statistics
(PID.TID 0000.0001) // =======================================================
(PID.TID 0000.0001) %MON seaice_tsnumber              =                     3
(PID.TID 0000.0001) %MON seaice_time_sec              =   2.5920000000000E+05
(PID.TID 0000.0001) %MON seaice_uice_max              =   1.2667400066037E-01
(PID.TID 0000.0001) %MON seaice_uice_min              =  -1.8268033452594E-01
(PID.TID 0000.0001) %MON seaice_uice_mean             =  -2.9337324659590E-04
(PID.TID 0000.0001) %MON seaice_uice_sd               =   9.5321332600701E-03
(PID.TID 0000.0001) %MON seaice_uice_del2             =   2.0485492232839E-04
(PID.TID 0000.0001) %MON seaice_vice_max              =   1.4010719406264E-01
(PID.TID 0000.0001) %MON seaice_vice_min              =  -1.5095448707850E-01
(PID.TID 0000.0001) %MON seaice_vice_mean             =   8.7466379755723E-04
(PID.TID 0000.0001) %MON seaice_vice_sd               =   1.3439224730215E-02
(PID.TID 0000.0001) %MON seaice_vice_del2             =   1.2869667768796E-04
(PID.TID 0000.0001) %MON seaice_area_max              =   6.7842603383157E-01
(PID.TID 0000.0001) %MON seaice_area_min              =   0.0000000000000E+00
(PID.TID 0000.0001) %MON seaice_area_mean             =   9.8837731918615E-03
(PID.TID 0000.0001) %MON seaice_area_sd               =   7.2946902652150E-02
(PID.TID 0000.0001) %MON seaice_area_del2             =   7.4107748508571E-04
(PID.TID 0000.0001) %MON seaice_heff_max              =   3.7937230868160E-01
(PID.TID 0000.0001) %MON seaice_heff_min              =   0.0000000000000E+00
(PID.TID 0000.0001) %MON seaice_heff_mean             =   5.2069367276106E-03
(PID.TID 0000.0001) %MON seaice_heff_sd               =   3.8714506076400E-02
(PID.TID 0000.0001) %MON seaice_heff_del2             =   3.8868610132234E-04
(PID.TID 0000.0001) %MON seaice_hsnow_max             =   1.8512877857755E-03
(PID.TID 0000.0001) %MON seaice_hsnow_min             =   0.0000000000000E+00
(PID.TID 0000.0001) %MON seaice_hsnow_mean            =   1.5441556173295E-05
(PID.TID 0000.0001) %MON seaice_hsnow_sd              =   1.3287971770164E-04
(PID.TID 0000.0001) %MON seaice_hsnow_del2            =   1.7204907146536E-06
(PID.TID 0000.0001) // =======================================================
(PID.TID 0000.0001) // End MONITOR SEAICE statistics
(PID.TID 0000.0001) // =======================================================
 EXTERNAL_FIELDS_LOAD,         3 : iP,iLd,i0,i1=   12    1   12    1 ; Wght=  0.4000000000  0.6000000000
 SEAICE_LSR: Residual Initial ipass,Uice,Vice=         1  2.75449409E-04  3.97850177E-04
 SEAICE_LSR (ipass=        1) iters,dU,Resid=       12  2.83384427E-14  3.02053845E-19
 SEAICE_LSR (ipass=        1) iters,dV,Resid=       12  7.24455218E-14  4.28895625E-19
 SEAICE_LSR: Residual Initial ipass,Uice,Vice=         2  9.54955317E-05  8.90169969E-05
 SEAICE_LSR (ipass=        2) iters,dU,Resid=       12  1.72084569E-15  2.84175395E-19
 SEAICE_LSR (ipass=        2) iters,dV,Resid=       12  3.49997809E-14  4.77408969E-19
 cg2d: Sum(rhs),rhsMax =   2.47090974472055E-01  1.58658942469339E+01
(PID.TID 0000.0001)      cg2d_init_res =   1.09656596454850E-01
(PID.TID 0000.0001)      cg2d_iters(min,last) =      -1     103
(PID.TID 0000.0001)      cg2d_last_res =   9.07098348364838E-10
(PID.TID 0000.0001) // =======================================================
(PID.TID 0000.0001) // Begin MONITOR dynamic field statistics
(PID.TID 0000.0001) // =======================================================
(PID.TID 0000.0001) %MON time_tsnumber                =                     4
(PID.TID 0000.0001) %MON time_secondsf                =   3.4560000000000E+05
(PID.TID 0000.0001) %MON dynstat_eta_max              =   1.4669302984025E+04
(PID.TID 0000.0001) %MON dynstat_eta_min              =  -2.0853950539391E+04
(PID.TID 0000.0001) %MON dynstat_eta_mean             =  -5.9202757769958E+01
(PID.TID 0000.0001) %MON dynstat_eta_sd               =   6.2669996630651E+03
(PID.TID 0000.0001) %MON dynstat_eta_del2             =   7.5344096091039E+01
(PID.TID 0000.0001) %MON dynstat_uvel_max             =   6.9191993089997E-02
(PID.TID 0000.0001) %MON dynstat_uvel_min             =  -8.2662885344966E-02
(PID.TID 0000.0001) %MON dynstat_uvel_mean            =  -4.3565788864848E-04
(PID.TID 0000.0001) %MON dynstat_uvel_sd              =   4.0904587522044E-03
(PID.TID 0000.0001) %MON dynstat_uvel_del2            =   2.1904312576477E-05
(PID.TID 0000.0001) %MON dynstat_vvel_max             =   1.1490267747692E-01
(PID.TID 0000.0001) %MON dynstat_vvel_min             =  -1.0495542315754E-01
(PID.TID 0000.0001) %MON dynstat_vvel_mean            =  -2.8662906852350E-04
(PID.TID 0000.0001) %MON dynstat_vvel_sd              =   4.1949193468079E-03
(PID.TID 0000.0001) %MON dynstat_vvel_del2            =   2.2886816392987E-05
(PID.TID 0000.0001) %MON dynstat_wvel_max             =   3.4368329080516E+00
(PID.TID 0000.0001) %MON dynstat_wvel_min             =  -5.6389699828974E+00
(PID.TID 0000.0001) %MON dynstat_wvel_mean            =   7.9630427748693E-05
(PID.TID 0000.0001) %MON dynstat_wvel_sd              =   1.5990620882103E-01
(PID.TID 0000.0001) %MON dynstat_wvel_del2            =   1.3184065530575E-03
(PID.TID 0000.0001) %MON dynstat_theta_max            =   2.9417665509809E+01
(PID.TID 0000.0001) %MON dynstat_theta_min            =  -1.8887976831346E+00
(PID.TID 0000.0001) %MON dynstat_theta_mean           =   3.5916549001755E+00
(PID.TID 0000.0001) %MON dynstat_theta_sd             =   4.4280630296800E+00
(PID.TID 0000.0001) %MON dynstat_theta_del2           =   2.1041223944964E-03
(PID.TID 0000.0001) %MON dynstat_salt_max             =   4.0715804396832E+01
(PID.TID 0000.0001) %MON dynstat_salt_min             =   1.7642462994692E+01
(PID.TID 0000.0001) %MON dynstat_salt_mean            =   3.4721498841980E+01
(PID.TID 0000.0001) %MON dynstat_salt_sd              =   4.8760261175695E-01
(PID.TID 0000.0001) %MON dynstat_salt_del2            =   5.1610552588347E-04
(PID.TID 0000.0001) %MON forcing_qnet_max             =   6.7998692872811E+02
(PID.TID 0000.0001) %MON forcing_qnet_min             =  -3.1530822170634E+02
(PID.TID 0000.0001) %MON forcing_qnet_mean            =  -2.5977650229985E+01
(PID.TID 0000.0001) %MON forcing_qnet_sd              =   1.6014891416369E+02
(PID.TID 0000.0001) %MON forcing_qnet_del2            =   9.6427236428383E-01
(PID.TID 0000.0001) %MON forcing_qsw_max              =   0.0000000000000E+00
(PID.TID 0000.0001) %MON forcing_qsw_min              =  -3.0187928232211E+02
(PID.TID 0000.0001) %MON forcing_qsw_mean             =  -1.8594494411070E+02
(PID.TID 0000.0001) %MON forcing_qsw_sd               =   7.8977862677335E+01
(PID.TID 0000.0001) %MON forcing_qsw_del2             =   1.1028061737651E-01
(PID.TID 0000.0001) %MON forcing_empmr_max            =   1.6309507319668E-03
(PID.TID 0000.0001) %MON forcing_empmr_min            =  -4.4968030064917E-04
(PID.TID 0000.0001) %MON forcing_empmr_mean           =   2.1022417942989E-05
(PID.TID 0000.0001) %MON forcing_empmr_sd             =   1.6052979760159E-04
(PID.TID 0000.0001) %MON forcing_empmr_del2           =   1.9661520353093E-06
(PID.TID 0000.0001) %MON forcing_fu_max               =   2.4746198790331E-01
(PID.TID 0000.0001) %MON forcing_fu_min               =  -2.1236929972025E-01
(PID.TID 0000.0001) %MON forcing_fu_mean              =  -4.3914252015710E-03
(PID.TID 0000.0001) %MON forcing_fu_sd                =   6.3996316474131E-02
(PID.TID 0000.0001) %MON forcing_fu_del2              =   2.0635449642345E-04
(PID.TID 0000.0001) %MON forcing_fv_max               =   2.6086070515377E-01
(PID.TID 0000.0001) %MON forcing_fv_min               =  -3.2928363582178E-01
(PID.TID 0000.0001) %MON forcing_fv_mean              =  -1.3691744617965E-02
(PID.TID 0000.0001) %MON forcing_fv_sd                =   7.5311667711961E-02
(PID.TID 0000.0001) %MON forcing_fv_del2              =   2.3489005302837E-04
(PID.TID 0000.0001) %MON trAdv_CFL_u_max              =   3.0721499468963E-02
(PID.TID 0000.0001) %MON trAdv_CFL_v_max              =   4.1479028051181E-02
(PID.TID 0000.0001) %MON trAdv_CFL_w_max              =   1.4573144140835E-01
(PID.TID 0000.0001) %MON advcfl_uvel_max              =   2.5302970972703E-02
(PID.TID 0000.0001) %MON advcfl_vvel_max              =   3.2483181393592E-02
(PID.TID 0000.0001) %MON advcfl_wvel_max              =   1.5958780638885E-01
(PID.TID 0000.0001) %MON advcfl_W_hf_max              =   1.7633640986477E-01
(PID.TID 0000.0001) %MON pe_b_mean                    =   9.8385092498097E-03
(PID.TID 0000.0001) %MON ke_max                       =   4.3792649199804E-03
(PID.TID 0000.0001) %MON ke_mean                      =   1.5975860125748E-05
(PID.TID 0000.0001) %MON ke_vol                       =   1.3604161624962E+22
(PID.TID 0000.0001) %MON vort_r_min                   =  -4.4610944737857E-07
(PID.TID 0000.0001) %MON vort_r_max                   =   5.1783156046127E-07
(PID.TID 0000.0001) %MON vort_a_mean                  =  -2.0556865257795E-05
(PID.TID 0000.0001) %MON vort_a_sd                    =   7.5247333307604E-05
(PID.TID 0000.0001) %MON vort_p_mean                  =  -2.4859309783427E-05
(PID.TID 0000.0001) %MON vort_p_sd                    =   1.2920196182805E-04
(PID.TID 0000.0001) %MON surfExpan_theta_mean         =   1.2703025406968E-02
(PID.TID 0000.0001) %MON surfExpan_salt_mean          =  -6.6738031795553E-03
(PID.TID 0000.0001) // =======================================================
(PID.TID 0000.0001) // End MONITOR dynamic field statistics
(PID.TID 0000.0001) // =======================================================
(PID.TID 0000.0001) // =======================================================
(PID.TID 0000.0001) // Begin MONITOR SEAICE statistics
(PID.TID 0000.0001) // =======================================================
(PID.TID 0000.0001) %MON seaice_tsnumber              =                     4
(PID.TID 0000.0001) %MON seaice_time_sec              =   3.4560000000000E+05
(PID.TID 0000.0001) %MON seaice_uice_max              =   1.0862608684974E-01
(PID.TID 0000.0001) %MON seaice_uice_min              =  -1.9510402091455E-01
(PID.TID 0000.0001) %MON seaice_uice_mean             =  -2.5251599595513E-04
(PID.TID 0000.0001) %MON seaice_uice_sd               =   9.6320365093383E-03
(PID.TID 0000.0001) %MON seaice_uice_del2             =   1.8951997385643E-04
(PID.TID 0000.0001) %MON seaice_vice_max              =   1.4551667557806E-01
(PID.TID 0000.0001) %MON seaice_vice_min              =  -1.6750964704450E-01
(PID.TID 0000.0001) %MON seaice_vice_mean             =   9.2263726088974E-04
(PID.TID 0000.0001) %MON seaice_vice_sd               =   1.4132833113137E-02
(PID.TID 0000.0001) %MON seaice_vice_del2             =   1.1790202262631E-04
(PID.TID 0000.0001) %MON seaice_area_max              =   7.8627890829727E-01
(PID.TID 0000.0001) %MON seaice_area_min              =   0.0000000000000E+00
(PID.TID 0000.0001) %MON seaice_area_mean             =   1.3610192735920E-02
(PID.TID 0000.0001) %MON seaice_area_sd               =   9.3139943056891E-02
(PID.TID 0000.0001) %MON seaice_area_del2             =   8.1836114386431E-04
(PID.TID 0000.0001) %MON seaice_heff_max              =   4.5240551597733E-01
(PID.TID 0000.0001) %MON seaice_heff_min              =   0.0000000000000E+00
(PID.TID 0000.0001) %MON seaice_heff_mean             =   7.4084108879805E-03
(PID.TID 0000.0001) %MON seaice_heff_sd               =   5.1201401665615E-02
(PID.TID 0000.0001) %MON seaice_heff_del2             =   4.4968173416453E-04
(PID.TID 0000.0001) %MON seaice_hsnow_max             =   3.6147860309999E-03
(PID.TID 0000.0001) %MON seaice_hsnow_min             =   0.0000000000000E+00
(PID.TID 0000.0001) %MON seaice_hsnow_mean            =   3.3589559265140E-05
(PID.TID 0000.0001) %MON seaice_hsnow_sd              =   2.6960503010200E-04
(PID.TID 0000.0001) %MON seaice_hsnow_del2            =   3.5043454308007E-06
(PID.TID 0000.0001) // =======================================================
(PID.TID 0000.0001) // End MONITOR SEAICE statistics
(PID.TID 0000.0001) // =======================================================
 EXTERNAL_FIELDS_LOAD,         4 : iP,iLd,i0,i1=   12    1   12    1 ; Wght=  0.3666666667  0.6333333333
 SEAICE_LSR: Residual Initial ipass,Uice,Vice=         1  5.04495187E-04  3.82002460E-04
 SEAICE_LSR (ipass=        1) iters,dU,Resid=       12  6.02518035E-13  5.84113165E-19
 SEAICE_LSR (ipass=        1) iters,dV,Resid=       12  8.51402282E-14  8.37995370E-19
 SEAICE_LSR: Residual Initial ipass,Uice,Vice=         2  5.44823049E-04  1.17459232E-04
 SEAICE_LSR (ipass=        2) iters,dU,Resid=       12  9.44799794E-14  3.94077346E-19
 SEAICE_LSR (ipass=        2) iters,dV,Resid=       12  3.29319905E-14  7.74325183E-19
 cg2d: Sum(rhs),rhsMax =   3.08772421432453E-01  1.58703176989192E+01
(PID.TID 0000.0001)      cg2d_init_res =   9.51761037899000E-02
(PID.TID 0000.0001)      cg2d_iters(min,last) =      -1     103
(PID.TID 0000.0001)      cg2d_last_res =   8.02479304807273E-10
(PID.TID 0000.0001) // =======================================================
(PID.TID 0000.0001) // Begin MONITOR dynamic field statistics
(PID.TID 0000.0001) // =======================================================
(PID.TID 0000.0001) %MON time_tsnumber                =                     5
(PID.TID 0000.0001) %MON time_secondsf                =   4.3200000000000E+05
(PID.TID 0000.0001) %MON dynstat_eta_max              =   1.2506497325555E+04
(PID.TID 0000.0001) %MON dynstat_eta_min              =  -2.0553242736102E+04
(PID.TID 0000.0001) %MON dynstat_eta_mean             =  -7.4002198873937E+01
(PID.TID 0000.0001) %MON dynstat_eta_sd               =   6.3724539748972E+03
(PID.TID 0000.0001) %MON dynstat_eta_del2             =   7.5332270096733E+01
(PID.TID 0000.0001) %MON dynstat_uvel_max             =   8.4135197826914E-02
(PID.TID 0000.0001) %MON dynstat_uvel_min             =  -1.0036442183055E-01
(PID.TID 0000.0001) %MON dynstat_uvel_mean            =  -3.6885096145107E-04
(PID.TID 0000.0001) %MON dynstat_uvel_sd              =   4.9957383824559E-03
(PID.TID 0000.0001) %MON dynstat_uvel_del2            =   2.6238212377830E-05
(PID.TID 0000.0001) %MON dynstat_vvel_max             =   1.3860152189181E-01
(PID.TID 0000.0001) %MON dynstat_vvel_min             =  -1.2694110034627E-01
(PID.TID 0000.0001) %MON dynstat_vvel_mean            =  -3.9582751135479E-04
(PID.TID 0000.0001) %MON dynstat_vvel_sd              =   5.1234020326075E-03
(PID.TID 0000.0001) %MON dynstat_vvel_del2            =   2.7292440424782E-05
(PID.TID 0000.0001) %MON dynstat_wvel_max             =   4.1034558935826E+00
(PID.TID 0000.0001) %MON dynstat_wvel_min             =  -6.8421539625686E+00
(PID.TID 0000.0001) %MON dynstat_wvel_mean            =  -9.1630976309822E-05
(PID.TID 0000.0001) %MON dynstat_wvel_sd              =   1.9046319970644E-01
(PID.TID 0000.0001) %MON dynstat_wvel_del2            =   1.5382090545187E-03
(PID.TID 0000.0001) %MON dynstat_theta_max            =   2.9424555387960E+01
(PID.TID 0000.0001) %MON dynstat_theta_min            =  -1.8937488935035E+00
(PID.TID 0000.0001) %MON dynstat_theta_mean           =   3.5918238410420E+00
(PID.TID 0000.0001) %MON dynstat_theta_sd             =   4.4284660075982E+00
(PID.TID 0000.0001) %MON dynstat_theta_del2           =   2.0805279073180E-03
(PID.TID 0000.0001) %MON dynstat_salt_max             =   4.0715806943909E+01
(PID.TID 0000.0001) %MON dynstat_salt_min             =   1.7383990185809E+01
(PID.TID 0000.0001) %MON dynstat_salt_mean            =   3.4721511999910E+01
(PID.TID 0000.0001) %MON dynstat_salt_sd              =   4.8753963867194E-01
(PID.TID 0000.0001) %MON dynstat_salt_del2            =   5.1237092687968E-04
(PID.TID 0000.0001) %MON forcing_qnet_max             =   1.4406760563295E+03
(PID.TID 0000.0001) %MON forcing_qnet_min             =  -3.1441084972961E+02
(PID.TID 0000.0001) %MON forcing_qnet_mean            =  -2.6419105873428E+01
(PID.TID 0000.0001) %MON forcing_qnet_sd              =   1.5898461081807E+02
(PID.TID 0000.0001) %MON forcing_qnet_del2            =   1.3484000570595E+00
(PID.TID 0000.0001) %MON forcing_qsw_max              =   0.0000000000000E+00
(PID.TID 0000.0001) %MON forcing_qsw_min              =  -3.0186728538630E+02
(PID.TID 0000.0001) %MON forcing_qsw_mean             =  -1.8595109422166E+02
(PID.TID 0000.0001) %MON forcing_qsw_sd               =   7.8872389445810E+01
(PID.TID 0000.0001) %MON forcing_qsw_del2             =   1.1030265383695E-01
(PID.TID 0000.0001) %MON forcing_empmr_max            =   1.8652828798634E-03
(PID.TID 0000.0001) %MON forcing_empmr_min            =  -3.5442924993264E-03
(PID.TID 0000.0001) %MON forcing_empmr_mean           =   1.7460736757629E-05
(PID.TID 0000.0001) %MON forcing_empmr_sd             =   1.6157074988983E-04
(PID.TID 0000.0001) %MON forcing_empmr_del2           =   3.7242248023152E-06
(PID.TID 0000.0001) %MON forcing_fu_max               =   2.4741393863310E-01
(PID.TID 0000.0001) %MON forcing_fu_min               =  -2.1551509637860E-01
(PID.TID 0000.0001) %MON forcing_fu_mean              =  -4.3389014431671E-03
(PID.TID 0000.0001) %MON forcing_fu_sd                =   6.4042672221426E-02
(PID.TID 0000.0001) %MON forcing_fu_del2              =   2.0718964537613E-04
(PID.TID 0000.0001) %MON forcing_fv_max               =   2.6354394672640E-01
(PID.TID 0000.0001) %MON forcing_fv_min               =  -3.3007153975572E-01
(PID.TID 0000.0001) %MON forcing_fv_mean              =  -1.3692791093578E-02
(PID.TID 0000.0001) %MON forcing_fv_sd                =   7.5386078162789E-02
(PID.TID 0000.0001) %MON forcing_fv_del2              =   2.3570998524293E-04
(PID.TID 0000.0001) %MON trAdv_CFL_u_max              =   3.7016215201548E-02
(PID.TID 0000.0001) %MON trAdv_CFL_v_max              =   5.0444060361522E-02
(PID.TID 0000.0001) %MON trAdv_CFL_w_max              =   1.7662878114618E-01
(PID.TID 0000.0001) %MON advcfl_uvel_max              =   3.1125806227456E-02
(PID.TID 0000.0001) %MON advcfl_vvel_max              =   3.9182884819580E-02
(PID.TID 0000.0001) %MON advcfl_wvel_max              =   1.9343514234860E-01
(PID.TID 0000.0001) %MON advcfl_W_hf_max              =   2.1372248051012E-01
(PID.TID 0000.0001) %MON pe_b_mean                    =   9.8712732524317E-03
(PID.TID 0000.0001) %MON ke_max                       =   6.4491113831321E-03
(PID.TID 0000.0001) %MON ke_mean                      =   2.3778467239234E-05
(PID.TID 0000.0001) %MON ke_vol                       =   1.3604155141132E+22
(PID.TID 0000.0001) %MON vort_r_min                   =  -5.0483975704597E-07
(PID.TID 0000.0001) %MON vort_r_max                   =   5.4711631661092E-07
(PID.TID 0000.0001) %MON vort_a_mean                  =  -2.0556865257795E-05
(PID.TID 0000.0001) %MON vort_a_sd                    =   7.5247350860451E-05
(PID.TID 0000.0001) %MON vort_p_mean                  =  -2.4859319023986E-05
(PID.TID 0000.0001) %MON vort_p_sd                    =   1.2920359347730E-04
(PID.TID 0000.0001) %MON surfExpan_theta_mean         =   8.2614399233073E-03
(PID.TID 0000.0001) %MON surfExpan_salt_mean          =  -5.8166045436707E-03
(PID.TID 0000.0001) // =======================================================
(PID.TID 0000.0001) // End MONITOR dynamic field statistics
(PID.TID 0000.0001) // =======================================================
(PID.TID 0000.0001) // =======================================================
(PID.TID 0000.0001) // Begin MONITOR SEAICE statistics
(PID.TID 0000.0001) // =======================================================
(PID.TID 0000.0001) %MON seaice_tsnumber              =                     5
(PID.TID 0000.0001) %MON seaice_time_sec              =   4.3200000000000E+05
(PID.TID 0000.0001) %MON seaice_uice_max              =   1.3095638218822E-01
(PID.TID 0000.0001) %MON seaice_uice_min              =  -2.0957868960258E-01
(PID.TID 0000.0001) %MON seaice_uice_mean             =  -4.6946350556197E-04
(PID.TID 0000.0001) %MON seaice_uice_sd               =   1.1928659920183E-02
(PID.TID 0000.0001) %MON seaice_uice_del2             =   1.7609901307660E-04
(PID.TID 0000.0001) %MON seaice_vice_max              =   1.5840678978051E-01
(PID.TID 0000.0001) %MON seaice_vice_min              =  -1.6399407376788E-01
(PID.TID 0000.0001) %MON seaice_vice_mean             =   1.0163199658181E-03
(PID.TID 0000.0001) %MON seaice_vice_sd               =   1.5006302340133E-02
(PID.TID 0000.0001) %MON seaice_vice_del2             =   1.1331734062317E-04
(PID.TID 0000.0001) %MON seaice_area_max              =   8.6150414171698E-01
(PID.TID 0000.0001) %MON seaice_area_min              =   0.0000000000000E+00
(PID.TID 0000.0001) %MON seaice_area_mean             =   1.6704698165144E-02
(PID.TID 0000.0001) %MON seaice_area_sd               =   1.0877237888625E-01
(PID.TID 0000.0001) %MON seaice_area_del2             =   9.8370307976412E-04
(PID.TID 0000.0001) %MON seaice_heff_max              =   5.1955260437141E-01
(PID.TID 0000.0001) %MON seaice_heff_min              =   0.0000000000000E+00
(PID.TID 0000.0001) %MON seaice_heff_mean             =   9.2813422991477E-03
(PID.TID 0000.0001) %MON seaice_heff_sd               =   6.1435544981447E-02
(PID.TID 0000.0001) %MON seaice_heff_del2             =   5.3056607067902E-04
(PID.TID 0000.0001) %MON seaice_hsnow_max             =   6.0916349121732E-03
(PID.TID 0000.0001) %MON seaice_hsnow_min             =   0.0000000000000E+00
(PID.TID 0000.0001) %MON seaice_hsnow_mean            =   5.6922029022615E-05
(PID.TID 0000.0001) %MON seaice_hsnow_sd              =   4.3945628668092E-04
(PID.TID 0000.0001) %MON seaice_hsnow_del2            =   7.3347101559688E-06
(PID.TID 0000.0001) // =======================================================
(PID.TID 0000.0001) // End MONITOR SEAICE statistics
(PID.TID 0000.0001) // =======================================================
 EXTERNAL_FIELDS_LOAD,         5 : iP,iLd,i0,i1=   12    1   12    1 ; Wght=  0.3333333333  0.6666666667
 SEAICE_LSR: Residual Initial ipass,Uice,Vice=         1  7.85889994E-04  3.72192401E-04
 SEAICE_LSR (ipass=        1) iters,dU,Resid=       12  2.80830914E-13  2.23288366E-16
 SEAICE_LSR (ipass=        1) iters,dV,Resid=       12  9.65463820E-13  2.01961878E-16
 SEAICE_LSR: Residual Initial ipass,Uice,Vice=         2  2.09208760E-04  8.23985205E-05
 SEAICE_LSR (ipass=        2) iters,dU,Resid=       12  6.43929354E-14  1.00349968E-16
 SEAICE_LSR (ipass=        2) iters,dV,Resid=       12  1.36821110E-13  4.20602988E-17
 cg2d: Sum(rhs),rhsMax =   3.73916305272329E-01  1.58684647824749E+01
(PID.TID 0000.0001)      cg2d_init_res =   9.00213104862067E-02
(PID.TID 0000.0001)      cg2d_iters(min,last) =      -1     103
(PID.TID 0000.0001)      cg2d_last_res =   8.11066263680175E-10
(PID.TID 0000.0001) // =======================================================
(PID.TID 0000.0001) // Begin MONITOR dynamic field statistics
(PID.TID 0000.0001) // =======================================================
(PID.TID 0000.0001) %MON time_tsnumber                =                     6
(PID.TID 0000.0001) %MON time_secondsf                =   5.1840000000000E+05
(PID.TID 0000.0001) %MON dynstat_eta_max              =   1.2635138165241E+04
(PID.TID 0000.0001) %MON dynstat_eta_min              =  -2.0285000064874E+04
(PID.TID 0000.0001) %MON dynstat_eta_mean             =  -8.9604499040362E+01
(PID.TID 0000.0001) %MON dynstat_eta_sd               =   6.3864553910767E+03
(PID.TID 0000.0001) %MON dynstat_eta_del2             =   7.5449276759666E+01
(PID.TID 0000.0001) %MON dynstat_uvel_max             =   9.7936167704272E-02
(PID.TID 0000.0001) %MON dynstat_uvel_min             =  -1.1709694810045E-01
(PID.TID 0000.0001) %MON dynstat_uvel_mean            =  -2.5752922803729E-04
(PID.TID 0000.0001) %MON dynstat_uvel_sd              =   5.8735410034361E-03
(PID.TID 0000.0001) %MON dynstat_uvel_del2            =   3.0020497624562E-05
(PID.TID 0000.0001) %MON dynstat_vvel_max             =   1.5970740600821E-01
(PID.TID 0000.0001) %MON dynstat_vvel_min             =  -1.4681328332888E-01
(PID.TID 0000.0001) %MON dynstat_vvel_mean            =  -4.6922613638469E-04
(PID.TID 0000.0001) %MON dynstat_vvel_sd              =   6.0348481295362E-03
(PID.TID 0000.0001) %MON dynstat_vvel_del2            =   3.1094818539004E-05
(PID.TID 0000.0001) %MON dynstat_wvel_max             =   4.6621094689442E+00
(PID.TID 0000.0001) %MON dynstat_wvel_min             =  -7.9189796295390E+00
(PID.TID 0000.0001) %MON dynstat_wvel_mean            =  -1.4198989018422E-04
(PID.TID 0000.0001) %MON dynstat_wvel_sd              =   2.1672283008254E-01
(PID.TID 0000.0001) %MON dynstat_wvel_del2            =   1.7156283477822E-03
(PID.TID 0000.0001) %MON dynstat_theta_max            =   2.9430847007203E+01
(PID.TID 0000.0001) %MON dynstat_theta_min            =  -1.8962774342947E+00
(PID.TID 0000.0001) %MON dynstat_theta_mean           =   3.5919960575865E+00
(PID.TID 0000.0001) %MON dynstat_theta_sd             =   4.4288471375365E+00
(PID.TID 0000.0001) %MON dynstat_theta_del2           =   2.0813164857681E-03
(PID.TID 0000.0001) %MON dynstat_salt_max             =   4.0715802342218E+01
(PID.TID 0000.0001) %MON dynstat_salt_min             =   1.7108869323447E+01
(PID.TID 0000.0001) %MON dynstat_salt_mean            =   3.4721525013630E+01
(PID.TID 0000.0001) %MON dynstat_salt_sd              =   4.8747710562961E-01
(PID.TID 0000.0001) %MON dynstat_salt_del2            =   5.1072550655745E-04
(PID.TID 0000.0001) %MON forcing_qnet_max             =   6.7056507441170E+02
(PID.TID 0000.0001) %MON forcing_qnet_min             =  -3.1347738067148E+02
(PID.TID 0000.0001) %MON forcing_qnet_mean            =  -2.7790631543751E+01
(PID.TID 0000.0001) %MON forcing_qnet_sd              =   1.5331730455155E+02
(PID.TID 0000.0001) %MON forcing_qnet_del2            =   8.6374458343375E-01
(PID.TID 0000.0001) %MON forcing_qsw_max              =   0.0000000000000E+00
(PID.TID 0000.0001) %MON forcing_qsw_min              =  -3.0185528845048E+02
(PID.TID 0000.0001) %MON forcing_qsw_mean             =  -1.8595720334753E+02
(PID.TID 0000.0001) %MON forcing_qsw_sd               =   7.8769714008920E+01
(PID.TID 0000.0001) %MON forcing_qsw_del2             =   1.1038814343374E-01
(PID.TID 0000.0001) %MON forcing_empmr_max            =   1.5959862747920E-03
(PID.TID 0000.0001) %MON forcing_empmr_min            =  -4.5325311804606E-04
(PID.TID 0000.0001) %MON forcing_empmr_mean           =   1.8407969200015E-05
(PID.TID 0000.0001) %MON forcing_empmr_sd             =   1.3871149957445E-04
(PID.TID 0000.0001) %MON forcing_empmr_del2           =   1.8017683327451E-06
(PID.TID 0000.0001) %MON forcing_fu_max               =   2.4736588936290E-01
(PID.TID 0000.0001) %MON forcing_fu_min               =  -2.1866089303695E-01
(PID.TID 0000.0001) %MON forcing_fu_mean              =  -4.2899427954600E-03
(PID.TID 0000.0001) %MON forcing_fu_sd                =   6.4103638855309E-02
(PID.TID 0000.0001) %MON forcing_fu_del2              =   2.0828939265276E-04
(PID.TID 0000.0001) %MON forcing_fv_max               =   2.6622718829904E-01
(PID.TID 0000.0001) %MON forcing_fv_min               =  -3.3085944368965E-01
(PID.TID 0000.0001) %MON forcing_fv_mean              =  -1.3693892620192E-02
(PID.TID 0000.0001) %MON forcing_fv_sd                =   7.5467651774554E-02
(PID.TID 0000.0001) %MON forcing_fv_del2              =   2.3656920423417E-04
(PID.TID 0000.0001) %MON trAdv_CFL_u_max              =   4.1745265900046E-02
(PID.TID 0000.0001) %MON trAdv_CFL_v_max              =   5.8489330622138E-02
(PID.TID 0000.0001) %MON trAdv_CFL_w_max              =   2.0408462832039E-01
(PID.TID 0000.0001) %MON advcfl_uvel_max              =   3.6413188119826E-02
(PID.TID 0000.0001) %MON advcfl_vvel_max              =   4.5149553980645E-02
(PID.TID 0000.0001) %MON advcfl_wvel_max              =   2.2351969045472E-01
(PID.TID 0000.0001) %MON advcfl_W_hf_max              =   2.4694431290063E-01
(PID.TID 0000.0001) %MON pe_b_mean                    =   9.8489977376202E-03
(PID.TID 0000.0001) %MON ke_max                       =   8.6720591379934E-03
(PID.TID 0000.0001) %MON ke_mean                      =   3.2877329464820E-05
(PID.TID 0000.0001) %MON ke_vol                       =   1.3604149755811E+22
(PID.TID 0000.0001) %MON vort_r_min                   =  -5.8376878945295E-07
(PID.TID 0000.0001) %MON vort_r_max                   =   5.8855845589438E-07
(PID.TID 0000.0001) %MON vort_a_mean                  =  -2.0556865257795E-05
(PID.TID 0000.0001) %MON vort_a_sd                    =   7.5247374897979E-05
(PID.TID 0000.0001) %MON vort_p_mean                  =  -2.4859330227362E-05
(PID.TID 0000.0001) %MON vort_p_sd                    =   1.2920423205783E-04
(PID.TID 0000.0001) %MON surfExpan_theta_mean         =   4.9848958334993E-03
(PID.TID 0000.0001) %MON surfExpan_salt_mean          =  -6.2739883728332E-03
(PID.TID 0000.0001) // =======================================================
(PID.TID 0000.0001) // End MONITOR dynamic field statistics
(PID.TID 0000.0001) // =======================================================
(PID.TID 0000.0001) // =======================================================
(PID.TID 0000.0001) // Begin MONITOR SEAICE statistics
(PID.TID 0000.0001) // =======================================================
(PID.TID 0000.0001) %MON seaice_tsnumber              =                     6
(PID.TID 0000.0001) %MON seaice_time_sec              =   5.1840000000000E+05
(PID.TID 0000.0001) %MON seaice_uice_max              =   1.8347582063523E-01
(PID.TID 0000.0001) %MON seaice_uice_min              =  -2.5108555242679E-01
(PID.TID 0000.0001) %MON seaice_uice_mean             =  -5.0569956556198E-04
(PID.TID 0000.0001) %MON seaice_uice_sd               =   1.3065645884833E-02
(PID.TID 0000.0001) %MON seaice_uice_del2             =   1.9908839574454E-04
(PID.TID 0000.0001) %MON seaice_vice_max              =   1.6247095392149E-01
(PID.TID 0000.0001) %MON seaice_vice_min              =  -1.7076766938228E-01
(PID.TID 0000.0001) %MON seaice_vice_mean             =   1.0732858658590E-03
(PID.TID 0000.0001) %MON seaice_vice_sd               =   1.5426319469118E-02
(PID.TID 0000.0001) %MON seaice_vice_del2             =   1.1539720337020E-04
(PID.TID 0000.0001) %MON seaice_area_max              =   9.1258789106256E-01
(PID.TID 0000.0001) %MON seaice_area_min              =   0.0000000000000E+00
(PID.TID 0000.0001) %MON seaice_area_mean             =   1.9546300228218E-02
(PID.TID 0000.0001) %MON seaice_area_sd               =   1.2233814128353E-01
(PID.TID 0000.0001) %MON seaice_area_del2             =   9.0354047960032E-04
(PID.TID 0000.0001) %MON seaice_heff_max              =   5.7656415530621E-01
(PID.TID 0000.0001) %MON seaice_heff_min              =   0.0000000000000E+00
(PID.TID 0000.0001) %MON seaice_heff_mean             =   1.1244806629288E-02
(PID.TID 0000.0001) %MON seaice_heff_sd               =   7.1472849616728E-02
(PID.TID 0000.0001) %MON seaice_heff_del2             =   5.1442081480711E-04
(PID.TID 0000.0001) %MON seaice_hsnow_max             =   9.0846746095440E-03
(PID.TID 0000.0001) %MON seaice_hsnow_min             =   0.0000000000000E+00
(PID.TID 0000.0001) %MON seaice_hsnow_mean            =   8.6822738355533E-05
(PID.TID 0000.0001) %MON seaice_hsnow_sd              =   6.4964551314010E-04
(PID.TID 0000.0001) %MON seaice_hsnow_del2            =   1.0240122090783E-05
(PID.TID 0000.0001) // =======================================================
(PID.TID 0000.0001) // End MONITOR SEAICE statistics
(PID.TID 0000.0001) // =======================================================
 EXTERNAL_FIELDS_LOAD,         6 : iP,iLd,i0,i1=   12    1   12    1 ; Wght=  0.3000000000  0.7000000000
 SEAICE_LSR: Residual Initial ipass,Uice,Vice=         1  7.17739137E-04  4.16815593E-04
 SEAICE_LSR (ipass=        1) iters,dU,Resid=       16  2.39114284E-13  9.23565679E-16
 SEAICE_LSR (ipass=        1) iters,dV,Resid=       16  3.43461370E-13  8.84598899E-16
 SEAICE_LSR: Residual Initial ipass,Uice,Vice=         2  5.44735734E-04  1.07967807E-04
 SEAICE_LSR (ipass=        2) iters,dU,Resid=       16  1.11695375E-13  4.55032101E-16
 SEAICE_LSR (ipass=        2) iters,dV,Resid=       16  7.69662112E-14  2.11994313E-16
 cg2d: Sum(rhs),rhsMax =   4.23650485491809E-01  1.58663501264464E+01
(PID.TID 0000.0001)      cg2d_init_res =   8.92339058246119E-02
(PID.TID 0000.0001)      cg2d_iters(min,last) =      -1     101
(PID.TID 0000.0001)      cg2d_last_res =   7.89551955145572E-10
(PID.TID 0000.0001) // =======================================================
(PID.TID 0000.0001) // Begin MONITOR dynamic field statistics
(PID.TID 0000.0001) // =======================================================
(PID.TID 0000.0001) %MON time_tsnumber                =                     7
(PID.TID 0000.0001) %MON time_secondsf                =   6.0480000000000E+05
(PID.TID 0000.0001) %MON dynstat_eta_max              =   1.3434705758203E+04
(PID.TID 0000.0001) %MON dynstat_eta_min              =  -2.0057008914220E+04
(PID.TID 0000.0001) %MON dynstat_eta_mean             =  -1.0150916193182E+02
(PID.TID 0000.0001) %MON dynstat_eta_sd               =   6.3612748998712E+03
(PID.TID 0000.0001) %MON dynstat_eta_del2             =   7.5630022218077E+01
(PID.TID 0000.0001) %MON dynstat_uvel_max             =   1.1051140674955E-01
(PID.TID 0000.0001) %MON dynstat_uvel_min             =  -1.3175846180563E-01
(PID.TID 0000.0001) %MON dynstat_uvel_mean            =  -1.3890429394121E-04
(PID.TID 0000.0001) %MON dynstat_uvel_sd              =   6.7197622866161E-03
(PID.TID 0000.0001) %MON dynstat_uvel_del2            =   3.3219640364898E-05
(PID.TID 0000.0001) %MON dynstat_vvel_max             =   1.7802506261839E-01
(PID.TID 0000.0001) %MON dynstat_vvel_min             =  -1.6440408716970E-01
(PID.TID 0000.0001) %MON dynstat_vvel_mean            =  -4.9335702507306E-04
(PID.TID 0000.0001) %MON dynstat_vvel_sd              =   6.9138214034491E-03
(PID.TID 0000.0001) %MON dynstat_vvel_del2            =   3.4304679632576E-05
(PID.TID 0000.0001) %MON dynstat_wvel_max             =   5.1012647786613E+00
(PID.TID 0000.0001) %MON dynstat_wvel_min             =  -8.8538318122559E+00
(PID.TID 0000.0001) %MON dynstat_wvel_mean            =  -1.1521308466113E-04
(PID.TID 0000.0001) %MON dynstat_wvel_sd              =   2.3832011950209E-01
(PID.TID 0000.0001) %MON dynstat_wvel_del2            =   1.8497614738529E-03
(PID.TID 0000.0001) %MON dynstat_theta_max            =   2.9436616889425E+01
(PID.TID 0000.0001) %MON dynstat_theta_min            =  -1.8987699093198E+00
(PID.TID 0000.0001) %MON dynstat_theta_mean           =   3.5921633067331E+00
(PID.TID 0000.0001) %MON dynstat_theta_sd             =   4.4292574955726E+00
(PID.TID 0000.0001) %MON dynstat_theta_del2           =   2.0660052204125E-03
(PID.TID 0000.0001) %MON dynstat_salt_max             =   4.0715789284902E+01
(PID.TID 0000.0001) %MON dynstat_salt_min             =   1.6820880455545E+01
(PID.TID 0000.0001) %MON dynstat_salt_mean            =   3.4721534421593E+01
(PID.TID 0000.0001) %MON dynstat_salt_sd              =   4.8743798519410E-01
(PID.TID 0000.0001) %MON dynstat_salt_del2            =   5.0693133998395E-04
(PID.TID 0000.0001) %MON forcing_qnet_max             =   6.8219068114995E+02
(PID.TID 0000.0001) %MON forcing_qnet_min             =  -3.1249224887755E+02
(PID.TID 0000.0001) %MON forcing_qnet_mean            =  -2.7369407527442E+01
(PID.TID 0000.0001) %MON forcing_qnet_sd              =   1.5230737322978E+02
(PID.TID 0000.0001) %MON forcing_qnet_del2            =   9.2844919595484E-01
(PID.TID 0000.0001) %MON forcing_qsw_max              =   0.0000000000000E+00
(PID.TID 0000.0001) %MON forcing_qsw_min              =  -3.0184329151467E+02
(PID.TID 0000.0001) %MON forcing_qsw_mean             =  -1.8596329575950E+02
(PID.TID 0000.0001) %MON forcing_qsw_sd               =   7.8669790159887E+01
(PID.TID 0000.0001) %MON forcing_qsw_del2             =   1.1053691891939E-01
(PID.TID 0000.0001) %MON forcing_empmr_max            =   1.6263520796790E-03
(PID.TID 0000.0001) %MON forcing_empmr_min            =  -9.9803159087414E-04
(PID.TID 0000.0001) %MON forcing_empmr_mean           =   1.4045407760719E-05
(PID.TID 0000.0001) %MON forcing_empmr_sd             =   1.1801666504247E-04
(PID.TID 0000.0001) %MON forcing_empmr_del2           =   1.8951054020870E-06
(PID.TID 0000.0001) %MON forcing_fu_max               =   2.4731784009269E-01
(PID.TID 0000.0001) %MON forcing_fu_min               =  -2.2180668969530E-01
(PID.TID 0000.0001) %MON forcing_fu_mean              =  -4.2379950143998E-03
(PID.TID 0000.0001) %MON forcing_fu_sd                =   6.4176689454767E-02
(PID.TID 0000.0001) %MON forcing_fu_del2              =   2.0949240536862E-04
(PID.TID 0000.0001) %MON forcing_fv_max               =   2.6891042987167E-01
(PID.TID 0000.0001) %MON forcing_fv_min               =  -3.3164734762358E-01
(PID.TID 0000.0001) %MON forcing_fv_mean              =  -1.3692849897435E-02
(PID.TID 0000.0001) %MON forcing_fv_sd                =   7.5556927889877E-02
(PID.TID 0000.0001) %MON forcing_fv_del2              =   2.3757242964971E-04
(PID.TID 0000.0001) %MON trAdv_CFL_u_max              =   4.4382126559230E-02
(PID.TID 0000.0001) %MON trAdv_CFL_v_max              =   6.5484691085970E-02
(PID.TID 0000.0001) %MON trAdv_CFL_w_max              =   2.2766650980459E-01
(PID.TID 0000.0001) %MON advcfl_uvel_max              =   4.1075596274966E-02
(PID.TID 0000.0001) %MON advcfl_vvel_max              =   5.0339169674547E-02
(PID.TID 0000.0001) %MON advcfl_wvel_max              =   2.4936329876877E-01
(PID.TID 0000.0001) %MON advcfl_W_hf_max              =   2.7547861050034E-01
(PID.TID 0000.0001) %MON pe_b_mean                    =   9.8172175032379E-03
(PID.TID 0000.0001) %MON ke_max                       =   1.0918980522732E-02
(PID.TID 0000.0001) %MON ke_mean                      =   4.3042473058904E-05
(PID.TID 0000.0001) %MON ke_vol                       =   1.3604144078341E+22
(PID.TID 0000.0001) %MON vort_r_min                   =  -6.5340232190778E-07
(PID.TID 0000.0001) %MON vort_r_max                   =   6.4136280689764E-07
(PID.TID 0000.0001) %MON vort_a_mean                  =  -2.0556865257795E-05
(PID.TID 0000.0001) %MON vort_a_sd                    =   7.5247401996886E-05
(PID.TID 0000.0001) %MON vort_p_mean                  =  -2.4859342255616E-05
(PID.TID 0000.0001) %MON vort_p_sd                    =   1.2920432263119E-04
(PID.TID 0000.0001) %MON surfExpan_theta_mean         =   2.3438946296325E-03
(PID.TID 0000.0001) %MON surfExpan_salt_mean          =  -4.7806392110393E-03
(PID.TID 0000.0001) // =======================================================
(PID.TID 0000.0001) // End MONITOR dynamic field statistics
(PID.TID 0000.0001) // =======================================================
(PID.TID 0000.0001) // =======================================================
(PID.TID 0000.0001) // Begin MONITOR SEAICE statistics
(PID.TID 0000.0001) // =======================================================
(PID.TID 0000.0001) %MON seaice_tsnumber              =                     7
(PID.TID 0000.0001) %MON seaice_time_sec              =   6.0480000000000E+05
(PID.TID 0000.0001) %MON seaice_uice_max              =   1.2476460430525E-01
(PID.TID 0000.0001) %MON seaice_uice_min              =  -2.0351161175476E-01
(PID.TID 0000.0001) %MON seaice_uice_mean             =  -7.0032411879768E-04
(PID.TID 0000.0001) %MON seaice_uice_sd               =   1.3573854627812E-02
(PID.TID 0000.0001) %MON seaice_uice_del2             =   2.0322245253876E-04
(PID.TID 0000.0001) %MON seaice_vice_max              =   1.6106850447842E-01
(PID.TID 0000.0001) %MON seaice_vice_min              =  -1.7595418100083E-01
(PID.TID 0000.0001) %MON seaice_vice_mean             =   1.1343650624318E-03
(PID.TID 0000.0001) %MON seaice_vice_sd               =   1.5628668533433E-02
(PID.TID 0000.0001) %MON seaice_vice_del2             =   1.1895970674499E-04
(PID.TID 0000.0001) %MON seaice_area_max              =   9.4588962490753E-01
(PID.TID 0000.0001) %MON seaice_area_min              =   0.0000000000000E+00
(PID.TID 0000.0001) %MON seaice_area_mean             =   2.1659580089742E-02
(PID.TID 0000.0001) %MON seaice_area_sd               =   1.3276432448881E-01
(PID.TID 0000.0001) %MON seaice_area_del2             =   9.0108491407192E-04
(PID.TID 0000.0001) %MON seaice_heff_max              =   6.2516618268531E-01
(PID.TID 0000.0001) %MON seaice_heff_min              =   0.0000000000000E+00
(PID.TID 0000.0001) %MON seaice_heff_mean             =   1.2794919163705E-02
(PID.TID 0000.0001) %MON seaice_heff_sd               =   7.9862486033304E-02
(PID.TID 0000.0001) %MON seaice_heff_del2             =   5.5348302033622E-04
(PID.TID 0000.0001) %MON seaice_hsnow_max             =   1.2343968041311E-02
(PID.TID 0000.0001) %MON seaice_hsnow_min             =   0.0000000000000E+00
(PID.TID 0000.0001) %MON seaice_hsnow_mean            =   1.2228510007437E-04
(PID.TID 0000.0001) %MON seaice_hsnow_sd              =   8.9127800958954E-04
(PID.TID 0000.0001) %MON seaice_hsnow_del2            =   1.3197145488302E-05
(PID.TID 0000.0001) // =======================================================
(PID.TID 0000.0001) // End MONITOR SEAICE statistics
(PID.TID 0000.0001) // =======================================================
 EXTERNAL_FIELDS_LOAD,         7 : iP,iLd,i0,i1=   12    1   12    1 ; Wght=  0.2666666667  0.7333333333
 SEAICE_LSR: Residual Initial ipass,Uice,Vice=         1  5.50500606E-04  4.64850284E-04
 SEAICE_LSR (ipass=        1) iters,dU,Resid=       24  8.28712099E-14  1.03600316E-15
 SEAICE_LSR (ipass=        1) iters,dV,Resid=       24  1.30007116E-13  1.20330234E-15
 SEAICE_LSR: Residual Initial ipass,Uice,Vice=         2  2.64602457E-04  1.77707673E-04
 SEAICE_LSR (ipass=        2) iters,dU,Resid=       22  3.31030342E-13  4.38127027E-15
 SEAICE_LSR (ipass=        2) iters,dV,Resid=       22  3.03340686E-13  2.92137650E-15
 cg2d: Sum(rhs),rhsMax =   4.71797249984009E-01  1.58668955105854E+01
(PID.TID 0000.0001)      cg2d_init_res =   9.04410939430598E-02
(PID.TID 0000.0001)      cg2d_iters(min,last) =      -1     101
(PID.TID 0000.0001)      cg2d_last_res =   8.70251473331925E-10
(PID.TID 0000.0001) // =======================================================
(PID.TID 0000.0001) // Begin MONITOR dynamic field statistics
(PID.TID 0000.0001) // =======================================================
(PID.TID 0000.0001) %MON time_tsnumber                =                     8
(PID.TID 0000.0001) %MON time_secondsf                =   6.9120000000000E+05
(PID.TID 0000.0001) %MON dynstat_eta_max              =   1.3858945021430E+04
(PID.TID 0000.0001) %MON dynstat_eta_min              =  -1.9740242522247E+04
(PID.TID 0000.0001) %MON dynstat_eta_mean             =  -1.1304929724171E+02
(PID.TID 0000.0001) %MON dynstat_eta_sd               =   6.3283467004962E+03
(PID.TID 0000.0001) %MON dynstat_eta_del2             =   7.5778866637876E+01
(PID.TID 0000.0001) %MON dynstat_uvel_max             =   1.2174672099983E-01
(PID.TID 0000.0001) %MON dynstat_uvel_min             =  -1.4419738362307E-01
(PID.TID 0000.0001) %MON dynstat_uvel_mean            =  -4.1836622874879E-05
(PID.TID 0000.0001) %MON dynstat_uvel_sd              =   7.5293832328330E-03
(PID.TID 0000.0001) %MON dynstat_uvel_del2            =   3.5858629617968E-05
(PID.TID 0000.0001) %MON dynstat_vvel_max             =   1.9343965190613E-01
(PID.TID 0000.0001) %MON dynstat_vvel_min             =  -1.7951299585037E-01
(PID.TID 0000.0001) %MON dynstat_vvel_mean            =  -4.7234170727519E-04
(PID.TID 0000.0001) %MON dynstat_vvel_sd              =   7.7504351735387E-03
(PID.TID 0000.0001) %MON dynstat_vvel_del2            =   3.6960951361562E-05
(PID.TID 0000.0001) %MON dynstat_wvel_max             =   5.4120841334855E+00
(PID.TID 0000.0001) %MON dynstat_wvel_min             =  -9.6386139593761E+00
(PID.TID 0000.0001) %MON dynstat_wvel_mean            =  -6.1943933969421E-05
(PID.TID 0000.0001) %MON dynstat_wvel_sd              =   2.5509851417079E-01
(PID.TID 0000.0001) %MON dynstat_wvel_del2            =   1.9413921812672E-03
(PID.TID 0000.0001) %MON dynstat_theta_max            =   2.9441944723634E+01
(PID.TID 0000.0001) %MON dynstat_theta_min            =  -1.8997566208595E+00
(PID.TID 0000.0001) %MON dynstat_theta_mean           =   3.5923307020241E+00
(PID.TID 0000.0001) %MON dynstat_theta_sd             =   4.4296574074248E+00
(PID.TID 0000.0001) %MON dynstat_theta_del2           =   2.0696548445351E-03
(PID.TID 0000.0001) %MON dynstat_salt_max             =   4.0715770559856E+01
(PID.TID 0000.0001) %MON dynstat_salt_min             =   1.6525812667504E+01
(PID.TID 0000.0001) %MON dynstat_salt_mean            =   3.4721543329194E+01
(PID.TID 0000.0001) %MON dynstat_salt_sd              =   4.8740043918213E-01
(PID.TID 0000.0001) %MON dynstat_salt_del2            =   5.0404259579382E-04
(PID.TID 0000.0001) %MON forcing_qnet_max             =   6.7790972172902E+02
(PID.TID 0000.0001) %MON forcing_qnet_min             =  -3.1144809954233E+02
(PID.TID 0000.0001) %MON forcing_qnet_mean            =  -2.7812091936018E+01
(PID.TID 0000.0001) %MON forcing_qnet_sd              =   1.4968104968419E+02
(PID.TID 0000.0001) %MON forcing_qnet_del2            =   7.9449586177047E-01
(PID.TID 0000.0001) %MON forcing_qsw_max              =   0.0000000000000E+00
(PID.TID 0000.0001) %MON forcing_qsw_min              =  -3.0183129457886E+02
(PID.TID 0000.0001) %MON forcing_qsw_mean             =  -1.8596934910597E+02
(PID.TID 0000.0001) %MON forcing_qsw_sd               =   7.8572681069816E+01
(PID.TID 0000.0001) %MON forcing_qsw_del2             =   1.1074865299014E-01
(PID.TID 0000.0001) %MON forcing_empmr_max            =   1.2985965042403E-03
(PID.TID 0000.0001) %MON forcing_empmr_min            =  -4.5686673887278E-04
(PID.TID 0000.0001) %MON forcing_empmr_mean           =   1.3615329347752E-05
(PID.TID 0000.0001) %MON forcing_empmr_sd             =   1.0632884403578E-04
(PID.TID 0000.0001) %MON forcing_empmr_del2           =   1.4389488506676E-06
(PID.TID 0000.0001) %MON forcing_fu_max               =   2.4726979082249E-01
(PID.TID 0000.0001) %MON forcing_fu_min               =  -2.2495248635365E-01
(PID.TID 0000.0001) %MON forcing_fu_mean              =  -4.1876293621135E-03
(PID.TID 0000.0001) %MON forcing_fu_sd                =   6.4262835489214E-02
(PID.TID 0000.0001) %MON forcing_fu_del2              =   2.1097841826107E-04
(PID.TID 0000.0001) %MON forcing_fv_max               =   2.7159367144430E-01
(PID.TID 0000.0001) %MON forcing_fv_min               =  -3.3243525155752E-01
(PID.TID 0000.0001) %MON forcing_fv_mean              =  -1.3694472248486E-02
(PID.TID 0000.0001) %MON forcing_fv_sd                =   7.5651162419866E-02
(PID.TID 0000.0001) %MON forcing_fv_del2              =   2.3882038696490E-04
(PID.TID 0000.0001) %MON trAdv_CFL_u_max              =   4.5020463295631E-02
(PID.TID 0000.0001) %MON trAdv_CFL_v_max              =   7.1380956983502E-02
(PID.TID 0000.0001) %MON trAdv_CFL_w_max              =   2.4719146328350E-01
(PID.TID 0000.0001) %MON advcfl_uvel_max              =   4.5051962425966E-02
(PID.TID 0000.0001) %MON advcfl_vvel_max              =   5.5540725427705E-02
(PID.TID 0000.0001) %MON advcfl_wvel_max              =   2.7076254129343E-01
(PID.TID 0000.0001) %MON advcfl_W_hf_max              =   2.9910398719308E-01
(PID.TID 0000.0001) %MON pe_b_mean                    =   9.7927893367641E-03
(PID.TID 0000.0001) %MON ke_max                       =   1.3067471185246E-02
(PID.TID 0000.0001) %MON ke_mean                      =   5.4016514616094E-05
(PID.TID 0000.0001) %MON ke_vol                       =   1.3604139746392E+22
(PID.TID 0000.0001) %MON vort_r_min                   =  -7.1356331202206E-07
(PID.TID 0000.0001) %MON vort_r_max                   =   6.9401258676687E-07
(PID.TID 0000.0001) %MON vort_a_mean                  =  -2.0556865257795E-05
(PID.TID 0000.0001) %MON vort_a_sd                    =   7.5247429175288E-05
(PID.TID 0000.0001) %MON vort_p_mean                  =  -2.4859350516549E-05
(PID.TID 0000.0001) %MON vort_p_sd                    =   1.2920412967520E-04
(PID.TID 0000.0001) %MON surfExpan_theta_mean         =   2.6155975148764E-04
(PID.TID 0000.0001) %MON surfExpan_salt_mean          =  -4.5514918391725E-03
(PID.TID 0000.0001) // =======================================================
(PID.TID 0000.0001) // End MONITOR dynamic field statistics
(PID.TID 0000.0001) // =======================================================
(PID.TID 0000.0001) // =======================================================
(PID.TID 0000.0001) // Begin MONITOR SEAICE statistics
(PID.TID 0000.0001) // =======================================================
(PID.TID 0000.0001) %MON seaice_tsnumber              =                     8
(PID.TID 0000.0001) %MON seaice_time_sec              =   6.9120000000000E+05
(PID.TID 0000.0001) %MON seaice_uice_max              =   1.6250133259492E-01
(PID.TID 0000.0001) %MON seaice_uice_min              =  -2.3187333620675E-01
(PID.TID 0000.0001) %MON seaice_uice_mean             =  -6.2298791452577E-04
(PID.TID 0000.0001) %MON seaice_uice_sd               =   1.4523075343019E-02
(PID.TID 0000.0001) %MON seaice_uice_del2             =   2.3057641827385E-04
(PID.TID 0000.0001) %MON seaice_vice_max              =   1.6339687393870E-01
(PID.TID 0000.0001) %MON seaice_vice_min              =  -1.8170387570877E-01
(PID.TID 0000.0001) %MON seaice_vice_mean             =   1.2138068925166E-03
(PID.TID 0000.0001) %MON seaice_vice_sd               =   1.5758869751141E-02
(PID.TID 0000.0001) %MON seaice_vice_del2             =   1.2247807364224E-04
(PID.TID 0000.0001) %MON seaice_area_max              =   9.6739607165466E-01
(PID.TID 0000.0001) %MON seaice_area_min              =   0.0000000000000E+00
(PID.TID 0000.0001) %MON seaice_area_mean             =   2.3313580560923E-02
(PID.TID 0000.0001) %MON seaice_area_sd               =   1.4095213671119E-01
(PID.TID 0000.0001) %MON seaice_area_del2             =   8.7352157571715E-04
(PID.TID 0000.0001) %MON seaice_heff_max              =   6.6764244890604E-01
(PID.TID 0000.0001) %MON seaice_heff_min              =   0.0000000000000E+00
(PID.TID 0000.0001) %MON seaice_heff_mean             =   1.4300787861781E-02
(PID.TID 0000.0001) %MON seaice_heff_sd               =   8.7761456887186E-02
(PID.TID 0000.0001) %MON seaice_heff_del2             =   5.3775274735946E-04
(PID.TID 0000.0001) %MON seaice_hsnow_max             =   1.5773329130901E-02
(PID.TID 0000.0001) %MON seaice_hsnow_min             =   0.0000000000000E+00
(PID.TID 0000.0001) %MON seaice_hsnow_mean            =   1.6218371716170E-04
(PID.TID 0000.0001) %MON seaice_hsnow_sd              =   1.1581233299108E-03
(PID.TID 0000.0001) %MON seaice_hsnow_del2            =   1.5381429514534E-05
(PID.TID 0000.0001) // =======================================================
(PID.TID 0000.0001) // End MONITOR SEAICE statistics
(PID.TID 0000.0001) // =======================================================
 EXTERNAL_FIELDS_LOAD,         8 : iP,iLd,i0,i1=   12    1   12    1 ; Wght=  0.2333333333  0.7666666667
 SEAICE_LSR: Residual Initial ipass,Uice,Vice=         1  4.59455257E-04  5.21831097E-04
 SEAICE_LSR (ipass=        1) iters,dU,Resid=       32  1.95607419E-13  6.09756422E-15
 SEAICE_LSR (ipass=        1) iters,dV,Resid=       32  5.42441092E-13  1.38368463E-14
 SEAICE_LSR: Residual Initial ipass,Uice,Vice=         2  2.59346003E-04  2.25846399E-04
 SEAICE_LSR (ipass=        2) iters,dU,Resid=       30  4.68534933E-13  1.52140410E-14
 SEAICE_LSR (ipass=        2) iters,dV,Resid=       30  8.37774294E-13  2.25445964E-14
 cg2d: Sum(rhs),rhsMax =   5.10150701331186E-01  1.58699719857131E+01
(PID.TID 0000.0001)      cg2d_init_res =   9.09001259484420E-02
(PID.TID 0000.0001)      cg2d_iters(min,last) =      -1     101
(PID.TID 0000.0001)      cg2d_last_res =   9.11967889317439E-10
(PID.TID 0000.0001) // =======================================================
(PID.TID 0000.0001) // Begin MONITOR dynamic field statistics
(PID.TID 0000.0001) // =======================================================
(PID.TID 0000.0001) %MON time_tsnumber                =                     9
(PID.TID 0000.0001) %MON time_secondsf                =   7.7760000000000E+05
(PID.TID 0000.0001) %MON dynstat_eta_max              =   1.3911201268953E+04
(PID.TID 0000.0001) %MON dynstat_eta_min              =  -2.0204765806945E+04
(PID.TID 0000.0001) %MON dynstat_eta_mean             =  -1.2226302821576E+02
(PID.TID 0000.0001) %MON dynstat_eta_sd               =   6.3012203935056E+03
(PID.TID 0000.0001) %MON dynstat_eta_del2             =   7.5869206606105E+01
(PID.TID 0000.0001) %MON dynstat_uvel_max             =   1.3151511609049E-01
(PID.TID 0000.0001) %MON dynstat_uvel_min             =  -1.5435954575675E-01
(PID.TID 0000.0001) %MON dynstat_uvel_mean            =   1.8018702418890E-05
(PID.TID 0000.0001) %MON dynstat_uvel_sd              =   8.2981607225324E-03
(PID.TID 0000.0001) %MON dynstat_uvel_del2            =   3.8002371244734E-05
(PID.TID 0000.0001) %MON dynstat_vvel_max             =   2.0593327952479E-01
(PID.TID 0000.0001) %MON dynstat_vvel_min             =  -1.9193993012586E-01
(PID.TID 0000.0001) %MON dynstat_vvel_mean            =  -4.2300916312484E-04
(PID.TID 0000.0001) %MON dynstat_vvel_sd              =   8.5394714782400E-03
(PID.TID 0000.0001) %MON dynstat_vvel_del2            =   3.9136476196889E-05
(PID.TID 0000.0001) %MON dynstat_wvel_max             =   5.5884047686268E+00
(PID.TID 0000.0001) %MON dynstat_wvel_min             =  -1.0270969644054E+01
(PID.TID 0000.0001) %MON dynstat_wvel_mean            =   4.9828746259535E-06
(PID.TID 0000.0001) %MON dynstat_wvel_sd              =   2.6706237332278E-01
(PID.TID 0000.0001) %MON dynstat_wvel_del2            =   1.9927560741033E-03
(PID.TID 0000.0001) %MON dynstat_theta_max            =   2.9446911852172E+01
(PID.TID 0000.0001) %MON dynstat_theta_min            =  -1.9009386455255E+00
(PID.TID 0000.0001) %MON dynstat_theta_mean           =   3.5924934130857E+00
(PID.TID 0000.0001) %MON dynstat_theta_sd             =   4.4300711802187E+00
(PID.TID 0000.0001) %MON dynstat_theta_del2           =   2.0640665750314E-03
(PID.TID 0000.0001) %MON dynstat_salt_max             =   4.0715750880104E+01
(PID.TID 0000.0001) %MON dynstat_salt_min             =   1.6231058196040E+01
(PID.TID 0000.0001) %MON dynstat_salt_mean            =   3.4721550363074E+01
(PID.TID 0000.0001) %MON dynstat_salt_sd              =   4.8737470719666E-01
(PID.TID 0000.0001) %MON dynstat_salt_del2            =   5.0025401133264E-04
(PID.TID 0000.0001) %MON forcing_qnet_max             =   6.9608818529275E+02
(PID.TID 0000.0001) %MON forcing_qnet_min             =  -3.1034669085568E+02
(PID.TID 0000.0001) %MON forcing_qnet_mean            =  -2.7312067152555E+01
(PID.TID 0000.0001) %MON forcing_qnet_sd              =   1.4858470085659E+02
(PID.TID 0000.0001) %MON forcing_qnet_del2            =   8.3007925730390E-01
(PID.TID 0000.0001) %MON forcing_qsw_max              =   0.0000000000000E+00
(PID.TID 0000.0001) %MON forcing_qsw_min              =  -3.0181929764305E+02
(PID.TID 0000.0001) %MON forcing_qsw_mean             =  -1.8597518850118E+02
(PID.TID 0000.0001) %MON forcing_qsw_sd               =   7.8478745481621E+01
(PID.TID 0000.0001) %MON forcing_qsw_del2             =   1.1102178980384E-01
(PID.TID 0000.0001) %MON forcing_empmr_max            =   1.1498730617264E-03
(PID.TID 0000.0001) %MON forcing_empmr_min            =  -6.9402058336037E-04
(PID.TID 0000.0001) %MON forcing_empmr_mean           =   1.0870581528261E-05
(PID.TID 0000.0001) %MON forcing_empmr_sd             =   9.1905269155964E-05
(PID.TID 0000.0001) %MON forcing_empmr_del2           =   1.3893205919340E-06
(PID.TID 0000.0001) %MON forcing_fu_max               =   2.4722174155228E-01
(PID.TID 0000.0001) %MON forcing_fu_min               =  -2.2809828301201E-01
(PID.TID 0000.0001) %MON forcing_fu_mean              =  -4.1343884710631E-03
(PID.TID 0000.0001) %MON forcing_fu_sd                =   6.4362698270963E-02
(PID.TID 0000.0001) %MON forcing_fu_del2              =   2.1265076628047E-04
(PID.TID 0000.0001) %MON forcing_fv_max               =   2.7427691301694E-01
(PID.TID 0000.0001) %MON forcing_fv_min               =  -3.3322315549145E-01
(PID.TID 0000.0001) %MON forcing_fv_mean              =  -1.3698928856286E-02
(PID.TID 0000.0001) %MON forcing_fv_sd                =   7.5748762999605E-02
(PID.TID 0000.0001) %MON forcing_fv_del2              =   2.4021426176265E-04
(PID.TID 0000.0001) %MON trAdv_CFL_u_max              =   4.8208565590136E-02
(PID.TID 0000.0001) %MON trAdv_CFL_v_max              =   7.6189319570842E-02
(PID.TID 0000.0001) %MON trAdv_CFL_w_max              =   2.6265170755786E-01
(PID.TID 0000.0001) %MON advcfl_uvel_max              =   4.8300092996006E-02
(PID.TID 0000.0001) %MON advcfl_vvel_max              =   5.9896865752604E-02
(PID.TID 0000.0001) %MON advcfl_wvel_max              =   2.8770746692739E-01
(PID.TID 0000.0001) %MON advcfl_W_hf_max              =   3.1781102765481E-01
(PID.TID 0000.0001) %MON pe_b_mean                    =   9.7846942988420E-03
(PID.TID 0000.0001) %MON ke_max                       =   1.5008324876124E-02
(PID.TID 0000.0001) %MON ke_mean                      =   6.5548393278503E-05
(PID.TID 0000.0001) %MON ke_vol                       =   1.3604135547090E+22
(PID.TID 0000.0001) %MON vort_r_min                   =  -7.6441159714473E-07
(PID.TID 0000.0001) %MON vort_r_max                   =   7.3348509037005E-07
(PID.TID 0000.0001) %MON vort_a_mean                  =  -2.0556865257795E-05
(PID.TID 0000.0001) %MON vort_a_sd                    =   7.5247453414133E-05
(PID.TID 0000.0001) %MON vort_p_mean                  =  -2.4859356384832E-05
(PID.TID 0000.0001) %MON vort_p_sd                    =   1.2920389561932E-04
(PID.TID 0000.0001) %MON surfExpan_theta_mean         =  -1.3830442932168E-03
(PID.TID 0000.0001) %MON surfExpan_salt_mean          =  -3.5487817937734E-03
(PID.TID 0000.0001) // =======================================================
(PID.TID 0000.0001) // End MONITOR dynamic field statistics
(PID.TID 0000.0001) // =======================================================
(PID.TID 0000.0001) // =======================================================
(PID.TID 0000.0001) // Begin MONITOR SEAICE statistics
(PID.TID 0000.0001) // =======================================================
(PID.TID 0000.0001) %MON seaice_tsnumber              =                     9
(PID.TID 0000.0001) %MON seaice_time_sec              =   7.7760000000000E+05
(PID.TID 0000.0001) %MON seaice_uice_max              =   1.5534196045538E-01
(PID.TID 0000.0001) %MON seaice_uice_min              =  -2.2904016706264E-01
(PID.TID 0000.0001) %MON seaice_uice_mean             =  -6.6520157711829E-04
(PID.TID 0000.0001) %MON seaice_uice_sd               =   1.4843130772248E-02
(PID.TID 0000.0001) %MON seaice_uice_del2             =   2.3148816827275E-04
(PID.TID 0000.0001) %MON seaice_vice_max              =   1.6554404550534E-01
(PID.TID 0000.0001) %MON seaice_vice_min              =  -1.8823084741522E-01
(PID.TID 0000.0001) %MON seaice_vice_mean             =   1.3162685924511E-03
(PID.TID 0000.0001) %MON seaice_vice_sd               =   1.6044243999414E-02
(PID.TID 0000.0001) %MON seaice_vice_del2             =   1.4030732261647E-04
(PID.TID 0000.0001) %MON seaice_area_max              =   9.8183788124062E-01
(PID.TID 0000.0001) %MON seaice_area_min              =   0.0000000000000E+00
(PID.TID 0000.0001) %MON seaice_area_mean             =   2.4523334958158E-02
(PID.TID 0000.0001) %MON seaice_area_sd               =   1.4692984941112E-01
(PID.TID 0000.0001) %MON seaice_area_del2             =   9.1827736767726E-04
(PID.TID 0000.0001) %MON seaice_heff_max              =   7.0623130546385E-01
(PID.TID 0000.0001) %MON seaice_heff_min              =   0.0000000000000E+00
(PID.TID 0000.0001) %MON seaice_heff_mean             =   1.5541122525444E-02
(PID.TID 0000.0001) %MON seaice_heff_sd               =   9.4500433854406E-02
(PID.TID 0000.0001) %MON seaice_heff_del2             =   5.5967042073187E-04
(PID.TID 0000.0001) %MON seaice_hsnow_max             =   1.9315050587876E-02
(PID.TID 0000.0001) %MON seaice_hsnow_min             =   0.0000000000000E+00
(PID.TID 0000.0001) %MON seaice_hsnow_mean            =   2.0618819220746E-04
(PID.TID 0000.0001) %MON seaice_hsnow_sd              =   1.4490467380693E-03
(PID.TID 0000.0001) %MON seaice_hsnow_del2            =   1.7332289633402E-05
(PID.TID 0000.0001) // =======================================================
(PID.TID 0000.0001) // End MONITOR SEAICE statistics
(PID.TID 0000.0001) // =======================================================
 EXTERNAL_FIELDS_LOAD,         9 : iP,iLd,i0,i1=   12    1   12    1 ; Wght=  0.2000000000  0.8000000000
 SEAICE_LSR: Residual Initial ipass,Uice,Vice=         1  4.67799303E-04  5.85451671E-04
 SEAICE_LSR (ipass=        1) iters,dU,Resid=       42  1.19695920E-13  6.97016336E-15
 SEAICE_LSR (ipass=        1) iters,dV,Resid=       42  7.91353094E-13  4.15808281E-14
 SEAICE_LSR: Residual Initial ipass,Uice,Vice=         2  2.93811737E-04  3.10425880E-04
 SEAICE_LSR (ipass=        2) iters,dU,Resid=       40  1.82791282E-13  1.09439201E-14
 SEAICE_LSR (ipass=        2) iters,dV,Resid=       40  8.84348150E-13  4.80555425E-14
 cg2d: Sum(rhs),rhsMax =   5.45602355262719E-01  1.58744054872924E+01
(PID.TID 0000.0001)      cg2d_init_res =   9.10157000781472E-02
(PID.TID 0000.0001)      cg2d_iters(min,last) =      -1     100
(PID.TID 0000.0001)      cg2d_last_res =   9.70208174206984E-10
(PID.TID 0000.0001) // =======================================================
(PID.TID 0000.0001) // Begin MONITOR dynamic field statistics
(PID.TID 0000.0001) // =======================================================
(PID.TID 0000.0001) %MON time_tsnumber                =                    10
(PID.TID 0000.0001) %MON time_secondsf                =   8.6400000000000E+05
(PID.TID 0000.0001) %MON dynstat_eta_max              =   1.3681887825515E+04
(PID.TID 0000.0001) %MON dynstat_eta_min              =  -2.2446283747876E+04
(PID.TID 0000.0001) %MON dynstat_eta_mean             =  -1.3079592270811E+02
(PID.TID 0000.0001) %MON dynstat_eta_sd               =   6.2929612666542E+03
(PID.TID 0000.0001) %MON dynstat_eta_del2             =   7.5903689072337E+01
(PID.TID 0000.0001) %MON dynstat_uvel_max             =   1.3969299177525E-01
(PID.TID 0000.0001) %MON dynstat_uvel_min             =  -1.6224094982528E-01
(PID.TID 0000.0001) %MON dynstat_uvel_mean            =   3.8444013581676E-05
(PID.TID 0000.0001) %MON dynstat_uvel_sd              =   9.0223846706160E-03
(PID.TID 0000.0001) %MON dynstat_uvel_del2            =   3.9715101506957E-05
(PID.TID 0000.0001) %MON dynstat_vvel_max             =   2.1557147660786E-01
(PID.TID 0000.0001) %MON dynstat_vvel_min             =  -2.0153272875495E-01
(PID.TID 0000.0001) %MON dynstat_vvel_mean            =  -3.6593224709523E-04
(PID.TID 0000.0001) %MON dynstat_vvel_sd              =   9.2773795918648E-03
(PID.TID 0000.0001) %MON dynstat_vvel_del2            =   4.0892450311749E-05
(PID.TID 0000.0001) %MON dynstat_wvel_max             =   5.6285049945506E+00
(PID.TID 0000.0001) %MON dynstat_wvel_min             =  -1.0752278725036E+01
(PID.TID 0000.0001) %MON dynstat_wvel_mean            =   7.0832879700618E-05
(PID.TID 0000.0001) %MON dynstat_wvel_sd              =   2.7434806540232E-01
(PID.TID 0000.0001) %MON dynstat_wvel_del2            =   2.0073414669221E-03
(PID.TID 0000.0001) %MON dynstat_theta_max            =   2.9456259643577E+01
(PID.TID 0000.0001) %MON dynstat_theta_min            =  -1.9013319202434E+00
(PID.TID 0000.0001) %MON dynstat_theta_mean           =   3.5926538862406E+00
(PID.TID 0000.0001) %MON dynstat_theta_sd             =   4.4304798970951E+00
(PID.TID 0000.0001) %MON dynstat_theta_del2           =   2.0717643889903E-03
(PID.TID 0000.0001) %MON dynstat_salt_max             =   4.0715733961651E+01
(PID.TID 0000.0001) %MON dynstat_salt_min             =   1.5944011087775E+01
(PID.TID 0000.0001) %MON dynstat_salt_mean            =   3.4721556945064E+01
(PID.TID 0000.0001) %MON dynstat_salt_sd              =   4.8734554799765E-01
(PID.TID 0000.0001) %MON dynstat_salt_del2            =   4.9758314878641E-04
(PID.TID 0000.0001) %MON forcing_qnet_max             =   1.5148839741790E+03
(PID.TID 0000.0001) %MON forcing_qnet_min             =  -3.0919352017883E+02
(PID.TID 0000.0001) %MON forcing_qnet_mean            =  -2.7197777297513E+01
(PID.TID 0000.0001) %MON forcing_qnet_sd              =   1.4827770692740E+02
(PID.TID 0000.0001) %MON forcing_qnet_del2            =   9.7060831358316E-01
(PID.TID 0000.0001) %MON forcing_qsw_max              =   0.0000000000000E+00
(PID.TID 0000.0001) %MON forcing_qsw_min              =  -3.0180730070724E+02
(PID.TID 0000.0001) %MON forcing_qsw_mean             =  -1.8597961293439E+02
(PID.TID 0000.0001) %MON forcing_qsw_sd               =   7.8390581804203E+01
(PID.TID 0000.0001) %MON forcing_qsw_del2             =   1.1136039133655E-01
(PID.TID 0000.0001) %MON forcing_empmr_max            =   1.3909265810691E-03
(PID.TID 0000.0001) %MON forcing_empmr_min            =  -3.8464756620622E-03
(PID.TID 0000.0001) %MON forcing_empmr_mean           =   1.0067314263068E-05
(PID.TID 0000.0001) %MON forcing_empmr_sd             =   1.1110652147022E-04
(PID.TID 0000.0001) %MON forcing_empmr_del2           =   1.9095003417224E-06
(PID.TID 0000.0001) %MON forcing_fu_max               =   2.4734156444157E-01
(PID.TID 0000.0001) %MON forcing_fu_min               =  -2.3124407967036E-01
(PID.TID 0000.0001) %MON forcing_fu_mean              =  -4.0835914462221E-03
(PID.TID 0000.0001) %MON forcing_fu_sd                =   6.4474606751471E-02
(PID.TID 0000.0001) %MON forcing_fu_del2              =   2.1456077209334E-04
(PID.TID 0000.0001) %MON forcing_fv_max               =   2.7696015458957E-01
(PID.TID 0000.0001) %MON forcing_fv_min               =  -3.3401105942538E-01
(PID.TID 0000.0001) %MON forcing_fv_mean              =  -1.3710912348221E-02
(PID.TID 0000.0001) %MON forcing_fv_sd                =   7.5847806633220E-02
(PID.TID 0000.0001) %MON forcing_fv_del2              =   2.4166624813363E-04
(PID.TID 0000.0001) %MON trAdv_CFL_u_max              =   5.0694768036913E-02
(PID.TID 0000.0001) %MON trAdv_CFL_v_max              =   7.9952573599457E-02
(PID.TID 0000.0001) %MON trAdv_CFL_w_max              =   2.7413278940037E-01
(PID.TID 0000.0001) %MON advcfl_uvel_max              =   5.0791057263527E-02
(PID.TID 0000.0001) %MON advcfl_vvel_max              =   6.3361782738506E-02
(PID.TID 0000.0001) %MON advcfl_wvel_max              =   3.0029137101885E-01
(PID.TID 0000.0001) %MON advcfl_W_hf_max              =   3.3170324428224E-01
(PID.TID 0000.0001) %MON pe_b_mean                    =   9.8036894455118E-03
(PID.TID 0000.0001) %MON ke_max                       =   1.6650263826140E-02
(PID.TID 0000.0001) %MON ke_mean                      =   7.7390188397967E-05
(PID.TID 0000.0001) %MON ke_vol                       =   1.3604132194335E+22
(PID.TID 0000.0001) %MON vort_r_min                   =  -8.0628447206757E-07
(PID.TID 0000.0001) %MON vort_r_max                   =   8.2584679827859E-07
(PID.TID 0000.0001) %MON vort_a_mean                  =  -2.0556865257795E-05
(PID.TID 0000.0001) %MON vort_a_sd                    =   7.5247471977643E-05
(PID.TID 0000.0001) %MON vort_p_mean                  =  -2.4859358779476E-05
(PID.TID 0000.0001) %MON vort_p_sd                    =   1.2920369835681E-04
(PID.TID 0000.0001) %MON surfExpan_theta_mean         =  -2.6572069754546E-03
(PID.TID 0000.0001) %MON surfExpan_salt_mean          =  -3.2129828626761E-03
(PID.TID 0000.0001) // =======================================================
(PID.TID 0000.0001) // End MONITOR dynamic field statistics
(PID.TID 0000.0001) // =======================================================
(PID.TID 0000.0001) // =======================================================
(PID.TID 0000.0001) // Begin MONITOR SEAICE statistics
(PID.TID 0000.0001) // =======================================================
(PID.TID 0000.0001) %MON seaice_tsnumber              =                    10
(PID.TID 0000.0001) %MON seaice_time_sec              =   8.6400000000000E+05
(PID.TID 0000.0001) %MON seaice_uice_max              =   1.5457194215148E-01
(PID.TID 0000.0001) %MON seaice_uice_min              =  -2.3245175808443E-01
(PID.TID 0000.0001) %MON seaice_uice_mean             =  -6.2554814489809E-04
(PID.TID 0000.0001) %MON seaice_uice_sd               =   1.4900476055229E-02
(PID.TID 0000.0001) %MON seaice_uice_del2             =   2.1986475834310E-04
(PID.TID 0000.0001) %MON seaice_vice_max              =   1.6382724779932E-01
(PID.TID 0000.0001) %MON seaice_vice_min              =  -1.9504655234794E-01
(PID.TID 0000.0001) %MON seaice_vice_mean             =   1.4050597674604E-03
(PID.TID 0000.0001) %MON seaice_vice_sd               =   1.6352734085560E-02
(PID.TID 0000.0001) %MON seaice_vice_del2             =   1.3921089438348E-04
(PID.TID 0000.0001) %MON seaice_area_max              =   9.9191340468858E-01
(PID.TID 0000.0001) %MON seaice_area_min              =   0.0000000000000E+00
(PID.TID 0000.0001) %MON seaice_area_mean             =   2.5435550693186E-02
(PID.TID 0000.0001) %MON seaice_area_sd               =   1.5103523506910E-01
(PID.TID 0000.0001) %MON seaice_area_del2             =   1.0172465770008E-03
(PID.TID 0000.0001) %MON seaice_heff_max              =   7.4226100803147E-01
(PID.TID 0000.0001) %MON seaice_heff_min              =   0.0000000000000E+00
(PID.TID 0000.0001) %MON seaice_heff_mean             =   1.6698436795511E-02
(PID.TID 0000.0001) %MON seaice_heff_sd               =   1.0060657328692E-01
(PID.TID 0000.0001) %MON seaice_heff_del2             =   6.1819714744897E-04
(PID.TID 0000.0001) %MON seaice_hsnow_max             =   2.2927224732682E-02
(PID.TID 0000.0001) %MON seaice_hsnow_min             =   0.0000000000000E+00
(PID.TID 0000.0001) %MON seaice_hsnow_mean            =   2.5259315446498E-04
(PID.TID 0000.0001) %MON seaice_hsnow_sd              =   1.7593738991504E-03
(PID.TID 0000.0001) %MON seaice_hsnow_del2            =   1.9461895511807E-05
(PID.TID 0000.0001) // =======================================================
(PID.TID 0000.0001) // End MONITOR SEAICE statistics
(PID.TID 0000.0001) // =======================================================
 Compute Stats, Diag. #    23 "ETAN    " (list#  1) Parms "SM      M1      ", vol(  0 )= 3.639E+15
 Compute Stats, Diag. #    25 "DETADT2 " (list#  1) Parms "SM      M1      ", vol(  0 )= 3.639E+15
 Compute Stats, Diag. #    81 "GCM_SST " (list#  1) Parms "SM      M1      ", vol(  0 )= 3.639E+15
 Compute Stats, Diag. #    30 "UVEL    " (list#  1) Parms "UUR     MR      ", vol(  0 )= 1.250E+23
 Compute Stats, Diag. #    31 "VVEL    " (list#  1) Parms "VVR     MR      ", vol(  0 )= 1.262E+23
 Compute Stats, Diag. #    32 "WVEL    " (list#  1) Parms "WM      LR      ", vol(  0 )= 1.501E+23
 Compute Stats, Diag. #    26 "THETA   " (list#  1) Parms "SMR     MR      ", vol(  0 )= 1.360E+23
 Compute Stats, Diag. #    27 "SALT    " (list#  1) Parms "SMR     MR      ", vol(  0 )= 1.360E+23
 Compute Stats, Diag. #    80 "CONVADJ " (list#  1) Parms "SMR     LR      ", vol(  0 )= 1.501E+23
 Compute Stats, Diag. #   254 "SIheff  " (list#  2) Parms "SM      M1      ", vol(  0 )= 3.639E+15
 Compute Stats, Diag. #   254 "SIheff  " (list#  2) Parms "SM      M1      ", vol(  1 )= 1.289E+15
 Compute Stats, Diag. #   254 "SIheff  " (list#  2) Parms "SM      M1      ", vol(  3 )= 7.935E+14
 Compute Stats, Diag. #   251 "SIarea  " (list#  2) Parms "SM      M1      ", vol(  0 )= 3.639E+15
 Compute Stats, Diag. #   251 "SIarea  " (list#  2) Parms "SM      M1      ", vol(  1 )= 1.289E+15
 Compute Stats, Diag. #   251 "SIarea  " (list#  2) Parms "SM      M1      ", vol(  3 )= 7.935E+14
 Compute Stats, Diag. #   256 "SIhsnow " (list#  2) Parms "SM      M1      ", vol(  0 )= 3.639E+15
 Compute Stats, Diag. #   256 "SIhsnow " (list#  2) Parms "SM      M1      ", vol(  1 )= 1.289E+15
 Compute Stats, Diag. #   256 "SIhsnow " (list#  2) Parms "SM      M1      ", vol(  3 )= 7.935E+14
 Compute Stats, Diag. #   268 "SIuice  " (list#  2) Parms "UU      M1      ", vol(  0 )= 3.457E+15
 Compute Stats, Diag. #   268 "SIuice  " (list#  2) Parms "UU      M1      ", vol(  1 )= 1.262E+15
 Compute Stats, Diag. #   268 "SIuice  " (list#  2) Parms "UU      M1      ", vol(  3 )= 7.592E+14
 Compute Stats, Diag. #   269 "SIvice  " (list#  2) Parms "VV      M1      ", vol(  0 )= 3.478E+15
 Compute Stats, Diag. #   269 "SIvice  " (list#  2) Parms "VV      M1      ", vol(  1 )= 1.293E+15
 Compute Stats, Diag. #   269 "SIvice  " (list#  2) Parms "VV      M1      ", vol(  3 )= 7.207E+14
(PID.TID 0000.0001) DIAGSTATS_CLOSE_IO: close file: dynStDiag.0000000000.txt , unit=     9
(PID.TID 0000.0001) DIAGSTATS_CLOSE_IO: close file: seaiceStDiag.0000000000.txt , unit=    10
(PID.TID 0000.0001) %CHECKPOINT        10 ckptA
(PID.TID 0000.0001)   Seconds in section "ALL                    [THE_MODEL_MAIN]":
(PID.TID 0000.0001)           User time:   10.755960569018498
(PID.TID 0000.0001)         System time:   7.3040001327171922E-002
(PID.TID 0000.0001)     Wall clock time:   10.833467006683350
(PID.TID 0000.0001)          No. starts:           1
(PID.TID 0000.0001)           No. stops:           1
(PID.TID 0000.0001)   Seconds in section "INITIALISE_FIXED       [THE_MODEL_MAIN]":
(PID.TID 0000.0001)           User time:  0.10144899995066226
(PID.TID 0000.0001)         System time:   2.7994999894872308E-002
(PID.TID 0000.0001)     Wall clock time:  0.13178300857543945
(PID.TID 0000.0001)          No. starts:           1
(PID.TID 0000.0001)           No. stops:           1
(PID.TID 0000.0001)   Seconds in section "THE_MAIN_LOOP          [THE_MODEL_MAIN]":
(PID.TID 0000.0001)           User time:   10.654494710266590
(PID.TID 0000.0001)         System time:   4.5035000890493393E-002
(PID.TID 0000.0001)     Wall clock time:   10.701667070388794
(PID.TID 0000.0001)          No. starts:           1
(PID.TID 0000.0001)           No. stops:           1
(PID.TID 0000.0001)   Seconds in section "INITIALISE_VARIA    [THE_MAIN_LOOP]":
(PID.TID 0000.0001)           User time:  0.21015898883342743
(PID.TID 0000.0001)         System time:   3.5911003127694130E-002
(PID.TID 0000.0001)     Wall clock time:  0.24781394004821777
(PID.TID 0000.0001)          No. starts:           1
(PID.TID 0000.0001)           No. stops:           1
(PID.TID 0000.0001)   Seconds in section "MAIN LOOP           [THE_MAIN_LOOP]":
(PID.TID 0000.0001)           User time:   10.444323897361755
(PID.TID 0000.0001)         System time:   9.1219991445541382E-003
(PID.TID 0000.0001)     Wall clock time:   10.453840017318726
(PID.TID 0000.0001)          No. starts:           1
(PID.TID 0000.0001)           No. stops:           1
(PID.TID 0000.0001)   Seconds in section "MAIN_DO_LOOP        [THE_MAIN_LOOP]":
(PID.TID 0000.0001)           User time:   10.444280117750168
(PID.TID 0000.0001)         System time:   9.1210007667541504E-003
(PID.TID 0000.0001)     Wall clock time:   10.453794717788696
(PID.TID 0000.0001)          No. starts:          10
(PID.TID 0000.0001)           No. stops:          10
(PID.TID 0000.0001)   Seconds in section "FORWARD_STEP        [MAIN_DO_LOOP]":
(PID.TID 0000.0001)           User time:   10.444191962480545
(PID.TID 0000.0001)         System time:   9.1210007667541504E-003
(PID.TID 0000.0001)     Wall clock time:   10.453706741333008
(PID.TID 0000.0001)          No. starts:          10
(PID.TID 0000.0001)           No. stops:          10
(PID.TID 0000.0001)   Seconds in section "UPDATE_R_STAR       [FORWARD_STEP]":
(PID.TID 0000.0001)           User time:  0.23733797669410706
(PID.TID 0000.0001)         System time:   6.2199681997299194E-004
(PID.TID 0000.0001)     Wall clock time:  0.23798537254333496
(PID.TID 0000.0001)          No. starts:          20
(PID.TID 0000.0001)           No. stops:          20
(PID.TID 0000.0001)   Seconds in section "DO_STATEVARS_DIAGS  [FORWARD_STEP]":
(PID.TID 0000.0001)           User time:  0.43988615274429321
(PID.TID 0000.0001)         System time:   0.0000000000000000
(PID.TID 0000.0001)     Wall clock time:  0.43989515304565430
(PID.TID 0000.0001)          No. starts:          30
(PID.TID 0000.0001)           No. stops:          30
(PID.TID 0000.0001)   Seconds in section "LOAD_FIELDS_DRIVER  [FORWARD_STEP]":
(PID.TID 0000.0001)           User time:  0.11622366309165955
(PID.TID 0000.0001)         System time:   5.6996941566467285E-005
(PID.TID 0000.0001)     Wall clock time:  0.11664962768554688
(PID.TID 0000.0001)          No. starts:          10
(PID.TID 0000.0001)           No. stops:          10
(PID.TID 0000.0001)   Seconds in section "EXF_GETFORCING     [LOAD_FLDS_DRIVER]":
(PID.TID 0000.0001)           User time:   9.0020298957824707E-002
(PID.TID 0000.0001)         System time:   4.0009617805480957E-006
(PID.TID 0000.0001)     Wall clock time:   9.0406179428100586E-002
(PID.TID 0000.0001)          No. starts:          10
(PID.TID 0000.0001)           No. stops:          10
(PID.TID 0000.0001)   Seconds in section "EXTERNAL_FLDS_LOAD [LOAD_FLDS_DRIVER]":
(PID.TID 0000.0001)           User time:   3.4857690334320068E-003
(PID.TID 0000.0001)         System time:   2.9951333999633789E-006
(PID.TID 0000.0001)     Wall clock time:   3.4909248352050781E-003
(PID.TID 0000.0001)          No. starts:          10
(PID.TID 0000.0001)           No. stops:          10
(PID.TID 0000.0001)   Seconds in section "DO_ATMOSPHERIC_PHYS [FORWARD_STEP]":
(PID.TID 0000.0001)           User time:   4.2915344238281250E-005
(PID.TID 0000.0001)         System time:   9.9837779998779297E-007
(PID.TID 0000.0001)     Wall clock time:   4.4822692871093750E-005
(PID.TID 0000.0001)          No. starts:          10
(PID.TID 0000.0001)           No. stops:          10
(PID.TID 0000.0001)   Seconds in section "DO_OCEANIC_PHYS     [FORWARD_STEP]":
(PID.TID 0000.0001)           User time:   3.2708441615104675
(PID.TID 0000.0001)         System time:   2.5701522827148438E-004
(PID.TID 0000.0001)     Wall clock time:   3.2711646556854248
(PID.TID 0000.0001)          No. starts:          10
(PID.TID 0000.0001)           No. stops:          10
(PID.TID 0000.0001)   Seconds in section "SEAICE_MODEL    [DO_OCEANIC_PHYS]":
(PID.TID 0000.0001)           User time:   1.4734715819358826
(PID.TID 0000.0001)         System time:   4.1007995605468750E-005
(PID.TID 0000.0001)     Wall clock time:   1.4735486507415771
(PID.TID 0000.0001)          No. starts:          10
(PID.TID 0000.0001)           No. stops:          10
(PID.TID 0000.0001)   Seconds in section "SEAICE_DYNSOLVER   [SEAICE_MODEL]":
(PID.TID 0000.0001)           User time:   1.2083078026771545
(PID.TID 0000.0001)         System time:   6.0051679611206055E-006
(PID.TID 0000.0001)     Wall clock time:   1.2083487510681152
(PID.TID 0000.0001)          No. starts:          10
(PID.TID 0000.0001)           No. stops:          10
(PID.TID 0000.0001)   Seconds in section "GGL90_CALC [DO_OCEANIC_PHYS]":
(PID.TID 0000.0001)           User time:   1.3784112036228180
(PID.TID 0000.0001)         System time:   4.0002167224884033E-005
(PID.TID 0000.0001)     Wall clock time:   1.3785281181335449
(PID.TID 0000.0001)          No. starts:         120
(PID.TID 0000.0001)           No. stops:         120
(PID.TID 0000.0001)   Seconds in section "DYNAMICS            [FORWARD_STEP]":
(PID.TID 0000.0001)           User time:   2.6274181008338928
(PID.TID 0000.0001)         System time:   4.9993395805358887E-006
(PID.TID 0000.0001)     Wall clock time:   2.6274120807647705
(PID.TID 0000.0001)          No. starts:          10
(PID.TID 0000.0001)           No. stops:          10
(PID.TID 0000.0001)   Seconds in section "UPDATE_CG2D         [FORWARD_STEP]":
(PID.TID 0000.0001)           User time:   4.4254899024963379E-002
(PID.TID 0000.0001)         System time:   1.0997056961059570E-005
(PID.TID 0000.0001)     Wall clock time:   4.4270277023315430E-002
(PID.TID 0000.0001)          No. starts:          10
(PID.TID 0000.0001)           No. stops:          10
(PID.TID 0000.0001)   Seconds in section "SOLVE_FOR_PRESSURE  [FORWARD_STEP]":
(PID.TID 0000.0001)           User time:   1.0998575687408447
(PID.TID 0000.0001)         System time:   9.9837779998779297E-007
(PID.TID 0000.0001)     Wall clock time:   1.0998480319976807
(PID.TID 0000.0001)          No. starts:          10
(PID.TID 0000.0001)           No. stops:          10
(PID.TID 0000.0001)   Seconds in section "MOM_CORRECTION_STEP [FORWARD_STEP]":
(PID.TID 0000.0001)           User time:   7.7903032302856445E-002
(PID.TID 0000.0001)         System time:   9.9837779998779297E-007
(PID.TID 0000.0001)     Wall clock time:   7.7908515930175781E-002
(PID.TID 0000.0001)          No. starts:          10
(PID.TID 0000.0001)           No. stops:          10
(PID.TID 0000.0001)   Seconds in section "INTEGR_CONTINUITY   [FORWARD_STEP]":
(PID.TID 0000.0001)           User time:  0.13163983821868896
(PID.TID 0000.0001)         System time:   7.2002410888671875E-005
(PID.TID 0000.0001)     Wall clock time:  0.13172078132629395
(PID.TID 0000.0001)          No. starts:          10
(PID.TID 0000.0001)           No. stops:          10
(PID.TID 0000.0001)   Seconds in section "CALC_R_STAR         [FORWARD_STEP]":
(PID.TID 0000.0001)           User time:   2.5151848793029785E-002
(PID.TID 0000.0001)         System time:   0.0000000000000000
(PID.TID 0000.0001)     Wall clock time:   2.5156021118164062E-002
(PID.TID 0000.0001)          No. starts:          10
(PID.TID 0000.0001)           No. stops:          10
(PID.TID 0000.0001)   Seconds in section "BLOCKING_EXCHANGES  [FORWARD_STEP]":
(PID.TID 0000.0001)           User time:  0.10614585876464844
(PID.TID 0000.0001)         System time:   1.6994774341583252E-005
(PID.TID 0000.0001)     Wall clock time:  0.10618090629577637
(PID.TID 0000.0001)          No. starts:          20
(PID.TID 0000.0001)           No. stops:          20
(PID.TID 0000.0001)   Seconds in section "THERMODYNAMICS      [FORWARD_STEP]":
(PID.TID 0000.0001)           User time:   1.5557930469512939
(PID.TID 0000.0001)         System time:   0.0000000000000000
(PID.TID 0000.0001)     Wall clock time:   1.5558614730834961
(PID.TID 0000.0001)          No. starts:          10
(PID.TID 0000.0001)           No. stops:          10
(PID.TID 0000.0001)   Seconds in section "TRC_CORRECTION_STEP [FORWARD_STEP]":
(PID.TID 0000.0001)           User time:   5.4478645324707031E-005
(PID.TID 0000.0001)         System time:   0.0000000000000000
(PID.TID 0000.0001)     Wall clock time:   5.3882598876953125E-005
(PID.TID 0000.0001)          No. starts:          10
(PID.TID 0000.0001)           No. stops:          10
(PID.TID 0000.0001)   Seconds in section "DO_STATEVARS_TAVE   [FORWARD_STEP]":
(PID.TID 0000.0001)           User time:   4.2319297790527344E-005
(PID.TID 0000.0001)         System time:   0.0000000000000000
(PID.TID 0000.0001)     Wall clock time:   4.1723251342773438E-005
(PID.TID 0000.0001)          No. starts:          10
(PID.TID 0000.0001)           No. stops:          10
(PID.TID 0000.0001)   Seconds in section "MONITOR             [FORWARD_STEP]":
(PID.TID 0000.0001)           User time:  0.62975132465362549
(PID.TID 0000.0001)         System time:   7.8991055488586426E-005
(PID.TID 0000.0001)     Wall clock time:  0.62983655929565430
(PID.TID 0000.0001)          No. starts:          10
(PID.TID 0000.0001)           No. stops:          10
(PID.TID 0000.0001)   Seconds in section "DO_THE_MODEL_IO     [FORWARD_STEP]":
(PID.TID 0000.0001)           User time:   4.9287915229797363E-002
(PID.TID 0000.0001)         System time:   0.0000000000000000
(PID.TID 0000.0001)     Wall clock time:   4.9287319183349609E-002
(PID.TID 0000.0001)          No. starts:          10
(PID.TID 0000.0001)           No. stops:          10
(PID.TID 0000.0001)   Seconds in section "DO_WRITE_PICKUP     [FORWARD_STEP]":
(PID.TID 0000.0001)           User time:   3.0846238136291504E-002
(PID.TID 0000.0001)         System time:   7.9850032925605774E-003
(PID.TID 0000.0001)     Wall clock time:   3.8830995559692383E-002
(PID.TID 0000.0001)          No. starts:          10
(PID.TID 0000.0001)           No. stops:          10
(PID.TID 0000.0001) // ======================================================
(PID.TID 0000.0001) // Tile <-> Tile communication statistics
(PID.TID 0000.0001) // ======================================================
(PID.TID 0000.0001) // o Tile number: 000001
(PID.TID 0000.0001) //         No. X exchanges =              0
(PID.TID 0000.0001) //            Max. X spins =              0
(PID.TID 0000.0001) //            Min. X spins =     1000000000
(PID.TID 0000.0001) //          Total. X spins =              0
(PID.TID 0000.0001) //            Avg. X spins =       0.00E+00
(PID.TID 0000.0001) //         No. Y exchanges =              0
(PID.TID 0000.0001) //            Max. Y spins =              0
(PID.TID 0000.0001) //            Min. Y spins =     1000000000
(PID.TID 0000.0001) //          Total. Y spins =              0
(PID.TID 0000.0001) //            Avg. Y spins =       0.00E+00
(PID.TID 0000.0001) // o Tile number: 000002
(PID.TID 0000.0001) //         No. X exchanges =              0
(PID.TID 0000.0001) //            Max. X spins =              0
(PID.TID 0000.0001) //            Min. X spins =     1000000000
(PID.TID 0000.0001) //          Total. X spins =              0
(PID.TID 0000.0001) //            Avg. X spins =       0.00E+00
(PID.TID 0000.0001) //         No. Y exchanges =              0
(PID.TID 0000.0001) //            Max. Y spins =              0
(PID.TID 0000.0001) //            Min. Y spins =     1000000000
(PID.TID 0000.0001) //          Total. Y spins =              0
(PID.TID 0000.0001) //            Avg. Y spins =       0.00E+00
(PID.TID 0000.0001) // o Tile number: 000003
(PID.TID 0000.0001) //         No. X exchanges =              0
(PID.TID 0000.0001) //            Max. X spins =              0
(PID.TID 0000.0001) //            Min. X spins =     1000000000
(PID.TID 0000.0001) //          Total. X spins =              0
(PID.TID 0000.0001) //            Avg. X spins =       0.00E+00
(PID.TID 0000.0001) //         No. Y exchanges =              0
(PID.TID 0000.0001) //            Max. Y spins =              0
(PID.TID 0000.0001) //            Min. Y spins =     1000000000
(PID.TID 0000.0001) //          Total. Y spins =              0
(PID.TID 0000.0001) //            Avg. Y spins =       0.00E+00
(PID.TID 0000.0001) // o Tile number: 000004
(PID.TID 0000.0001) //         No. X exchanges =              0
(PID.TID 0000.0001) //            Max. X spins =              0
(PID.TID 0000.0001) //            Min. X spins =     1000000000
(PID.TID 0000.0001) //          Total. X spins =              0
(PID.TID 0000.0001) //            Avg. X spins =       0.00E+00
(PID.TID 0000.0001) //         No. Y exchanges =              0
(PID.TID 0000.0001) //            Max. Y spins =              0
(PID.TID 0000.0001) //            Min. Y spins =     1000000000
(PID.TID 0000.0001) //          Total. Y spins =              0
(PID.TID 0000.0001) //            Avg. Y spins =       0.00E+00
(PID.TID 0000.0001) // o Tile number: 000005
(PID.TID 0000.0001) //         No. X exchanges =              0
(PID.TID 0000.0001) //            Max. X spins =              0
(PID.TID 0000.0001) //            Min. X spins =     1000000000
(PID.TID 0000.0001) //          Total. X spins =              0
(PID.TID 0000.0001) //            Avg. X spins =       0.00E+00
(PID.TID 0000.0001) //         No. Y exchanges =              0
(PID.TID 0000.0001) //            Max. Y spins =              0
(PID.TID 0000.0001) //            Min. Y spins =     1000000000
(PID.TID 0000.0001) //          Total. Y spins =              0
(PID.TID 0000.0001) //            Avg. Y spins =       0.00E+00
(PID.TID 0000.0001) // o Tile number: 000006
(PID.TID 0000.0001) //         No. X exchanges =              0
(PID.TID 0000.0001) //            Max. X spins =              0
(PID.TID 0000.0001) //            Min. X spins =     1000000000
(PID.TID 0000.0001) //          Total. X spins =              0
(PID.TID 0000.0001) //            Avg. X spins =       0.00E+00
(PID.TID 0000.0001) //         No. Y exchanges =              0
(PID.TID 0000.0001) //            Max. Y spins =              0
(PID.TID 0000.0001) //            Min. Y spins =     1000000000
(PID.TID 0000.0001) //          Total. Y spins =              0
(PID.TID 0000.0001) //            Avg. Y spins =       0.00E+00
(PID.TID 0000.0001) // o Tile number: 000007
(PID.TID 0000.0001) //         No. X exchanges =              0
(PID.TID 0000.0001) //            Max. X spins =              0
(PID.TID 0000.0001) //            Min. X spins =     1000000000
(PID.TID 0000.0001) //          Total. X spins =              0
(PID.TID 0000.0001) //            Avg. X spins =       0.00E+00
(PID.TID 0000.0001) //         No. Y exchanges =              0
(PID.TID 0000.0001) //            Max. Y spins =              0
(PID.TID 0000.0001) //            Min. Y spins =     1000000000
(PID.TID 0000.0001) //          Total. Y spins =              0
(PID.TID 0000.0001) //            Avg. Y spins =       0.00E+00
(PID.TID 0000.0001) // o Tile number: 000008
(PID.TID 0000.0001) //         No. X exchanges =              0
(PID.TID 0000.0001) //            Max. X spins =              0
(PID.TID 0000.0001) //            Min. X spins =     1000000000
(PID.TID 0000.0001) //          Total. X spins =              0
(PID.TID 0000.0001) //            Avg. X spins =       0.00E+00
(PID.TID 0000.0001) //         No. Y exchanges =              0
(PID.TID 0000.0001) //            Max. Y spins =              0
(PID.TID 0000.0001) //            Min. Y spins =     1000000000
(PID.TID 0000.0001) //          Total. Y spins =              0
(PID.TID 0000.0001) //            Avg. Y spins =       0.00E+00
(PID.TID 0000.0001) // o Tile number: 000009
(PID.TID 0000.0001) //         No. X exchanges =              0
(PID.TID 0000.0001) //            Max. X spins =              0
(PID.TID 0000.0001) //            Min. X spins =     1000000000
(PID.TID 0000.0001) //          Total. X spins =              0
(PID.TID 0000.0001) //            Avg. X spins =       0.00E+00
(PID.TID 0000.0001) //         No. Y exchanges =              0
(PID.TID 0000.0001) //            Max. Y spins =              0
(PID.TID 0000.0001) //            Min. Y spins =     1000000000
(PID.TID 0000.0001) //          Total. Y spins =              0
(PID.TID 0000.0001) //            Avg. Y spins =       0.00E+00
(PID.TID 0000.0001) // o Tile number: 000010
(PID.TID 0000.0001) //         No. X exchanges =              0
(PID.TID 0000.0001) //            Max. X spins =              0
(PID.TID 0000.0001) //            Min. X spins =     1000000000
(PID.TID 0000.0001) //          Total. X spins =              0
(PID.TID 0000.0001) //            Avg. X spins =       0.00E+00
(PID.TID 0000.0001) //         No. Y exchanges =              0
(PID.TID 0000.0001) //            Max. Y spins =              0
(PID.TID 0000.0001) //            Min. Y spins =     1000000000
(PID.TID 0000.0001) //          Total. Y spins =              0
(PID.TID 0000.0001) //            Avg. Y spins =       0.00E+00
(PID.TID 0000.0001) // o Tile number: 000011
(PID.TID 0000.0001) //         No. X exchanges =              0
(PID.TID 0000.0001) //            Max. X spins =              0
(PID.TID 0000.0001) //            Min. X spins =     1000000000
(PID.TID 0000.0001) //          Total. X spins =              0
(PID.TID 0000.0001) //            Avg. X spins =       0.00E+00
(PID.TID 0000.0001) //         No. Y exchanges =              0
(PID.TID 0000.0001) //            Max. Y spins =              0
(PID.TID 0000.0001) //            Min. Y spins =     1000000000
(PID.TID 0000.0001) //          Total. Y spins =              0
(PID.TID 0000.0001) //            Avg. Y spins =       0.00E+00
(PID.TID 0000.0001) // o Tile number: 000012
(PID.TID 0000.0001) //         No. X exchanges =              0
(PID.TID 0000.0001) //            Max. X spins =              0
(PID.TID 0000.0001) //            Min. X spins =     1000000000
(PID.TID 0000.0001) //          Total. X spins =              0
(PID.TID 0000.0001) //            Avg. X spins =       0.00E+00
(PID.TID 0000.0001) //         No. Y exchanges =              0
(PID.TID 0000.0001) //            Max. Y spins =              0
(PID.TID 0000.0001) //            Min. Y spins =     1000000000
(PID.TID 0000.0001) //          Total. Y spins =              0
(PID.TID 0000.0001) //            Avg. Y spins =       0.00E+00
(PID.TID 0000.0001) // o Thread number: 000001
(PID.TID 0000.0001) //            No. barriers =          19820
(PID.TID 0000.0001) //      Max. barrier spins =              1
(PID.TID 0000.0001) //      Min. barrier spins =              1
(PID.TID 0000.0001) //     Total barrier spins =          19820
(PID.TID 0000.0001) //      Avg. barrier spins =       1.00E+00
PROGRAM MAIN: Execution ended Normally
