(PID.TID 0000.0001) 
(PID.TID 0000.0001) // ======================================================
(PID.TID 0000.0001) //                      MITgcm UV
(PID.TID 0000.0001) //                      =========
(PID.TID 0000.0001) // ======================================================
(PID.TID 0000.0001) // execution environment starting up...
(PID.TID 0000.0001) 
(PID.TID 0000.0001) // MITgcmUV version:  checkpoint69j
(PID.TID 0000.0001) // Build user:        jm_c
(PID.TID 0000.0001) // Build host:        villon
(PID.TID 0000.0001) // Build date:        Sun Dec 21 13:35:48 EST 2025
(PID.TID 0000.0001) 
(PID.TID 0000.0001) // =======================================================
(PID.TID 0000.0001) // Execution Environment parameter file "eedata"
(PID.TID 0000.0001) // =======================================================
(PID.TID 0000.0001) ># Example "eedata" file
(PID.TID 0000.0001) ># Lines beginning "#" are comments
(PID.TID 0000.0001) >#  nTx      :: No. threads per process in X
(PID.TID 0000.0001) >#  nTy      :: No. threads per process in Y
(PID.TID 0000.0001) ># debugMode :: print debug msg (sequence of S/R calls)
(PID.TID 0000.0001) > &EEPARMS
(PID.TID 0000.0001) > useCubedSphereExchange=.TRUE.,
(PID.TID 0000.0001) > nTx=1,
(PID.TID 0000.0001) > nTy=1,
(PID.TID 0000.0001) > /
(PID.TID 0000.0001) ># Note: Some systems use & as the namelist terminator (as shown here).
(PID.TID 0000.0001) >#       Other systems use a / character.
(PID.TID 0000.0001) 
(PID.TID 0000.0001) // =======================================================
(PID.TID 0000.0001) // Computational Grid Specification ( see files "SIZE.h" )
(PID.TID 0000.0001) //                                  ( and "eedata"       )
(PID.TID 0000.0001) // =======================================================
(PID.TID 0000.0001)      nPx =    1 ; /* No. processes in X */
(PID.TID 0000.0001)      nPy =    1 ; /* No. processes in Y */
(PID.TID 0000.0001)      nSx =   12 ; /* No. tiles in X per process */
(PID.TID 0000.0001)      nSy =    1 ; /* No. tiles in Y per process */
(PID.TID 0000.0001)      sNx =   32 ; /* Tile size in X */
(PID.TID 0000.0001)      sNy =   16 ; /* Tile size in Y */
(PID.TID 0000.0001)      OLx =    4 ; /* Tile overlap distance in X */
(PID.TID 0000.0001)      OLy =    4 ; /* Tile overlap distance in Y */
(PID.TID 0000.0001)      nTx =    1 ; /* No. threads in X per process */
(PID.TID 0000.0001)      nTy =    1 ; /* No. threads in Y per process */
(PID.TID 0000.0001)       Nr =   15 ; /* No. levels in the vertical   */
(PID.TID 0000.0001)       Nx =  384 ; /* Total domain size in X ( = nPx*nSx*sNx ) */
(PID.TID 0000.0001)       Ny =   16 ; /* Total domain size in Y ( = nPy*nSy*sNy ) */
(PID.TID 0000.0001)   nTiles =   12 ; /* Total no. tiles per process ( = nSx*nSy ) */
(PID.TID 0000.0001)   nProcs =    1 ; /* Total no. processes ( = nPx*nPy ) */
(PID.TID 0000.0001) nThreads =    1 ; /* Total no. threads per process ( = nTx*nTy ) */
(PID.TID 0000.0001) usingMPI =    F ; /* Flag used to control whether MPI is in use */
(PID.TID 0000.0001)                   /*  note: To execute a program with MPI calls */
(PID.TID 0000.0001)                   /*  it must be launched appropriately e.g     */
(PID.TID 0000.0001)                   /*  "mpirun -np 64 ......"                    */
(PID.TID 0000.0001) useCoupler=   F ; /* Flag used to control communications with   */
(PID.TID 0000.0001)                   /*  other model components, through a coupler */
(PID.TID 0000.0001) useNest2W_parent =    F ;/* Control 2-W Nesting comm */
(PID.TID 0000.0001) useNest2W_child  =    F ;/* Control 2-W Nesting comm */
(PID.TID 0000.0001) debugMode =    F ; /* print debug msg. (sequence of S/R calls)  */
(PID.TID 0000.0001) printMapIncludesZeros=    F ; /* print zeros in Std.Output maps */
(PID.TID 0000.0001) maxLengthPrt1D=   65 /* maxLength of 1D array printed to StdOut */
(PID.TID 0000.0001) 
(PID.TID 0000.0001) // ======================================================
(PID.TID 0000.0001) // Mapping of tiles to threads
(PID.TID 0000.0001) // ======================================================
(PID.TID 0000.0001) // -o- Thread   1, tiles (   1:  12,   1:   1)
(PID.TID 0000.0001) 
(PID.TID 0000.0001) W2_READPARMS: file data.exch2 not found
(PID.TID 0000.0001) => use W2_EXCH2 default: regular 6-facets Cube
(PID.TID 0000.0001) W2_useE2ioLayOut=    T ;/* T: use Exch2 glob IO map; F: use model default */
(PID.TID 0000.0001) W2_mapIO        =  -1 ; /* select option for Exch2 global-IO map */
(PID.TID 0000.0001) W2_printMsg     =  -1 ; /* select option for printing information */
(PID.TID 0000.0001) ===== Start setting W2 TOPOLOGY:
(PID.TID 0000.0001)  write to log-file: w2_tile_topology.0000.log
(PID.TID 0000.0001) =====       setting W2 TOPOLOGY: Done
(PID.TID 0000.0001) 
(PID.TID 0000.0001)  INI_PARMS: opening model parameter file "data"
(PID.TID 0000.0001)  OPEN_COPY_DATA_FILE: opening file data
(PID.TID 0000.0001) // =======================================================
(PID.TID 0000.0001) // Parameter file "data"
(PID.TID 0000.0001) // =======================================================
(PID.TID 0000.0001) ># ====================
(PID.TID 0000.0001) ># | Model parameters |
(PID.TID 0000.0001) ># ====================
(PID.TID 0000.0001) >#
(PID.TID 0000.0001) ># Continuous equation parameters
(PID.TID 0000.0001) > &PARM01
(PID.TID 0000.0001) > tRef=15*20.,
(PID.TID 0000.0001) > sRef=15*35.,
(PID.TID 0000.0001) > viscAh =3.E5,
(PID.TID 0000.0001) >#- biharmonic Viscosity: 3.e15 is close to the stability limit with deltaTmom=20mn
(PID.TID 0000.0001) >#viscA4 =3.E15,
(PID.TID 0000.0001) > viscAr =1.E-3,
(PID.TID 0000.0001) > diffKhT=0.,
(PID.TID 0000.0001) > diffK4T=0.,
(PID.TID 0000.0001) >#- diffKrT unused when compiled with ALLOW_3D_DIFFKR
(PID.TID 0000.0001) >#diffKrT=3.E-5,
(PID.TID 0000.0001) > diffKhS=0.,
(PID.TID 0000.0001) > diffK4S=0.,
(PID.TID 0000.0001) > diffKrS=3.E-5,
(PID.TID 0000.0001) > ivdc_kappa=10.,
(PID.TID 0000.0001) > implicitDiffusion=.TRUE.,
(PID.TID 0000.0001) > gravity=9.81,
(PID.TID 0000.0001) > rhoConst=1035.,
(PID.TID 0000.0001) > rhoConstFresh=1000.,
(PID.TID 0000.0001) > eosType='JMD95Z',
(PID.TID 0000.0001) > staggerTimeStep=.TRUE.,
(PID.TID 0000.0001) > vectorInvariantMomentum=.TRUE.,
(PID.TID 0000.0001) > implicitFreeSurface=.TRUE.,
(PID.TID 0000.0001) > tempAdvScheme=30,
(PID.TID 0000.0001) > saltAdvScheme=30,
(PID.TID 0000.0001) > exactConserv=.TRUE.,
(PID.TID 0000.0001) > select_rStar=1,
(PID.TID 0000.0001) > nonlinFreeSurf=2,
(PID.TID 0000.0001) > hFacInf=0.2,
(PID.TID 0000.0001) > hFacSup=2.0,
(PID.TID 0000.0001) > useRealFreshWaterFlux=.TRUE.,
(PID.TID 0000.0001) >### allowFreezing=.TRUE.,
(PID.TID 0000.0001) > hFacMin=.1,
(PID.TID 0000.0001) > hFacMinDr=20.,
(PID.TID 0000.0001) > readBinaryPrec=64,
(PID.TID 0000.0001) > /
(PID.TID 0000.0001) >
(PID.TID 0000.0001) ># Elliptic solver parameters
(PID.TID 0000.0001) > &PARM02
(PID.TID 0000.0001) > cg2dMaxIters=200,
(PID.TID 0000.0001) > cg2dTargetResidual=1.E-9,
(PID.TID 0000.0001) >#cg2dTargetResWunit=6.648E-13,
(PID.TID 0000.0001) > /
(PID.TID 0000.0001) >
(PID.TID 0000.0001) ># Time stepping parameters
(PID.TID 0000.0001) > &PARM03
(PID.TID 0000.0001) > nIter0=72000,
(PID.TID 0000.0001) > nTimeSteps= 5,
(PID.TID 0000.0001) > deltaTMom   =1200.,
(PID.TID 0000.0001) > deltaTtracer=86400.,
(PID.TID 0000.0001) > deltaTFreeSurf=86400.,
(PID.TID 0000.0001) > deltaTClock =86400.,
(PID.TID 0000.0001) > abEps = 0.1,
(PID.TID 0000.0001) > alph_AB=0.6,
(PID.TID 0000.0001) > beta_AB=0.0,
(PID.TID 0000.0001) > forcing_In_AB=.FALSE.,
(PID.TID 0000.0001) > pChkptFreq  =311040000.,
(PID.TID 0000.0001) > chkptFreq   = 31104000.,
(PID.TID 0000.0001) >#dumpFreq    = 31104000.,
(PID.TID 0000.0001) >#adjDumpFreq = 31104000.,
(PID.TID 0000.0001) >#monitorFreq = 31104000.,
(PID.TID 0000.0001) >#- forcing is set by EXF
(PID.TID 0000.0001) ># periodicExternalForcing=.TRUE.,
(PID.TID 0000.0001) ># externForcingPeriod=2592000.,
(PID.TID 0000.0001) ># externForcingCycle=31104000.,
(PID.TID 0000.0001) ># 2 months restoring timescale for temperature
(PID.TID 0000.0001) ># tauThetaClimRelax = 5184000.,
(PID.TID 0000.0001) ># 2yrs restoring timescale for salinity
(PID.TID 0000.0001) ># tauSaltClimRelax = 62208000.,
(PID.TID 0000.0001) > monitorFreq   =1.,
(PID.TID 0000.0001) > adjMonitorFreq=1.,
(PID.TID 0000.0001) > dumpFreq    = 432000.,
(PID.TID 0000.0001) > adjDumpFreq = 432000.,
(PID.TID 0000.0001) > /
(PID.TID 0000.0001) >
(PID.TID 0000.0001) ># Gridding parameters
(PID.TID 0000.0001) > &PARM04
(PID.TID 0000.0001) > usingCurvilinearGrid=.TRUE.,
(PID.TID 0000.0001) > horizGridFile='grid_cs32',
(PID.TID 0000.0001) > delR= 50., 70., 100., 140., 190.,
(PID.TID 0000.0001) >       240., 290., 340., 390., 440.,
(PID.TID 0000.0001) >       490., 540., 590., 640., 690.,
(PID.TID 0000.0001) > /
(PID.TID 0000.0001) >
(PID.TID 0000.0001) ># Input datasets
(PID.TID 0000.0001) > &PARM05
(PID.TID 0000.0001) > bathyFile      ='bathy_Hmin50.bin',
(PID.TID 0000.0001) > hydrogThetaFile='lev_T_cs_15k.bin',
(PID.TID 0000.0001) > hydrogSaltFile ='lev_S_cs_15k.bin',
(PID.TID 0000.0001) >#- forcing is set by EXF
(PID.TID 0000.0001) ># zonalWindFile  ='trenberth_taux.bin',
(PID.TID 0000.0001) ># meridWindFile  ='trenberth_tauy.bin',
(PID.TID 0000.0001) ># thetaClimFile  ='lev_surfT_cs_12m.bin',
(PID.TID 0000.0001) ># saltClimFile   ='lev_surfS_cs_12m.bin',
(PID.TID 0000.0001) ># surfQnetFile   ='shiQnet_cs32.bin',
(PID.TID 0000.0001) ># EmPmRFile      ='shiEmPR_cs32.bin',
(PID.TID 0000.0001) > /
(PID.TID 0000.0001) 
(PID.TID 0000.0001)  INI_PARMS ; starts to read PARM01
(PID.TID 0000.0001)  INI_PARMS ; read PARM01 : OK
(PID.TID 0000.0001)  INI_PARMS ; starts to read PARM02
(PID.TID 0000.0001)  INI_PARMS ; read PARM02 : OK
(PID.TID 0000.0001)  INI_PARMS ; starts to read PARM03
(PID.TID 0000.0001)  INI_PARMS ; read PARM03 : OK
(PID.TID 0000.0001)  INI_PARMS ; starts to read PARM04
(PID.TID 0000.0001)  INI_PARMS ; read PARM04 : OK
(PID.TID 0000.0001)  INI_PARMS ; starts to read PARM05
(PID.TID 0000.0001)  INI_PARMS ; read PARM05 : OK
(PID.TID 0000.0001)  INI_PARMS: finished reading file "data"
(PID.TID 0000.0001)  PACKAGES_BOOT: opening data.pkg
(PID.TID 0000.0001)  OPEN_COPY_DATA_FILE: opening file data.pkg
(PID.TID 0000.0001) // =======================================================
(PID.TID 0000.0001) // Parameter file "data.pkg"
(PID.TID 0000.0001) // =======================================================
(PID.TID 0000.0001) ># Packages
(PID.TID 0000.0001) > &PACKAGES
(PID.TID 0000.0001) > useGMRedi = .TRUE.,
(PID.TID 0000.0001) > useEXF    = .TRUE.,
(PID.TID 0000.0001) > useCAL    = .TRUE.,
(PID.TID 0000.0001) > useTHSICE = .FALSE.,
(PID.TID 0000.0001) > useSEAICE = .TRUE.,
(PID.TID 0000.0001) >#useDiagnostics=.TRUE.,
(PID.TID 0000.0001) >#useMNC=.TRUE.,
(PID.TID 0000.0001) > useGrdchk=.TRUE.,
(PID.TID 0000.0001) > /
(PID.TID 0000.0001) 
(PID.TID 0000.0001)  PACKAGES_BOOT: finished reading data.pkg
(PID.TID 0000.0001)  PACKAGES_BOOT: On/Off package Summary
 --------  pkgs with a standard "usePKG" On/Off switch in "data.pkg":  --------
 pkg/gmredi               compiled   and   used ( useGMRedi                = T )
 pkg/cal                  compiled   and   used ( useCAL                   = T )
 pkg/exf                  compiled   and   used ( useEXF                   = T )
 pkg/autodiff             compiled   and   used ( useAUTODIFF              = T )
 pkg/grdchk               compiled   and   used ( useGrdchk                = T )
 pkg/ctrl                 compiled   and   used ( useCTRL                  = T )
 pkg/seaice               compiled   and   used ( useSEAICE                = T )
 pkg/thsice               compiled but not used ( useThSIce                = F )
 pkg/diagnostics          compiled but not used ( useDiagnostics           = F )
 -------- pkgs without standard "usePKG" On/Off switch in "data.pkg":  --------
 pkg/generic_advdiff      compiled   and   used ( useGAD                   = T )
 pkg/mom_common           compiled   and   used ( momStepping              = T )
 pkg/mom_vecinv           compiled   and   used ( +vectorInvariantMomentum = T )
 pkg/monitor              compiled   and   used ( monitorFreq > 0.         = T )
 pkg/debug                compiled but not used ( debugMode                = F )
 pkg/exch2                compiled   and   used
 pkg/rw                   compiled   and   used
 pkg/mdsio                compiled   and   used
 pkg/autodiff             compiled   and   used
 pkg/cost                 compiled   and   used
(PID.TID 0000.0001)  PACKAGES_BOOT: End of package Summary
(PID.TID 0000.0001) 
(PID.TID 0000.0001) CAL_READPARMS: opening data.cal
(PID.TID 0000.0001)  OPEN_COPY_DATA_FILE: opening file data.cal
(PID.TID 0000.0001) // =======================================================
(PID.TID 0000.0001) // Parameter file "data.cal"
(PID.TID 0000.0001) // =======================================================
(PID.TID 0000.0001) >#
(PID.TID 0000.0001) ># *******************
(PID.TID 0000.0001) ># Calendar Parameters
(PID.TID 0000.0001) ># *******************
(PID.TID 0000.0001) > &CAL_NML
(PID.TID 0000.0001) > TheCalendar='model',
(PID.TID 0000.0001) > startDate_1=00010101,
(PID.TID 0000.0001) > startDate_2=000000,
(PID.TID 0000.0001) > /
(PID.TID 0000.0001) 
(PID.TID 0000.0001) CAL_READPARMS: finished reading data.cal
(PID.TID 0000.0001) EXF_READPARMS: opening data.exf
(PID.TID 0000.0001)  OPEN_COPY_DATA_FILE: opening file data.exf
(PID.TID 0000.0001) // =======================================================
(PID.TID 0000.0001) // Parameter file "data.exf"
(PID.TID 0000.0001) // =======================================================
(PID.TID 0000.0001) ># *********************
(PID.TID 0000.0001) ># External Forcing Data
(PID.TID 0000.0001) ># *********************
(PID.TID 0000.0001) > &EXF_NML_01
(PID.TID 0000.0001) >#exf_debugLev      = 3,
(PID.TID 0000.0001) >#useExfCheckRange  = .TRUE.,
(PID.TID 0000.0001) >#useStabilityFct_overIce=.TRUE.,
(PID.TID 0000.0001) >#snow_emissivity   = 0.98,
(PID.TID 0000.0001) >#ice_emissivity    = 0.98,
(PID.TID 0000.0001) > ocean_emissivity  = 1.,
(PID.TID 0000.0001) > atmrho            = 1.22,
(PID.TID 0000.0001) > humid_fac         = .608,
(PID.TID 0000.0001) > ht                = 10.,
(PID.TID 0000.0001) > exf_albedo        = 0.066,
(PID.TID 0000.0001) >#readStressOnAgrid = .TRUE.,
(PID.TID 0000.0001) > readStressOnCgrid = .TRUE.,
(PID.TID 0000.0001) > exf_monFreq       = 0.,
(PID.TID 0000.0001) > repeatPeriod      = 31104000.,
(PID.TID 0000.0001) > exf_iprec         = 64,
(PID.TID 0000.0001) > /
(PID.TID 0000.0001) >
(PID.TID 0000.0001) ># *********************
(PID.TID 0000.0001) > &EXF_NML_02
(PID.TID 0000.0001) >#
(PID.TID 0000.0001) > atempstartdate1   = 00010116,
(PID.TID 0000.0001) >#atempstartdate2   = 180000,
(PID.TID 0000.0001) > atempperiod       = 2592000.0,
(PID.TID 0000.0001) >#
(PID.TID 0000.0001) > aqhstartdate1     = 00010116,
(PID.TID 0000.0001) >#aqhstartdate2     = 180000,
(PID.TID 0000.0001) > aqhperiod         = 2592000.0,
(PID.TID 0000.0001) >#
(PID.TID 0000.0001) > precipstartdate1  = 00010116,
(PID.TID 0000.0001) >#precipstartdate2  = 180000,
(PID.TID 0000.0001) > precipperiod      = 2592000.0,
(PID.TID 0000.0001) >#
(PID.TID 0000.0001) > snowprecipstartdate1= 00010116,
(PID.TID 0000.0001) >#snowprecipstartdate2= 180000,
(PID.TID 0000.0001) > snowprecipperiod    = 2592000.,
(PID.TID 0000.0001) >#
(PID.TID 0000.0001) > runoffstartdate1  = 00010116,
(PID.TID 0000.0001) >#runoffstartdate2  = 180000,
(PID.TID 0000.0001) > runoffperiod      = 2592000.0,
(PID.TID 0000.0001) >#
(PID.TID 0000.0001) > uwindstartdate1   = 00010116,
(PID.TID 0000.0001) >#uwindstartdate2   = 180000,
(PID.TID 0000.0001) > uwindperiod       = 2592000.0,
(PID.TID 0000.0001) >#
(PID.TID 0000.0001) > vwindstartdate1   = 00010116,
(PID.TID 0000.0001) >#vwindstartdate2   = 180000,
(PID.TID 0000.0001) > vwindperiod       = 2592000.0,
(PID.TID 0000.0001) >#
(PID.TID 0000.0001) > ustressstartdate1 = 00010116,
(PID.TID 0000.0001) >#ustressstartdate2 = 180000,
(PID.TID 0000.0001) > ustressperiod     = 2592000.0,
(PID.TID 0000.0001) >#
(PID.TID 0000.0001) > vstressstartdate1 = 00010116,
(PID.TID 0000.0001) >#vstressstartdate2 = 180000,
(PID.TID 0000.0001) > vstressperiod     = 2592000.0,
(PID.TID 0000.0001) >#
(PID.TID 0000.0001) > wspeedstartdate1  = 00010116,
(PID.TID 0000.0001) >#wspeedstartdate2  = 180000,
(PID.TID 0000.0001) > wspeedperiod      = 2592000.0,
(PID.TID 0000.0001) >#
(PID.TID 0000.0001) > swdownstartdate1  = 00010116,
(PID.TID 0000.0001) >#swdownstartdate2  = 180000,
(PID.TID 0000.0001) > swdownperiod      = 2592000.0,
(PID.TID 0000.0001) >#
(PID.TID 0000.0001) > lwdownstartdate1  = 00010116,
(PID.TID 0000.0001) >#lwdownstartdate2  = 180000,
(PID.TID 0000.0001) > lwdownperiod      = 2592000.0,
(PID.TID 0000.0001) >#
(PID.TID 0000.0001) > climsssstartdate1  = 00010116,
(PID.TID 0000.0001) >#climsssstartdate2  = 180000,
(PID.TID 0000.0001) > climsssperiod      = 2592000.0,
(PID.TID 0000.0001) >#
(PID.TID 0000.0001) > climsststartdate1  = 00010116,
(PID.TID 0000.0001) >#climsststartdate2  = 180000,
(PID.TID 0000.0001) > climsstperiod      = 2592000.0,
(PID.TID 0000.0001) >#
(PID.TID 0000.0001) > atempfile         = 'core_t_Air_cs32.bin',
(PID.TID 0000.0001) > aqhfile           = 'core_q_air_cs32.bin',
(PID.TID 0000.0001) > ustressfile       = 'trenberth_taux.bin',
(PID.TID 0000.0001) > vstressfile       = 'trenberth_tauy.bin',
(PID.TID 0000.0001) >#uwindfile         = 'core_u_wind_cs32.bin',
(PID.TID 0000.0001) >#vwindfile         = 'core_v_wind_cs32.bin',
(PID.TID 0000.0001) > wspeedfile        = 'core_wndSpd_cs32.bin',
(PID.TID 0000.0001) > precipfile        = 'core_prec_1_cs32.bin',
(PID.TID 0000.0001) >#snowprecipfile    = 'core_snwP_1_cs32.bin',
(PID.TID 0000.0001) > lwdownfile        = 'core_dwnLw_cs32.bin',
(PID.TID 0000.0001) > swdownfile        = 'core_dwnSw_cs32.bin',
(PID.TID 0000.0001) > runoffFile        = 'core_rnof_1_cs32.bin'
(PID.TID 0000.0001) > climsstfile       = 'lev_surfT_cs_12m.bin',
(PID.TID 0000.0001) > climsssfile       = 'lev_surfS_cs_12m.bin',
(PID.TID 0000.0001) >#
(PID.TID 0000.0001) > /
(PID.TID 0000.0001) >
(PID.TID 0000.0001) ># *********************
(PID.TID 0000.0001) > &EXF_NML_03
(PID.TID 0000.0001) > /
(PID.TID 0000.0001) >
(PID.TID 0000.0001) ># *********************
(PID.TID 0000.0001) > &EXF_NML_04
(PID.TID 0000.0001) > /
(PID.TID 0000.0001) 
(PID.TID 0000.0001) EXF_READPARMS: reading EXF_NML_01
(PID.TID 0000.0001) EXF_READPARMS: reading EXF_NML_02
(PID.TID 0000.0001) EXF_READPARMS: reading EXF_NML_03
(PID.TID 0000.0001) EXF_READPARMS: finished reading data.exf
(PID.TID 0000.0001)  GM_READPARMS: opening data.gmredi
(PID.TID 0000.0001)  OPEN_COPY_DATA_FILE: opening file data.gmredi
(PID.TID 0000.0001) // =======================================================
(PID.TID 0000.0001) // Parameter file "data.gmredi"
(PID.TID 0000.0001) // =======================================================
(PID.TID 0000.0001) ># GM+Redi package parameters:
(PID.TID 0000.0001) >#     GM_Small_Number  :: epsilon used in computing the slope
(PID.TID 0000.0001) >#     GM_slopeSqCutoff :: slope^2 cut-off value
(PID.TID 0000.0001) >
(PID.TID 0000.0001) >#-from MOM :
(PID.TID 0000.0001) ># GM_background_K: 	G & Mc.W  diffusion coefficient
(PID.TID 0000.0001) ># GM_maxSlope    :	max slope of isopycnals
(PID.TID 0000.0001) ># GM_Scrit       :	transition for scaling diffusion coefficient
(PID.TID 0000.0001) ># GM_Sd          :	half width scaling for diffusion coefficient
(PID.TID 0000.0001) ># GM_taper_scheme:	slope clipping or one of the tapering schemes
(PID.TID 0000.0001) ># GM_Kmin_horiz  :	horizontal diffusion minimum value
(PID.TID 0000.0001) >
(PID.TID 0000.0001) >#-Option parameters (needs to "define" options in GMREDI_OPTIONS.h")
(PID.TID 0000.0001) ># GM_isopycK     :	isopycnal diffusion coefficient (default=GM_background_K)
(PID.TID 0000.0001) ># GM_AdvForm     :	turn on GM Advective form       (default=Skew flux form)
(PID.TID 0000.0001) >
(PID.TID 0000.0001) > &GM_PARM01
(PID.TID 0000.0001) >  GM_Small_Number  = 1.D-20,
(PID.TID 0000.0001) >  GM_slopeSqCutoff = 1.D+08,
(PID.TID 0000.0001) >  GM_AdvForm         = .FALSE.,
(PID.TID 0000.0001) >  GM_background_K    = 1.D+3,
(PID.TID 0000.0001) >  GM_taper_scheme    = 'dm95',
(PID.TID 0000.0001) >  GM_maxSlope        = 1.D-2,
(PID.TID 0000.0001) >  GM_Kmin_horiz      = 50.,
(PID.TID 0000.0001) >  GM_Scrit           = 4.D-3,
(PID.TID 0000.0001) >  GM_Sd              = 1.D-3,
(PID.TID 0000.0001) >#  GM_Visbeck_alpha   = 1.5D-2,
(PID.TID 0000.0001) >  GM_Visbeck_alpha   = 0.,
(PID.TID 0000.0001) >  GM_Visbeck_length  = 2.D+5,
(PID.TID 0000.0001) >  GM_Visbeck_depth   = 1.D+3,
(PID.TID 0000.0001) >  GM_Visbeck_maxval_K= 2.5D+3,
(PID.TID 0000.0001) > /
(PID.TID 0000.0001) >
(PID.TID 0000.0001) >
(PID.TID 0000.0001) 
(PID.TID 0000.0001)  GM_READPARMS: finished reading data.gmredi
(PID.TID 0000.0001) 
(PID.TID 0000.0001)  SEAICE_READPARMS: opening data.seaice
(PID.TID 0000.0001)  OPEN_COPY_DATA_FILE: opening file data.seaice
(PID.TID 0000.0001) // =======================================================
(PID.TID 0000.0001) // Parameter file "data.seaice"
(PID.TID 0000.0001) // =======================================================
(PID.TID 0000.0001) ># SEAICE parameters
(PID.TID 0000.0001) > &SEAICE_PARM01
(PID.TID 0000.0001) > LSR_ERROR             = 1.E-12,
(PID.TID 0000.0001) >#SEAICE_deltaTevp = 60.,
(PID.TID 0000.0001) > SEAICEuseDynamics = .TRUE.,
(PID.TID 0000.0001) > SEAICEuseFREEDRIFT = .FALSE.,
(PID.TID 0000.0001) ># for backward compatibility only
(PID.TID 0000.0001) > SEAICE_clipVelocities = .TRUE.,
(PID.TID 0000.0001) >#- to reproduce old results with former #undef SEAICE_SOLVE4TEMP_LEGACY code
(PID.TID 0000.0001) > SEAICE_wetAlbTemp = 0.,
(PID.TID 0000.0001) > SEAICE_snowThick  = 0.,
(PID.TID 0000.0001) >#
(PID.TID 0000.0001) > SEAICE_salt0          = 4.,
(PID.TID 0000.0001) > SEAICEadvScheme       = 30,
(PID.TID 0000.0001) > SEAICE_areaLossFormula=2,
(PID.TID 0000.0001) > SEAICE_mcPheePiston   = 0.0005787037037037037,
(PID.TID 0000.0001) >#SEAICE_monFreq        = 2592000.,
(PID.TID 0000.0001) >#SEAICEwriteState      = .TRUE.,
(PID.TID 0000.0001) ># old defaults
(PID.TID 0000.0001) > SEAICEscaleSurfStress = .FALSE.,
(PID.TID 0000.0001) > SEAICEaddSnowMass     = .FALSE.,
(PID.TID 0000.0001) > SEAICE_useMultDimSnow = .FALSE.,
(PID.TID 0000.0001) > SEAICEetaZmethod = 0,
(PID.TID 0000.0001) > SEAICE_Olx       = 0,
(PID.TID 0000.0001) > SEAICE_Oly       = 0,
(PID.TID 0000.0001) > SEAICE_drag = 0.002,
(PID.TID 0000.0001) > SEAICE_waterDrag = 0.005314009661835749,
(PID.TID 0000.0001) > /
(PID.TID 0000.0001) >
(PID.TID 0000.0001) > &SEAICE_PARM02
(PID.TID 0000.0001) > mult_ice   = 1.,
(PID.TID 0000.0001) ># choose which seaice cost term you want
(PID.TID 0000.0001) > cost_ice_flag = 1,
(PID.TID 0000.0001) ># the following timings are obsolete;
(PID.TID 0000.0001) ># replaced by lastinterval
(PID.TID 0000.0001) > costIceStart1        = 20000101,
(PID.TID 0000.0001) > costIceStart2        = 00000,
(PID.TID 0000.0001) > costIceEnd1        = 20000201,
(PID.TID 0000.0001) > costIceEnd2        = 00000,
(PID.TID 0000.0001) > /
(PID.TID 0000.0001) >
(PID.TID 0000.0001) > &SEAICE_PARM03
(PID.TID 0000.0001) > /
(PID.TID 0000.0001) 
(PID.TID 0000.0001)  SEAICE_READPARMS: finished reading data.seaice
(PID.TID 0000.0001) AUTODIFF_READPARMS: opening data.autodiff
(PID.TID 0000.0001)  OPEN_COPY_DATA_FILE: opening file data.autodiff
(PID.TID 0000.0001) // =======================================================
(PID.TID 0000.0001) // Parameter file "data.autodiff"
(PID.TID 0000.0001) // =======================================================
(PID.TID 0000.0001) ># =========================
(PID.TID 0000.0001) ># pkg AUTODIFF parameters :
(PID.TID 0000.0001) ># =========================
(PID.TID 0000.0001) >#  inAdExact :: get an exact adjoint (no approximation) (def=.True.)
(PID.TID 0000.0001) >#  SEAICEuseFREEDRIFTswitchInAd :: switch on/off Free-Drift in AD mode (def=F)
(PID.TID 0000.0001) >#
(PID.TID 0000.0001) > &AUTODIFF_PARM01
(PID.TID 0000.0001) ># inAdExact = .FALSE.,
(PID.TID 0000.0001) >  SEAICEuseFREEDRIFTswitchInAd = .TRUE.,
(PID.TID 0000.0001) > /
(PID.TID 0000.0001) 
(PID.TID 0000.0001) AUTODIFF_READPARMS: finished reading data.autodiff
(PID.TID 0000.0001) // ===================================
(PID.TID 0000.0001) // AUTODIFF parameters :
(PID.TID 0000.0001) // ===================================
(PID.TID 0000.0001) inAdExact = /* get an exact adjoint (no approximation) */
(PID.TID 0000.0001)                   T
(PID.TID 0000.0001)     ;
(PID.TID 0000.0001) useApproxAdvectionInAdMode = /* approximate AD-advection */
(PID.TID 0000.0001)                   F
(PID.TID 0000.0001)     ;
(PID.TID 0000.0001) cg2dFullAdjoint = /* use full hand written cg2d adjoint (no approximation) */
(PID.TID 0000.0001)                   F
(PID.TID 0000.0001)     ;
(PID.TID 0000.0001) useKPPinAdMode = /* use KPP in adjoint mode */
(PID.TID 0000.0001)                   F
(PID.TID 0000.0001)     ;
(PID.TID 0000.0001) useGMRediInAdMode = /* use GMRedi in adjoint mode */
(PID.TID 0000.0001)                   T
(PID.TID 0000.0001)     ;
(PID.TID 0000.0001) useSEAICEinAdMode = /* use SEAICE in adjoint mode */
(PID.TID 0000.0001)                   T
(PID.TID 0000.0001)     ;
(PID.TID 0000.0001) useGGL90inAdMode = /* use GGL90 in adjoint mode */
(PID.TID 0000.0001)                   F
(PID.TID 0000.0001)     ;
(PID.TID 0000.0001) useSALT_PLUMEinAdMode = /* use SALT_PLUME in adjoint mode */
(PID.TID 0000.0001)                   F
(PID.TID 0000.0001)     ;
(PID.TID 0000.0001) SEAICEuseDYNAMICSswitchInAd = /* switch On/Off SEAICE Dyn in AD mode */
(PID.TID 0000.0001)                   F
(PID.TID 0000.0001)     ;
(PID.TID 0000.0001) SEAICEuseFREEDRIFTswitchInAd= /* switch On/Off Free-Drift in AD mode */
(PID.TID 0000.0001)                   T
(PID.TID 0000.0001)     ;
(PID.TID 0000.0001) SEAICEapproxLevInAd = /* -1:SEAICE_FAKE, >0:other adjoint approximation */
(PID.TID 0000.0001)                       0
(PID.TID 0000.0001)     ;
(PID.TID 0000.0001) dumpAdVarExch = /* control adexch before dumpinp */
(PID.TID 0000.0001)                       2
(PID.TID 0000.0001)     ;
(PID.TID 0000.0001) mon_AdVarExch = /* control adexch before monitor */
(PID.TID 0000.0001)                       2
(PID.TID 0000.0001)     ;
(PID.TID 0000.0001) viscFacInFw = /* viscosity factor for forward model */
(PID.TID 0000.0001)                 1.000000000000000E+00
(PID.TID 0000.0001)     ;
(PID.TID 0000.0001) viscFacInAd = /* viscosity factor for adjoint */
(PID.TID 0000.0001)                 1.000000000000000E+00
(PID.TID 0000.0001)     ;
(PID.TID 0000.0001) SIregFacInAd = /* sea ice factor for adjoint model */
(PID.TID 0000.0001)                 1.234567000000000E+05
(PID.TID 0000.0001)     ;
(PID.TID 0000.0001) SIregFacInFw = /* sea ice factor for forward model */
(PID.TID 0000.0001)                 1.234567000000000E+05
(PID.TID 0000.0001)     ;
(PID.TID 0000.0001) 
(PID.TID 0000.0001) OPTIM_READPARMS: opening data.optim
(PID.TID 0000.0001)  OPEN_COPY_DATA_FILE: opening file data.optim
(PID.TID 0000.0001) // =======================================================
(PID.TID 0000.0001) // Parameter file "data.optim"
(PID.TID 0000.0001) // =======================================================
(PID.TID 0000.0001) > &OPTIM
(PID.TID 0000.0001) > optimcycle=0,
(PID.TID 0000.0001) > /
(PID.TID 0000.0001) 
(PID.TID 0000.0001) OPTIM_READPARMS: finished reading data.optim
(PID.TID 0000.0001) CTRL_READPARMS: opening data.ctrl
(PID.TID 0000.0001)  OPEN_COPY_DATA_FILE: opening file data.ctrl
(PID.TID 0000.0001) // =======================================================
(PID.TID 0000.0001) // Parameter file "data.ctrl"
(PID.TID 0000.0001) // =======================================================
(PID.TID 0000.0001) >#
(PID.TID 0000.0001) >#
(PID.TID 0000.0001) ># *********************
(PID.TID 0000.0001) ># ECCO controlvariables
(PID.TID 0000.0001) ># *********************
(PID.TID 0000.0001) > &CTRL_NML
(PID.TID 0000.0001) > /
(PID.TID 0000.0001) >#
(PID.TID 0000.0001) ># *********************
(PID.TID 0000.0001) ># names for ctrl_pack/unpack
(PID.TID 0000.0001) ># *********************
(PID.TID 0000.0001) > &CTRL_PACKNAMES
(PID.TID 0000.0001) > /
(PID.TID 0000.0001) >#
(PID.TID 0000.0001) ># *********************
(PID.TID 0000.0001) ># names for CTRL_GENARR, CTRL_GENTIM
(PID.TID 0000.0001) ># *********************
(PID.TID 0000.0001) > &CTRL_NML_GENARR
(PID.TID 0000.0001) > xx_genarr3d_file(1)       = 'xx_theta',
(PID.TID 0000.0001) > xx_genarr3d_weight(1)     = 'ones_64b.bin',
(PID.TID 0000.0001) > xx_genarr3d_bounds(1:5,1) = -2.,-1.9,39.,40.,5.,
(PID.TID 0000.0001) >#
(PID.TID 0000.0001) > xx_genarr3d_file(2)       = 'xx_salt',
(PID.TID 0000.0001) > xx_genarr3d_weight(2)     = 'ones_64b.bin',
(PID.TID 0000.0001) ># not clear why I have to comment this out, but the reference results have no bounds applied
(PID.TID 0000.0001) >#xx_genarr3d_bounds(1:5,2) = 29.,29.5,40.5,41.,5.,
(PID.TID 0000.0001) >#
(PID.TID 0000.0001) > xx_genarr3d_file(3)       = 'xx_ptr1',
(PID.TID 0000.0001) > xx_genarr3d_weight(3)     = 'ones_64b.bin',
(PID.TID 0000.0001) >#
(PID.TID 0000.0001) > xx_genarr3d_file(4)       = 'xx_diffkr',
(PID.TID 0000.0001) > xx_genarr3d_weight(4)     = 'ones_64b.bin',
(PID.TID 0000.0001) > xx_genarr3d_bounds(1:5,4) = 1.E-6,2.E-6,4.E-4,5.E-4,0.,
(PID.TID 0000.0001) >#
(PID.TID 0000.0001) > xx_gentim2d_file(1)       = 'xx_qnet',
(PID.TID 0000.0001) > xx_gentim2d_weight(1)     = 'ones_64b.bin',
(PID.TID 0000.0001) >#
(PID.TID 0000.0001) > xx_gentim2d_file(2)       = 'xx_empmr',
(PID.TID 0000.0001) > xx_gentim2d_weight(2)     = 'ones_64b.bin',
(PID.TID 0000.0001) >#
(PID.TID 0000.0001) > xx_gentim2d_file(3)       = 'xx_fu',
(PID.TID 0000.0001) > xx_gentim2d_weight(3)     = 'ones_64b.bin',
(PID.TID 0000.0001) >#
(PID.TID 0000.0001) > xx_gentim2d_file(4)       = 'xx_fv',
(PID.TID 0000.0001) > xx_gentim2d_weight(4)     = 'ones_64b.bin',
(PID.TID 0000.0001) >#
(PID.TID 0000.0001) > /
(PID.TID 0000.0001) 
(PID.TID 0000.0001) CTRL_READPARMS: finished reading data.ctrl
(PID.TID 0000.0001) read-write ctrl files from current run directory
(PID.TID 0000.0001) COST_READPARMS: opening data.cost
(PID.TID 0000.0001)  OPEN_COPY_DATA_FILE: opening file data.cost
(PID.TID 0000.0001) // =======================================================
(PID.TID 0000.0001) // Parameter file "data.cost"
(PID.TID 0000.0001) // =======================================================
(PID.TID 0000.0001) >#
(PID.TID 0000.0001) >#
(PID.TID 0000.0001) ># ******************
(PID.TID 0000.0001) ># cost function
(PID.TID 0000.0001) ># ******************
(PID.TID 0000.0001) > &COST_NML
(PID.TID 0000.0001) >#revert to default 1 month
(PID.TID 0000.0001) ># lastinterval=7776000.,
(PID.TID 0000.0001) > mult_test=1.,
(PID.TID 0000.0001) > /
(PID.TID 0000.0001) 
(PID.TID 0000.0001) COST_READPARMS: finished reading data.cost
(PID.TID 0000.0001) // =======================================================
(PID.TID 0000.0001) // cost configuration  >>> START <<<
(PID.TID 0000.0001) // =======================================================
(PID.TID 0000.0001) lastinterval =   /* cost interval over which to average ( s ). */
(PID.TID 0000.0001)                 2.592000000000000E+06
(PID.TID 0000.0001)     ;
(PID.TID 0000.0001) cost_mask_file = /* file name of cost mask file */
(PID.TID 0000.0001)               ''
(PID.TID 0000.0001)     ;
(PID.TID 0000.0001) // =======================================================
(PID.TID 0000.0001) // cost configuration  >>> END <<<
(PID.TID 0000.0001) // =======================================================
(PID.TID 0000.0001) 
(PID.TID 0000.0001) GRDCHK_READPARMS: opening data.grdchk
(PID.TID 0000.0001)  OPEN_COPY_DATA_FILE: opening file data.grdchk
(PID.TID 0000.0001) // =======================================================
(PID.TID 0000.0001) // Parameter file "data.grdchk"
(PID.TID 0000.0001) // =======================================================
(PID.TID 0000.0001) ># *******************
(PID.TID 0000.0001) ># ECCO gradient check
(PID.TID 0000.0001) ># *******************
(PID.TID 0000.0001) > &GRDCHK_NML
(PID.TID 0000.0001) > grdchk_eps       = 1.d-2,
(PID.TID 0000.0001) >#  iglopos         = 6,
(PID.TID 0000.0001) >#  jglopos         = 17,
(PID.TID 0000.0001) >#  kglopos         = 1,
(PID.TID 0000.0001) > nbeg             = 1,
(PID.TID 0000.0001) > nstep            = 1,
(PID.TID 0000.0001) > nend             = 4,
(PID.TID 0000.0001) > grdchkvarname    ="xx_theta",
(PID.TID 0000.0001) > /
(PID.TID 0000.0001) 
(PID.TID 0000.0001) GRDCHK_READPARMS: finished reading data.grdchk
(PID.TID 0000.0001) SET_PARMS: done
(PID.TID 0000.0001) Enter INI_VERTICAL_GRID: setInterFDr=    T ; setCenterDr=    F
(PID.TID 0000.0001) tile:   1 ; Read from file grid_cs32.face001.bin
(PID.TID 0000.0001)   => xC yC dxF dyF rA xG yG dxV dyU rAz dxC dyC rAw rAs dxG dyG AngleCS AngleSN
(PID.TID 0000.0001) tile:   2 ; Read from file grid_cs32.face001.bin
(PID.TID 0000.0001)   => xC yC dxF dyF rA xG yG dxV dyU rAz dxC dyC rAw rAs dxG dyG AngleCS AngleSN
(PID.TID 0000.0001) tile:   3 ; Read from file grid_cs32.face002.bin
(PID.TID 0000.0001)   => xC yC dxF dyF rA xG yG dxV dyU rAz dxC dyC rAw rAs dxG dyG AngleCS AngleSN
(PID.TID 0000.0001) tile:   4 ; Read from file grid_cs32.face002.bin
(PID.TID 0000.0001)   => xC yC dxF dyF rA xG yG dxV dyU rAz dxC dyC rAw rAs dxG dyG AngleCS AngleSN
(PID.TID 0000.0001) tile:   5 ; Read from file grid_cs32.face003.bin
(PID.TID 0000.0001)   => xC yC dxF dyF rA xG yG dxV dyU rAz dxC dyC rAw rAs dxG dyG AngleCS AngleSN
(PID.TID 0000.0001) tile:   6 ; Read from file grid_cs32.face003.bin
(PID.TID 0000.0001)   => xC yC dxF dyF rA xG yG dxV dyU rAz dxC dyC rAw rAs dxG dyG AngleCS AngleSN
(PID.TID 0000.0001) tile:   7 ; Read from file grid_cs32.face004.bin
(PID.TID 0000.0001)   => xC yC dxF dyF rA xG yG dxV dyU rAz dxC dyC rAw rAs dxG dyG AngleCS AngleSN
(PID.TID 0000.0001) tile:   8 ; Read from file grid_cs32.face004.bin
(PID.TID 0000.0001)   => xC yC dxF dyF rA xG yG dxV dyU rAz dxC dyC rAw rAs dxG dyG AngleCS AngleSN
(PID.TID 0000.0001) tile:   9 ; Read from file grid_cs32.face005.bin
(PID.TID 0000.0001)   => xC yC dxF dyF rA xG yG dxV dyU rAz dxC dyC rAw rAs dxG dyG AngleCS AngleSN
(PID.TID 0000.0001) tile:  10 ; Read from file grid_cs32.face005.bin
(PID.TID 0000.0001)   => xC yC dxF dyF rA xG yG dxV dyU rAz dxC dyC rAw rAs dxG dyG AngleCS AngleSN
(PID.TID 0000.0001) tile:  11 ; Read from file grid_cs32.face006.bin
(PID.TID 0000.0001)   => xC yC dxF dyF rA xG yG dxV dyU rAz dxC dyC rAw rAs dxG dyG AngleCS AngleSN
(PID.TID 0000.0001) tile:  12 ; Read from file grid_cs32.face006.bin
(PID.TID 0000.0001)   => xC yC dxF dyF rA xG yG dxV dyU rAz dxC dyC rAw rAs dxG dyG AngleCS AngleSN
(PID.TID 0000.0001) %MON XC_max                       =   1.7854351589505E+02
(PID.TID 0000.0001) %MON XC_min                       =  -1.7854351589505E+02
(PID.TID 0000.0001) %MON XC_mean                      =  -1.4199289892029E-14
(PID.TID 0000.0001) %MON XC_sd                        =   1.0355545336287E+02
(PID.TID 0000.0001) %MON XG_max                       =   1.8000000000000E+02
(PID.TID 0000.0001) %MON XG_min                       =  -1.7708797161002E+02
(PID.TID 0000.0001) %MON XG_mean                      =   1.8603515625000E+00
(PID.TID 0000.0001) %MON XG_sd                        =   1.0357130300504E+02
(PID.TID 0000.0001) %MON DXC_max                      =   3.2375185836900E+05
(PID.TID 0000.0001) %MON DXC_min                      =   1.1142031410131E+05
(PID.TID 0000.0001) %MON DXC_mean                     =   2.8605689051214E+05
(PID.TID 0000.0001) %MON DXC_sd                       =   3.4042087138252E+04
(PID.TID 0000.0001) %MON DXF_max                      =   3.2369947500827E+05
(PID.TID 0000.0001) %MON DXF_min                      =   1.2020820513318E+05
(PID.TID 0000.0001) %MON DXF_mean                     =   2.8605437324820E+05
(PID.TID 0000.0001) %MON DXF_sd                       =   3.4050524252539E+04
(PID.TID 0000.0001) %MON DXG_max                      =   3.2375195872773E+05
(PID.TID 0000.0001) %MON DXG_min                      =   1.0098378008791E+05
(PID.TID 0000.0001) %MON DXG_mean                     =   2.8603818508931E+05
(PID.TID 0000.0001) %MON DXG_sd                       =   3.4140406908005E+04
(PID.TID 0000.0001) %MON DXV_max                      =   3.2380418162750E+05
(PID.TID 0000.0001) %MON DXV_min                      =   8.0152299824136E+04
(PID.TID 0000.0001) %MON DXV_mean                     =   2.8603970633619E+05
(PID.TID 0000.0001) %MON DXV_sd                       =   3.4145142117723E+04
(PID.TID 0000.0001) %MON YC_max                       =   8.7940663871962E+01
(PID.TID 0000.0001) %MON YC_min                       =  -8.7940663871962E+01
(PID.TID 0000.0001) %MON YC_mean                      =  -2.3684757858670E-15
(PID.TID 0000.0001) %MON YC_sd                        =   3.8676242969072E+01
(PID.TID 0000.0001) %MON YG_max                       =   9.0000000000000E+01
(PID.TID 0000.0001) %MON YG_min                       =  -9.0000000000000E+01
(PID.TID 0000.0001) %MON YG_mean                      =  -4.1448326252673E-15
(PID.TID 0000.0001) %MON YG_sd                        =   3.8676895860710E+01
(PID.TID 0000.0001) %MON DYC_max                      =   3.2375185836900E+05
(PID.TID 0000.0001) %MON DYC_min                      =   1.1142031410131E+05
(PID.TID 0000.0001) %MON DYC_mean                     =   2.8605689051214E+05
(PID.TID 0000.0001) %MON DYC_sd                       =   3.4042087138252E+04
(PID.TID 0000.0001) %MON DYF_max                      =   3.2369947500827E+05
(PID.TID 0000.0001) %MON DYF_min                      =   1.2020820513318E+05
(PID.TID 0000.0001) %MON DYF_mean                     =   2.8605437324820E+05
(PID.TID 0000.0001) %MON DYF_sd                       =   3.4050524252539E+04
(PID.TID 0000.0001) %MON DYG_max                      =   3.2375195872773E+05
(PID.TID 0000.0001) %MON DYG_min                      =   1.0098378008791E+05
(PID.TID 0000.0001) %MON DYG_mean                     =   2.8603818508931E+05
(PID.TID 0000.0001) %MON DYG_sd                       =   3.4140406908005E+04
(PID.TID 0000.0001) %MON DYU_max                      =   3.2380418162750E+05
(PID.TID 0000.0001) %MON DYU_min                      =   8.0152299824136E+04
(PID.TID 0000.0001) %MON DYU_mean                     =   2.8603970633619E+05
(PID.TID 0000.0001) %MON DYU_sd                       =   3.4145142117723E+04
(PID.TID 0000.0001) %MON RA_max                       =   1.0479260248419E+11
(PID.TID 0000.0001) %MON RA_min                       =   1.4019007022556E+10
(PID.TID 0000.0001) %MON RA_mean                      =   8.2992246709265E+10
(PID.TID 0000.0001) %MON RA_sd                        =   1.7509089299457E+10
(PID.TID 0000.0001) %MON RAW_max                      =   1.0480965274559E+11
(PID.TID 0000.0001) %MON RAW_min                      =   1.2166903467143E+10
(PID.TID 0000.0001) %MON RAW_mean                     =   8.2992246709235E+10
(PID.TID 0000.0001) %MON RAW_sd                       =   1.7481917919656E+10
(PID.TID 0000.0001) %MON RAS_max                      =   1.0480965274559E+11
(PID.TID 0000.0001) %MON RAS_min                      =   1.2166903467143E+10
(PID.TID 0000.0001) %MON RAS_mean                     =   8.2992246709235E+10
(PID.TID 0000.0001) %MON RAS_sd                       =   1.7481917919656E+10
(PID.TID 0000.0001) %MON RAZ_max                      =   1.0484349334619E+11
(PID.TID 0000.0001) %MON RAZ_min                      =   8.8317900612505E+09
(PID.TID 0000.0001) %MON RAZ_mean                     =   8.2992246709235E+10
(PID.TID 0000.0001) %MON RAZ_sd                       =   1.7482297311044E+10
(PID.TID 0000.0001) %MON AngleCS_max                  =   9.9999994756719E-01
(PID.TID 0000.0001) %MON AngleCS_min                  =  -9.9968286884824E-01
(PID.TID 0000.0001) %MON AngleCS_mean                 =   3.3078922539000E-01
(PID.TID 0000.0001) %MON AngleCS_sd                   =   6.2496278958502E-01
(PID.TID 0000.0001) %MON AngleSN_max                  =   9.9968286884824E-01
(PID.TID 0000.0001) %MON AngleSN_min                  =  -9.9999994756719E-01
(PID.TID 0000.0001) %MON AngleSN_mean                 =  -3.3078922539000E-01
(PID.TID 0000.0001) %MON AngleSN_sd                   =   6.2496278958502E-01
(PID.TID 0000.0001) 
(PID.TID 0000.0001) // =======================================================
(PID.TID 0000.0001) // Calendar configuration >>> START <<<
(PID.TID 0000.0001) // =======================================================
(PID.TID 0000.0001) 
(PID.TID 0000.0001) modelstart = /* Start time of the model integration [s] */
(PID.TID 0000.0001)                 6.220800000000000E+09
(PID.TID 0000.0001)     ;
(PID.TID 0000.0001) modelend  = /* End time of the model integration [s] */
(PID.TID 0000.0001)                 6.221232000000000E+09
(PID.TID 0000.0001)     ;
(PID.TID 0000.0001) modelStep = /* Time interval for a model forward step [s] */
(PID.TID 0000.0001)                 8.640000000000000E+04
(PID.TID 0000.0001)     ;
(PID.TID 0000.0001) usingGregorianCalendar= /* Calendar Type: Gregorian Calendar */
(PID.TID 0000.0001)                   F
(PID.TID 0000.0001)     ;
(PID.TID 0000.0001) usingJulianCalendar = /* Calendar Type: Julian Calendar */
(PID.TID 0000.0001)                   F
(PID.TID 0000.0001)     ;
(PID.TID 0000.0001) usingNoLeapYearCal  = /* Calendar Type: without Leap Year */
(PID.TID 0000.0001)                   F
(PID.TID 0000.0001)     ;
(PID.TID 0000.0001) usingModelCalendar  = /* Calendar Type: Model Calendar */
(PID.TID 0000.0001)                   T
(PID.TID 0000.0001)     ;
(PID.TID 0000.0001) modelStartDate YYYYMMDD = /* Model start date YYYY-MM-DD */
(PID.TID 0000.0001)                 2010101
(PID.TID 0000.0001)     ;
(PID.TID 0000.0001)   modelStartDate HHMMSS = /* Model start date HH-MM-SS  */
(PID.TID 0000.0001)                       0
(PID.TID 0000.0001)     ;
(PID.TID 0000.0001) modelEndDate   YYYYMMDD = /* Model end date YYYY-MM-DD */
(PID.TID 0000.0001)                 2010106
(PID.TID 0000.0001)     ;
(PID.TID 0000.0001)   modelEndDate   HHMMSS = /* Model end date HH-MM-SS  */
(PID.TID 0000.0001)                       0
(PID.TID 0000.0001)     ;
(PID.TID 0000.0001) intyears = /* Number of calendar years affected by the integration */
(PID.TID 0000.0001)                       1
(PID.TID 0000.0001)     ;
(PID.TID 0000.0001) intmonths= /* Number of calendar months affected by the integration */
(PID.TID 0000.0001)                       1
(PID.TID 0000.0001)     ;
(PID.TID 0000.0001) intdays = /* Number of calendar days affected by the integration */
(PID.TID 0000.0001)                       5
(PID.TID 0000.0001)     ;
(PID.TID 0000.0001) modelIter0 = /* Base timestep number  */
(PID.TID 0000.0001)                   72000
(PID.TID 0000.0001)     ;
(PID.TID 0000.0001) modelIterEnd = /* Final timestep number  */
(PID.TID 0000.0001)                   72005
(PID.TID 0000.0001)     ;
(PID.TID 0000.0001) modelIntSteps= /* Number of model timesteps  */
(PID.TID 0000.0001)                       5
(PID.TID 0000.0001)     ;
(PID.TID 0000.0001) 
(PID.TID 0000.0001) // =======================================================
(PID.TID 0000.0001) // Calendar configuration  >>> END <<<
(PID.TID 0000.0001) // =======================================================
(PID.TID 0000.0001) 
(PID.TID 0000.0001) GAD_INIT_FIXED: GAD_OlMinSize=  2  0  2
(PID.TID 0000.0001) 
(PID.TID 0000.0001) // ===================================
(PID.TID 0000.0001) // GAD parameters :
(PID.TID 0000.0001) // ===================================
(PID.TID 0000.0001) tempAdvScheme =   /* Temp. Horiz.Advection scheme selector */
(PID.TID 0000.0001)                      30
(PID.TID 0000.0001)     ;
(PID.TID 0000.0001) tempVertAdvScheme =   /* Temp. Vert. Advection scheme selector */
(PID.TID 0000.0001)                      30
(PID.TID 0000.0001)     ;
(PID.TID 0000.0001) tempMultiDimAdvec =   /* use Muti-Dim Advec method for Temp */
(PID.TID 0000.0001)                   T
(PID.TID 0000.0001)     ;
(PID.TID 0000.0001) tempSOM_Advection = /* use 2nd Order Moment Advection for Temp */
(PID.TID 0000.0001)                   F
(PID.TID 0000.0001)     ;
(PID.TID 0000.0001) AdamsBashforthGt = /* apply Adams-Bashforth extrapolation on Gt */
(PID.TID 0000.0001)                   F
(PID.TID 0000.0001)     ;
(PID.TID 0000.0001) AdamsBashforth_T = /* apply Adams-Bashforth extrapolation on Temp */
(PID.TID 0000.0001)                   F
(PID.TID 0000.0001)     ;
(PID.TID 0000.0001) saltAdvScheme =   /* Salt. Horiz.advection scheme selector */
(PID.TID 0000.0001)                      30
(PID.TID 0000.0001)     ;
(PID.TID 0000.0001) saltVertAdvScheme =   /* Salt. Vert. Advection scheme selector */
(PID.TID 0000.0001)                      30
(PID.TID 0000.0001)     ;
(PID.TID 0000.0001) saltMultiDimAdvec =   /* use Muti-Dim Advec method for Salt */
(PID.TID 0000.0001)                   T
(PID.TID 0000.0001)     ;
(PID.TID 0000.0001) saltSOM_Advection = /* use 2nd Order Moment Advection for Salt */
(PID.TID 0000.0001)                   F
(PID.TID 0000.0001)     ;
(PID.TID 0000.0001) AdamsBashforthGs = /* apply Adams-Bashforth extrapolation on Gs */
(PID.TID 0000.0001)                   F
(PID.TID 0000.0001)     ;
(PID.TID 0000.0001) AdamsBashforth_S = /* apply Adams-Bashforth extrapolation on Salt */
(PID.TID 0000.0001)                   F
(PID.TID 0000.0001)     ;
(PID.TID 0000.0001) // ===================================
(PID.TID 0000.0001) 
(PID.TID 0000.0001) // =======================================================
(PID.TID 0000.0001) // External forcing (EXF) configuration >>> START <<<
(PID.TID 0000.0001) // =======================================================
(PID.TID 0000.0001) 
(PID.TID 0000.0001)  EXF general parameters:
(PID.TID 0000.0001) 
(PID.TID 0000.0001) exf_iprec = /* exf file precision */
(PID.TID 0000.0001)                      64
(PID.TID 0000.0001)     ;
(PID.TID 0000.0001) useExfYearlyFields = /* add extension _YEAR to input file names */
(PID.TID 0000.0001)                   F
(PID.TID 0000.0001)     ;
(PID.TID 0000.0001) twoDigitYear = /* use 2-digit year extension */
(PID.TID 0000.0001)                   F
(PID.TID 0000.0001)     ;
(PID.TID 0000.0001) useExfCheckRange = /* check for fields range */
(PID.TID 0000.0001)                   T
(PID.TID 0000.0001)     ;
(PID.TID 0000.0001) diags_opOceWeighted = /* weight flux diags by open-ocean fraction */
(PID.TID 0000.0001)                   T
(PID.TID 0000.0001)     ;
(PID.TID 0000.0001) exf_debugLev = /* select EXF-debug printing level */
(PID.TID 0000.0001)                       1
(PID.TID 0000.0001)     ;
(PID.TID 0000.0001) exf_monFreq  = /* EXF monitor frequency [ s ] */
(PID.TID 0000.0001)                 0.000000000000000E+00
(PID.TID 0000.0001)     ;
(PID.TID 0000.0001) exf_adjMonSelect = /* select group of exf AD-variables to monitor */
(PID.TID 0000.0001)                       1
(PID.TID 0000.0001)     ;
(PID.TID 0000.0001) repeatPeriod = /* period for cycling forcing dataset [ s ] */
(PID.TID 0000.0001)                 3.110400000000000E+07
(PID.TID 0000.0001)     ;
(PID.TID 0000.0001) climTempFreeze= /* Minimum climatological temperature [deg.C] */
(PID.TID 0000.0001)                -1.900000000000000E+00
(PID.TID 0000.0001)     ;
(PID.TID 0000.0001) windStressMax = /* Maximum absolute windstress [ Pa ] */
(PID.TID 0000.0001)                 2.000000000000000E+00
(PID.TID 0000.0001)     ;
(PID.TID 0000.0001) stressIsOnCgrid = /* set u,v_stress on Arakawa C-grid */
(PID.TID 0000.0001)                   T
(PID.TID 0000.0001)     ;
(PID.TID 0000.0001) rotateStressOnAgrid = /* rotate u,v_stress on Arakawa A-grid */
(PID.TID 0000.0001)                   F
(PID.TID 0000.0001)     ;
(PID.TID 0000.0001) cen2kel = /* conversion of deg. Centigrade to Kelvin [K] */
(PID.TID 0000.0001)                 2.731500000000000E+02
(PID.TID 0000.0001)     ;
(PID.TID 0000.0001) gravity_mks= /* gravitational acceleration [m/s^2] */
(PID.TID 0000.0001)                 9.810000000000000E+00
(PID.TID 0000.0001)     ;
(PID.TID 0000.0001) atmrho =  /* mean atmospheric density [kg/m^3] */
(PID.TID 0000.0001)                 1.220000000000000E+00
(PID.TID 0000.0001)     ;
(PID.TID 0000.0001) atmcp =  /* mean atmospheric specific heat [J/kg/K] */
(PID.TID 0000.0001)                 1.005000000000000E+03
(PID.TID 0000.0001)     ;
(PID.TID 0000.0001) flamb =  /* latent heat of evaporation [J/kg] */
(PID.TID 0000.0001)                 2.500000000000000E+06
(PID.TID 0000.0001)     ;
(PID.TID 0000.0001) flami =  /* latent heat of pure-ice melting [J/kg] */
(PID.TID 0000.0001)                 3.340000000000000E+05
(PID.TID 0000.0001)     ;
(PID.TID 0000.0001) cvapor_fac = /* const. for Saturation calculation [?] */
(PID.TID 0000.0001)                 6.403800000000000E+05
(PID.TID 0000.0001)     ;
(PID.TID 0000.0001) cvapor_exp = /* const. for Saturation calculation [?] */
(PID.TID 0000.0001)                 5.107400000000000E+03
(PID.TID 0000.0001)     ;
(PID.TID 0000.0001) cvapor_fac_ice= /* const. for Saturation calculation [?] */
(PID.TID 0000.0001)                 1.163780000000000E+07
(PID.TID 0000.0001)     ;
(PID.TID 0000.0001) cvapor_exp_ice= /* const. for Saturation calculation [?] */
(PID.TID 0000.0001)                 5.897800000000000E+03
(PID.TID 0000.0001)     ;
(PID.TID 0000.0001) humid_fac = /* humidity coef. in virtual temp. [(kg/kg)^-1] */
(PID.TID 0000.0001)                 6.080000000000000E-01
(PID.TID 0000.0001)     ;
(PID.TID 0000.0001) gamma_blk = /* adiabatic lapse rate [?] */
(PID.TID 0000.0001)                 1.000000000000000E-02
(PID.TID 0000.0001)     ;
(PID.TID 0000.0001) saltsat = /* reduction of Qsat over salty water [-] */
(PID.TID 0000.0001)                 9.800000000000000E-01
(PID.TID 0000.0001)     ;
(PID.TID 0000.0001) noNegativeEvap = /* prevent negative Evaporation */
(PID.TID 0000.0001)                   F
(PID.TID 0000.0001)     ;
(PID.TID 0000.0001) sstExtrapol = /* extrapolation coeff from lev. 1 & 2 to surf [-] */
(PID.TID 0000.0001)                 0.000000000000000E+00
(PID.TID 0000.0001)     ;
(PID.TID 0000.0001) cDrag_1 = /* coef used in drag calculation [m/s] */
(PID.TID 0000.0001)                 2.700000000000000E-03
(PID.TID 0000.0001)     ;
(PID.TID 0000.0001) cDrag_2 = /* coef used in drag calculation [-] */
(PID.TID 0000.0001)                 1.420000000000000E-04
(PID.TID 0000.0001)     ;
(PID.TID 0000.0001) cDrag_3 = /* coef used in drag calculation [s/m] */
(PID.TID 0000.0001)                 7.640000000000000E-05
(PID.TID 0000.0001)     ;
(PID.TID 0000.0001) cDrag_8 = /* coef used in drag calculation [(s/m)^6] */
(PID.TID 0000.0001)                 1.234567000000000E+05
(PID.TID 0000.0001)     ;
(PID.TID 0000.0001) cDragMax = /* maximum drag (Large and Yeager, 2009) [-] */
(PID.TID 0000.0001)                 1.234567000000000E+05
(PID.TID 0000.0001)     ;
(PID.TID 0000.0001) umax = /* at maximum wind (Large and Yeager, 2009) [m/s] */
(PID.TID 0000.0001)                 1.234567000000000E+05
(PID.TID 0000.0001)     ;
(PID.TID 0000.0001) cStanton_1 = /* coef used in Stanton number calculation [-] */
(PID.TID 0000.0001)                 3.270000000000000E-02
(PID.TID 0000.0001)     ;
(PID.TID 0000.0001) cStanton_2 = /* coef used in Stanton number calculation [-] */
(PID.TID 0000.0001)                 1.800000000000000E-02
(PID.TID 0000.0001)     ;
(PID.TID 0000.0001) cDalton = /* Dalton number [-] */
(PID.TID 0000.0001)                 3.460000000000000E-02
(PID.TID 0000.0001)     ;
(PID.TID 0000.0001) exf_scal_BulkCdn= /* Drag coefficient scaling factor [-] */
(PID.TID 0000.0001)                 1.000000000000000E+00
(PID.TID 0000.0001)     ;
(PID.TID 0000.0001) zolmin = /* minimum stability parameter [?] */
(PID.TID 0000.0001)                -1.000000000000000E+02
(PID.TID 0000.0001)     ;
(PID.TID 0000.0001) psim_fac = /* coef used in turbulent fluxes calculation [-] */
(PID.TID 0000.0001)                 5.000000000000000E+00
(PID.TID 0000.0001)     ;
(PID.TID 0000.0001) zref =  /* reference height [ m ] */
(PID.TID 0000.0001)                 1.000000000000000E+01
(PID.TID 0000.0001)     ;
(PID.TID 0000.0001) hu =  /* height of mean wind [ m ] */
(PID.TID 0000.0001)                 1.000000000000000E+01
(PID.TID 0000.0001)     ;
(PID.TID 0000.0001) ht =  /* height of mean temperature [ m ] */
(PID.TID 0000.0001)                 1.000000000000000E+01
(PID.TID 0000.0001)     ;
(PID.TID 0000.0001) hq =  /* height of mean spec.humidity [ m ] */
(PID.TID 0000.0001)                 1.000000000000000E+01
(PID.TID 0000.0001)     ;
(PID.TID 0000.0001) uMin = /* minimum wind speed [m/s] */
(PID.TID 0000.0001)                 5.000000000000000E-01
(PID.TID 0000.0001)     ;
(PID.TID 0000.0001) useStabilityFct_overIce= /* transfert Coeffs over sea-ice depend on stability */
(PID.TID 0000.0001)                   F
(PID.TID 0000.0001)     ;
(PID.TID 0000.0001) exf_iceCd = /* drag coefficient over sea-ice (fixed) [-] */
(PID.TID 0000.0001)                 1.630000000000000E-03
(PID.TID 0000.0001)     ;
(PID.TID 0000.0001) exf_iceCe = /* transfert coeff. over sea-ice, for Evap (fixed) [-] */
(PID.TID 0000.0001)                 1.630000000000000E-03
(PID.TID 0000.0001)     ;
(PID.TID 0000.0001) exf_iceCh = /* transfert coeff. over sea-ice, Sens.Heat.(fixed)[-] */
(PID.TID 0000.0001)                 1.630000000000000E-03
(PID.TID 0000.0001)     ;
(PID.TID 0000.0001) exf_albedo =  /* Sea-water albedo [-] */
(PID.TID 0000.0001)                 6.600000000000000E-02
(PID.TID 0000.0001)     ;
(PID.TID 0000.0001) useExfZenAlbedo = /* Sea-water albedo varies with zenith angle */
(PID.TID 0000.0001)                   F
(PID.TID 0000.0001)     ;
(PID.TID 0000.0001) select_ZenAlbedo = /* Sea-water albedo computation method */
(PID.TID 0000.0001)                       0
(PID.TID 0000.0001)     ;
(PID.TID 0000.0001) useExfZenIncoming = /* compute incoming solar radiation */
(PID.TID 0000.0001)                   F
(PID.TID 0000.0001)     ;
(PID.TID 0000.0001) ocean_emissivity = /* longwave ocean-surface emissivity [-] */
(PID.TID 0000.0001)                 1.000000000000000E+00
(PID.TID 0000.0001)     ;
(PID.TID 0000.0001) ice_emissivity = /* longwave seaice emissivity [-] */
(PID.TID 0000.0001)                 9.500000000000000E-01
(PID.TID 0000.0001)     ;
(PID.TID 0000.0001) snow_emissivity = /* longwave snow  emissivity [-] */
(PID.TID 0000.0001)                 9.500000000000000E-01
(PID.TID 0000.0001)     ;
(PID.TID 0000.0001) 
(PID.TID 0000.0001)  EXF main CPP flags:
(PID.TID 0000.0001) 
(PID.TID 0000.0001) // USE_EXF_INTERPOLATION:          NOT defined
(PID.TID 0000.0001) // ALLOW_ATM_TEMP:                     defined
(PID.TID 0000.0001) // ALLOW_ATM_WIND (useAtmWind):    NOT defined
(PID.TID 0000.0001) // ALLOW_DOWNWARD_RADIATION:           defined
(PID.TID 0000.0001) // ALLOW_BULKFORMULAE:                 defined
(PID.TID 0000.0001) 
(PID.TID 0000.0001)    Zonal wind stress forcing starts at             1296000.
(PID.TID 0000.0001)    Zonal wind stress forcing period is             2592000.
(PID.TID 0000.0001)    Zonal wind stress forcing repeat-cycle is      31104000.
(PID.TID 0000.0001)    Zonal wind stress forcing is read from file:
(PID.TID 0000.0001)    >> trenberth_taux.bin <<
(PID.TID 0000.0001) 
(PID.TID 0000.0001)    Meridional wind stress forcing starts at        1296000.
(PID.TID 0000.0001)    Meridional wind stress forcing period is        2592000.
(PID.TID 0000.0001)    Meridional wind stress forcing rep-cycle is    31104000.
(PID.TID 0000.0001)    Meridional wind stress forcing is read from file:
(PID.TID 0000.0001)    >> trenberth_tauy.bin <<
(PID.TID 0000.0001) 
(PID.TID 0000.0001)    Surface wind speed starts at                    1296000.
(PID.TID 0000.0001)    Surface wind speed period is                    2592000.
(PID.TID 0000.0001)    Surface wind speed repeat-cycle is             31104000.
(PID.TID 0000.0001)    Surface wind speed is read from file:
(PID.TID 0000.0001)    >> core_wndSpd_cs32.bin <<
(PID.TID 0000.0001) 
(PID.TID 0000.0001)    Atmospheric temperature starts at               1296000.
(PID.TID 0000.0001)    Atmospheric temperature period is               2592000.
(PID.TID 0000.0001)    Atmospheric temperature repeat-cycle is        31104000.
(PID.TID 0000.0001)    Atmospheric temperature is read from file:
(PID.TID 0000.0001)    >> core_t_Air_cs32.bin <<
(PID.TID 0000.0001) 
(PID.TID 0000.0001)    Atmospheric specific humidity starts at         1296000.
(PID.TID 0000.0001)    Atmospheric specific humidity period is         2592000.
(PID.TID 0000.0001)    Atmospheric specific humidity rep-cycle is     31104000.
(PID.TID 0000.0001)    Atmospheric specific humidity is read from file:
(PID.TID 0000.0001)    >> core_q_air_cs32.bin <<
(PID.TID 0000.0001) 
(PID.TID 0000.0001) // ALLOW_READ_TURBFLUXES:          NOT defined
(PID.TID 0000.0001) // EXF_READ_EVAP:                  NOT defined
(PID.TID 0000.0001) 
(PID.TID 0000.0001)    Precipitation data starts at                    1296000.
(PID.TID 0000.0001)    Precipitation data period is                    2592000.
(PID.TID 0000.0001)    Precipitation data repeat-cycle is             31104000.
(PID.TID 0000.0001)    Precipitation data is read from file:
(PID.TID 0000.0001)    >> core_prec_1_cs32.bin <<
(PID.TID 0000.0001) 
(PID.TID 0000.0001) // ALLOW_RUNOFF:                       defined
(PID.TID 0000.0001)    Runoff data starts at                           1296000.
(PID.TID 0000.0001)    Runoff data period is                           2592000.
(PID.TID 0000.0001)    Runoff data repeat-cycle is                    31104000.
(PID.TID 0000.0001)    Runoff data is read from file:
(PID.TID 0000.0001)    >> core_rnof_1_cs32.bin <<
(PID.TID 0000.0001) 
(PID.TID 0000.0001) // ALLOW_RUNOFTEMP:                NOT defined
(PID.TID 0000.0001) // ALLOW_SALTFLX:                  NOT defined
(PID.TID 0000.0001) 
(PID.TID 0000.0001)    Downward shortwave flux starts at               1296000.
(PID.TID 0000.0001)    Downward shortwave flux period is               2592000.
(PID.TID 0000.0001)    Downward shortwave flux repeat-cycle is        31104000.
(PID.TID 0000.0001)    Downward shortwave flux is read from file:
(PID.TID 0000.0001)    >> core_dwnSw_cs32.bin <<
(PID.TID 0000.0001) 
(PID.TID 0000.0001)    Downward longwave flux starts at                1296000.
(PID.TID 0000.0001)    Downward longwave flux period is                2592000.
(PID.TID 0000.0001)    Downward longwave flux repeat-cycle is         31104000.
(PID.TID 0000.0001)    Downward longwave flux is read from file:
(PID.TID 0000.0001)    >> core_dwnLw_cs32.bin <<
(PID.TID 0000.0001) 
(PID.TID 0000.0001) // =======================================================
(PID.TID 0000.0001) // External forcing (EXF) climatology configuration :
(PID.TID 0000.0001) // =======================================================
(PID.TID 0000.0001) 
(PID.TID 0000.0001) // ALLOW_CLIMSST_RELAXATION:           defined
(PID.TID 0000.0001)    Climatological SST starts at                    1296000.
(PID.TID 0000.0001)    Climatological SST period is                    2592000.
(PID.TID 0000.0001)    Climatological SST repeat-cycle is             31104000.
(PID.TID 0000.0001)    Climatological SST is read from file:
(PID.TID 0000.0001)    >> lev_surfT_cs_12m.bin <<
(PID.TID 0000.0001) 
(PID.TID 0000.0001) // ALLOW_CLIMSSS_RELAXATION:           defined
(PID.TID 0000.0001)    Climatological SSS starts at                    1296000.
(PID.TID 0000.0001)    Climatological SSS period is                    2592000.
(PID.TID 0000.0001)    Climatological SSS repeat-cycle is             31104000.
(PID.TID 0000.0001)    Climatological SSS is read from file:
(PID.TID 0000.0001)    >> lev_surfS_cs_12m.bin <<
(PID.TID 0000.0001) 
(PID.TID 0000.0001) // =======================================================
(PID.TID 0000.0001) // External forcing (EXF) configuration  >>> END <<<
(PID.TID 0000.0001) // =======================================================
(PID.TID 0000.0001) 
(PID.TID 0000.0001) // =======================================================
(PID.TID 0000.0001) // Seaice configuration (SEAICE_PARM01) >>> START <<<
(PID.TID 0000.0001) // =======================================================
(PID.TID 0000.0001) 
(PID.TID 0000.0001)    Seaice time stepping configuration   > START <
(PID.TID 0000.0001)    ----------------------------------------------
(PID.TID 0000.0001) SEAICE_deltaTtherm= /* thermodynamic timestep */
(PID.TID 0000.0001)                 8.640000000000000E+04
(PID.TID 0000.0001)     ;
(PID.TID 0000.0001) SEAICE_deltaTdyn  = /* dynamic timestep */
(PID.TID 0000.0001)                 8.640000000000000E+04
(PID.TID 0000.0001)     ;
(PID.TID 0000.0001) SEAICE_deltaTevp  = /* EVP timestep */
(PID.TID 0000.0001)                 1.234567000000000E+05
(PID.TID 0000.0001)     ;
(PID.TID 0000.0001) SEAICEuseBDF2  = /* use backw. differencing for mom. eq. */
(PID.TID 0000.0001)                   F
(PID.TID 0000.0001)     ;
(PID.TID 0000.0001) SEAICEupdateOceanStress= /* update Ocean surf. stress */
(PID.TID 0000.0001)                   T
(PID.TID 0000.0001)     ;
(PID.TID 0000.0001) SEAICErestoreUnderIce  = /* restore T and S under ice */
(PID.TID 0000.0001)                   F
(PID.TID 0000.0001)     ;
(PID.TID 0000.0001) 
(PID.TID 0000.0001)    Seaice dynamics configuration   > START <
(PID.TID 0000.0001)    ------------------------------------------
(PID.TID 0000.0001) SEAICEuseDYNAMICS = /* use dynamics */
(PID.TID 0000.0001)                   T
(PID.TID 0000.0001)     ;
(PID.TID 0000.0001) model grid type   = /* type of sea ice model grid */
(PID.TID 0000.0001)               'C-GRID'
(PID.TID 0000.0001)     ;
(PID.TID 0000.0001) SEAICEuseStrImpCpl = /* use strongly implicit coupling */
(PID.TID 0000.0001)                   F
(PID.TID 0000.0001)     ;
(PID.TID 0000.0001) SEAICEusePicardAsPrecon = /* Picard as preconditioner */
(PID.TID 0000.0001)                   F
(PID.TID 0000.0001)     ;
(PID.TID 0000.0001) SEAICEuseLSR      = /* use default Picard-LSR solver */
(PID.TID 0000.0001)                   T
(PID.TID 0000.0001)     ;
(PID.TID 0000.0001) SEAICEuseLSRflex  = /* with residual norm criterion */
(PID.TID 0000.0001)                   F
(PID.TID 0000.0001)     ;
(PID.TID 0000.0001) SEAICEuseKrylov   = /* use Picard-Krylov solver */
(PID.TID 0000.0001)                   F
(PID.TID 0000.0001)     ;
(PID.TID 0000.0001) SEAICEuseEVP      = /* use EVP solver rather than LSR */
(PID.TID 0000.0001)                   F
(PID.TID 0000.0001)     ;
(PID.TID 0000.0001) SEAICEuseJFNK     = /* use JFNK solver */
(PID.TID 0000.0001)                   F
(PID.TID 0000.0001)     ;
(PID.TID 0000.0001) SEAICEuseFREEDRIFT = /* use free drift solution */
(PID.TID 0000.0001)                   F
(PID.TID 0000.0001)     ;
(PID.TID 0000.0001) OCEAN_drag        = /* air-ocean drag coefficient */
(PID.TID 0000.0001)                 1.000000000000000E-03
(PID.TID 0000.0001)     ;
(PID.TID 0000.0001) SEAICE_drag       = /* air-ice drag coefficient */
(PID.TID 0000.0001)                 2.000000000000000E-03
(PID.TID 0000.0001)     ;
(PID.TID 0000.0001) SEAICE_drag_south      = /* Southern Ocean SEAICE_drag */
(PID.TID 0000.0001)                 2.000000000000000E-03
(PID.TID 0000.0001)     ;
(PID.TID 0000.0001) SEAICE_waterDrag  = /* water-ice drag (no units) */
(PID.TID 0000.0001)                 5.314009661835749E-03
(PID.TID 0000.0001)     ;
(PID.TID 0000.0001) SEAICE_waterDrag_south = /* Southern Ocean waterDrag (no units) */
(PID.TID 0000.0001)                 5.314009661835749E-03
(PID.TID 0000.0001)     ;
(PID.TID 0000.0001) SEAICEdWatMin = /* minimum linear water-ice drag (in m/s) */
(PID.TID 0000.0001)                 2.500000000000000E-01
(PID.TID 0000.0001)     ;
(PID.TID 0000.0001) SEAICEbasalDragK2 = /* Basal drag parameter */
(PID.TID 0000.0001)                 0.000000000000000E+00
(PID.TID 0000.0001)     ;
(PID.TID 0000.0001) SEAICEuseTilt     = /* include surface tilt in dyna. */
(PID.TID 0000.0001)                   T
(PID.TID 0000.0001)     ;
(PID.TID 0000.0001) SEAICEuseTEM      = /* use truncated ellipse rheology */
(PID.TID 0000.0001)                   F
(PID.TID 0000.0001)     ;
(PID.TID 0000.0001) SEAICE_strength   = /* sea-ice strength Pstar */
(PID.TID 0000.0001)                 2.750000000000000E+04
(PID.TID 0000.0001)     ;
(PID.TID 0000.0001) SEAICE_cStar      = /* sea-ice strength parameter cStar */
(PID.TID 0000.0001)                 2.000000000000000E+01
(PID.TID 0000.0001)     ;
(PID.TID 0000.0001) SEAICEpressReplFac= /* press. replacement method factor */
(PID.TID 0000.0001)                 1.000000000000000E+00
(PID.TID 0000.0001)     ;
(PID.TID 0000.0001) SEAICE_tensilFac  = /* sea-ice tensile strength factor */
(PID.TID 0000.0001)                 0.000000000000000E+00
(PID.TID 0000.0001)     ;
(PID.TID 0000.0001) SEAICE_tensilDepth= /* crit. depth for tensile strength */
(PID.TID 0000.0001)                 0.000000000000000E+00
(PID.TID 0000.0001)     ;
(PID.TID 0000.0001) SEAICEpresH0   = /* sea-ice strength Heff threshold */
(PID.TID 0000.0001)                 1.000000000000000E+00
(PID.TID 0000.0001)     ;
(PID.TID 0000.0001) SEAICEpresPow0 = /* exponent for Heff<SEAICEpresH0 */
(PID.TID 0000.0001)                       1
(PID.TID 0000.0001)     ;
(PID.TID 0000.0001) SEAICEpresPow1 = /* exponent for Heff>SEAICEpresH0 */
(PID.TID 0000.0001)                       1
(PID.TID 0000.0001)     ;
(PID.TID 0000.0001) SEAICEetaZmethod = /* method computing eta at Z-point */
(PID.TID 0000.0001)                       0
(PID.TID 0000.0001)     ;
(PID.TID 0000.0001) SEAICE_zetaMaxFac = /* factor for upper viscosity bound */
(PID.TID 0000.0001)                 2.500000000000000E+08
(PID.TID 0000.0001)     ;
(PID.TID 0000.0001) SEAICE_zetaMin    = /* lower bound for viscosity */
(PID.TID 0000.0001)                 0.000000000000000E+00
(PID.TID 0000.0001)     ;
(PID.TID 0000.0001) SEAICE_eccen    = /* elliptical yield curve eccent */
(PID.TID 0000.0001)                 2.000000000000000E+00
(PID.TID 0000.0001)     ;
(PID.TID 0000.0001) SEAICEstressFactor    = /* wind stress scaling factor */
(PID.TID 0000.0001)                 1.000000000000000E+00
(PID.TID 0000.0001)     ;
(PID.TID 0000.0001) SEAICE_airTurnAngle    = /* air-ice turning angle */
(PID.TID 0000.0001)                 0.000000000000000E+00
(PID.TID 0000.0001)     ;
(PID.TID 0000.0001) SEAICE_waterTurnAngle  = /* ice-water turning angle */
(PID.TID 0000.0001)                 0.000000000000000E+00
(PID.TID 0000.0001)     ;
(PID.TID 0000.0001) SEAICEuseMetricTerms = /* use metric terms */
(PID.TID 0000.0001)                   T
(PID.TID 0000.0001)     ;
(PID.TID 0000.0001) SEAICE_no_slip    = /* no slip boundary conditions */
(PID.TID 0000.0001)                   F
(PID.TID 0000.0001)     ;
(PID.TID 0000.0001) SEAICE_2ndOrderBC = /* 2nd order no slip boundary conditions */
(PID.TID 0000.0001)                   F
(PID.TID 0000.0001)     ;
(PID.TID 0000.0001) SEAICE_clipVeloctities = /* impose max. vels. */
(PID.TID 0000.0001)                   T
(PID.TID 0000.0001)     ;
(PID.TID 0000.0001) useHB87stressCoupling  = /* altern. ice-ocean stress */
(PID.TID 0000.0001)                   F
(PID.TID 0000.0001)     ;
(PID.TID 0000.0001) SEAICEscaleSurfStress  = /* scale atm. and ocean-surface stress with AREA */
(PID.TID 0000.0001)                   F
(PID.TID 0000.0001)     ;
(PID.TID 0000.0001) SEAICE_maskRHS    = /* mask RHS of solver */
(PID.TID 0000.0001)                   F
(PID.TID 0000.0001)     ;
(PID.TID 0000.0001) SEAICEaddSnowMass = /* add snow mass to seaiceMassC/U/V */
(PID.TID 0000.0001)                   F
(PID.TID 0000.0001)     ;
(PID.TID 0000.0001) LSR_mixIniGuess = /* mix free-drift sol. into LSR initial Guess */
(PID.TID 0000.0001)                       0
(PID.TID 0000.0001)     ;
(PID.TID 0000.0001) SEAICE_LSRrelaxU  = /* LSR solver: relaxation parameter */
(PID.TID 0000.0001)                 9.500000000000000E-01
(PID.TID 0000.0001)     ;
(PID.TID 0000.0001) SEAICE_LSRrelaxV  = /* LSR solver: relaxation parameter */
(PID.TID 0000.0001)                 9.500000000000000E-01
(PID.TID 0000.0001)     ;
(PID.TID 0000.0001) LSR_ERROR         = /* sets accuracy of LSR solver */
(PID.TID 0000.0001)                 1.000000000000000E-12
(PID.TID 0000.0001)     ;
(PID.TID 0000.0001) SOLV_NCHECK       = /* test interval for LSR solver */
(PID.TID 0000.0001)                       2
(PID.TID 0000.0001)     ;
(PID.TID 0000.0001) SEAICEuseMultiTileSolver = /* use full domain tri-diag solver */
(PID.TID 0000.0001)                   F
(PID.TID 0000.0001)     ;
(PID.TID 0000.0001) SEAICE_OLx = /* overlap for LSR/preconditioner */
(PID.TID 0000.0001)                       0
(PID.TID 0000.0001)     ;
(PID.TID 0000.0001) SEAICE_OLy = /* overlap for LSR/preconditioner */
(PID.TID 0000.0001)                       0
(PID.TID 0000.0001)     ;
(PID.TID 0000.0001) SEAICEnonLinIterMax = /* max. number of nonlinear solver steps */
(PID.TID 0000.0001)                       2
(PID.TID 0000.0001)     ;
(PID.TID 0000.0001) SEAICElinearIterMax = /* max. number of linear solver steps */
(PID.TID 0000.0001)                     500
(PID.TID 0000.0001)     ;
(PID.TID 0000.0001) SEAICEnonLinTol     = /* non-linear solver tolerance */
(PID.TID 0000.0001)                 0.000000000000000E+00
(PID.TID 0000.0001)     ;
(PID.TID 0000.0001) 
(PID.TID 0000.0001)    Seaice advection diffusion config,   > START <
(PID.TID 0000.0001)    -----------------------------------------------
(PID.TID 0000.0001) SEAICEmomAdvection = /* advect sea ice momentum */
(PID.TID 0000.0001)                   F
(PID.TID 0000.0001)     ;
(PID.TID 0000.0001) SEAICEadvHeff = /* advect effective ice thickness */
(PID.TID 0000.0001)                   T
(PID.TID 0000.0001)     ;
(PID.TID 0000.0001) SEAICEadvArea = /* advect fractional ice area */
(PID.TID 0000.0001)                   T
(PID.TID 0000.0001)     ;
(PID.TID 0000.0001) SEAICEadvSnow = /* advect snow layer together with ice */
(PID.TID 0000.0001)                   T
(PID.TID 0000.0001)     ;
(PID.TID 0000.0001) SEAICEmultiDimAdvection = /* multidimadvec */
(PID.TID 0000.0001)                   T
(PID.TID 0000.0001)     ;
(PID.TID 0000.0001) SEAICEadvScheme   = /* advection scheme for ice */
(PID.TID 0000.0001)                      30
(PID.TID 0000.0001)     ;
(PID.TID 0000.0001) SEAICEadvSchArea  = /* advection scheme for area */
(PID.TID 0000.0001)                      30
(PID.TID 0000.0001)     ;
(PID.TID 0000.0001) SEAICEadvSchHeff  = /* advection scheme for thickness */
(PID.TID 0000.0001)                      30
(PID.TID 0000.0001)     ;
(PID.TID 0000.0001) SEAICEadvSchSnow  = /* advection scheme for snow */
(PID.TID 0000.0001)                      30
(PID.TID 0000.0001)     ;
(PID.TID 0000.0001) SEAICEdiffKhArea  = /* diffusivity (m^2/s) for area */
(PID.TID 0000.0001)                 0.000000000000000E+00
(PID.TID 0000.0001)     ;
(PID.TID 0000.0001) SEAICEdiffKhHeff  = /* diffusivity (m^2/s) for heff */
(PID.TID 0000.0001)                 0.000000000000000E+00
(PID.TID 0000.0001)     ;
(PID.TID 0000.0001) SEAICEdiffKhSnow  = /* diffusivity (m^2/s) for snow */
(PID.TID 0000.0001)                 0.000000000000000E+00
(PID.TID 0000.0001)     ;
(PID.TID 0000.0001) DIFF1             = /* parameter used in advect.F [m/s] */
(PID.TID 0000.0001)                 0.000000000000000E+00
(PID.TID 0000.0001)     ;
(PID.TID 0000.0001) 
(PID.TID 0000.0001)    Seaice thermodynamics configuration   > START <
(PID.TID 0000.0001)    -----------------------------------------------
(PID.TID 0000.0001) SEAICE_rhoIce     = /* density of sea ice (kg/m3) */
(PID.TID 0000.0001)                 9.100000000000000E+02
(PID.TID 0000.0001)     ;
(PID.TID 0000.0001) SEAICE_rhoSnow    = /* density of snow (kg/m3) */
(PID.TID 0000.0001)                 3.300000000000000E+02
(PID.TID 0000.0001)     ;
(PID.TID 0000.0001) SEAICE_rhoAir     = /* density of air (kg/m3) */
(PID.TID 0000.0001)                 1.220000000000000E+00
(PID.TID 0000.0001)     ;
(PID.TID 0000.0001) usePW79thermodynamics  = /* default 0-layer TD */
(PID.TID 0000.0001)                   T
(PID.TID 0000.0001)     ;
(PID.TID 0000.0001) SEAICE_lhEvap     = /* latent heat of evaporation */
(PID.TID 0000.0001)                 2.500000000000000E+06
(PID.TID 0000.0001)     ;
(PID.TID 0000.0001) SEAICE_lhFusion   = /* latent heat of fusion */
(PID.TID 0000.0001)                 3.340000000000000E+05
(PID.TID 0000.0001)     ;
(PID.TID 0000.0001) SEAICE_mcPheePiston = /* turbulent flux "piston velocity" a la McPhee (m/s) */
(PID.TID 0000.0001)                 5.787037037037037E-04
(PID.TID 0000.0001)     ;
(PID.TID 0000.0001) SEAICE_mcPheeTaper = /* tapering of turbulent flux (0.< <1.) for AREA=1. */
(PID.TID 0000.0001)                 0.000000000000000E+00
(PID.TID 0000.0001)     ;
(PID.TID 0000.0001) SEAICE_mcPheeStepFunc = /* replace linear tapering with step funct. */
(PID.TID 0000.0001)                   F
(PID.TID 0000.0001)     ;
(PID.TID 0000.0001) SEAICE_frazilFrac = /* frazil (T<tempFrz) to seaice conversion rate (0.< <1.) */
(PID.TID 0000.0001)                 1.000000000000000E+00
(PID.TID 0000.0001)     ;
(PID.TID 0000.0001) SEAICE_tempFrz0   = /* freezing temp. of sea water (intercept) */
(PID.TID 0000.0001)                 9.010000000000000E-02
(PID.TID 0000.0001)     ;
(PID.TID 0000.0001) SEAICE_dTempFrz_dS= /* freezing temp. of sea water (slope) */
(PID.TID 0000.0001)                -5.750000000000000E-02
(PID.TID 0000.0001)     ;
(PID.TID 0000.0001) SEAICE_growMeltByConv  = /* grow,melt by vert. conv. */
(PID.TID 0000.0001)                   F
(PID.TID 0000.0001)     ;
(PID.TID 0000.0001) SEAICE_doOpenWaterGrowth = /* grow by open water */
(PID.TID 0000.0001)                   T
(PID.TID 0000.0001)     ;
(PID.TID 0000.0001) SEAICE_doOpenWaterMelt = /* melt by open water */
(PID.TID 0000.0001)                   F
(PID.TID 0000.0001)     ;
(PID.TID 0000.0001) SEAICE_areaGainFormula = /* ice cover gain formula (1,2)*/
(PID.TID 0000.0001)                       1
(PID.TID 0000.0001)     1=from growth by ATM
(PID.TID 0000.0001)     2=from predicted growth by ATM
(PID.TID 0000.0001)     ;
(PID.TID 0000.0001) SEAICE_areaLossFormula = /* ice cover loss formula (1,2)*/
(PID.TID 0000.0001)                       2
(PID.TID 0000.0001)     1=from all but only melt conributions by ATM and OCN
(PID.TID 0000.0001)     2=from net melt-grow>0 by ATM and OCN
(PID.TID 0000.0001)     3=from predicted melt by ATM
(PID.TID 0000.0001)     ;
(PID.TID 0000.0001) HO                = /* nominal thickness of new ice */
(PID.TID 0000.0001)                 5.000000000000000E-01
(PID.TID 0000.0001)     ;
(PID.TID 0000.0001) HO_south               = /* Southern Ocean HO */
(PID.TID 0000.0001)                 5.000000000000000E-01
(PID.TID 0000.0001)     ;
(PID.TID 0000.0001) SEAICE_area_max        = /* set to les than 1. to mimic open leads */
(PID.TID 0000.0001)                 1.000000000000000E+00
(PID.TID 0000.0001)     ;
(PID.TID 0000.0001) SEAICE_salt0   = /* constant sea ice salinity */
(PID.TID 0000.0001)                 4.000000000000000E+00
(PID.TID 0000.0001)     ;
(PID.TID 0000.0001) SEAICE_salinityTracer = /* test SITR varia. salinity */
(PID.TID 0000.0001)                   F
(PID.TID 0000.0001)     ;
(PID.TID 0000.0001) SEAICEuseFlooding = /* turn submerged snow into ice */
(PID.TID 0000.0001)                   T
(PID.TID 0000.0001)     ;
(PID.TID 0000.0001) 
(PID.TID 0000.0001)    Seaice air-sea fluxes configuration,   > START <
(PID.TID 0000.0001)    -----------------------------------------------
(PID.TID 0000.0001) SEAICEheatConsFix  = /* accound for ocn<->seaice advect. heat flux */
(PID.TID 0000.0001)                   F
(PID.TID 0000.0001)     ;
(PID.TID 0000.0001) SEAICE_multDim    = /* number of ice categories (1 or 7) */
(PID.TID 0000.0001)                       1
(PID.TID 0000.0001)     ;
(PID.TID 0000.0001) SEAICE_PDF        = /* sea-ice distribution (-) */
(PID.TID 0000.0001)                 1.000000000000000E+00,      /* K =  1 */
(PID.TID 0000.0001)     6 @  0.000000000000000E+00              /* K =  2:  7 */
(PID.TID 0000.0001)     ;
(PID.TID 0000.0001) IMAX_TICE         = /* iterations for ice surface temp */
(PID.TID 0000.0001)                      10
(PID.TID 0000.0001)     ;
(PID.TID 0000.0001) postSolvTempIter= /* flux calculation after surf. temp iter */
(PID.TID 0000.0001)                       2
(PID.TID 0000.0001)     ;
(PID.TID 0000.0001) SEAICE_dryIceAlb  = /* winter albedo */
(PID.TID 0000.0001)                 7.500000000000000E-01
(PID.TID 0000.0001)     ;
(PID.TID 0000.0001) SEAICE_wetIceAlb  = /* summer albedo */
(PID.TID 0000.0001)                 6.600000000000000E-01
(PID.TID 0000.0001)     ;
(PID.TID 0000.0001) SEAICE_drySnowAlb = /* dry snow albedo */
(PID.TID 0000.0001)                 8.400000000000000E-01
(PID.TID 0000.0001)     ;
(PID.TID 0000.0001) SEAICE_wetSnowAlb = /* wet snow albedo */
(PID.TID 0000.0001)                 7.000000000000000E-01
(PID.TID 0000.0001)     ;
(PID.TID 0000.0001) SEAICE_dryIceAlb_south = /* Southern Ocean dryIceAlb */
(PID.TID 0000.0001)                 7.500000000000000E-01
(PID.TID 0000.0001)     ;
(PID.TID 0000.0001) SEAICE_wetIceAlb_south = /* Southern Ocean wetIceAlb */
(PID.TID 0000.0001)                 6.600000000000000E-01
(PID.TID 0000.0001)     ;
(PID.TID 0000.0001) SEAICE_drySnowAlb_south= /* Southern Ocean drySnowAlb */
(PID.TID 0000.0001)                 8.400000000000000E-01
(PID.TID 0000.0001)     ;
(PID.TID 0000.0001) SEAICE_wetSnowAlb_south= /* Southern Ocean wetSnowAlb */
(PID.TID 0000.0001)                 7.000000000000000E-01
(PID.TID 0000.0001)     ;
(PID.TID 0000.0001) SEAICE_wetAlbTemp= /* Temp (o.C) threshold for wet-albedo */
(PID.TID 0000.0001)                 0.000000000000000E+00
(PID.TID 0000.0001)     ;
(PID.TID 0000.0001) SEAICE_snow_emiss = /* snow emissivity */
(PID.TID 0000.0001)                 9.500000000000000E-01
(PID.TID 0000.0001)     ;
(PID.TID 0000.0001) SEAICE_ice_emiss = /* seaice emissivity */
(PID.TID 0000.0001)                 9.500000000000000E-01
(PID.TID 0000.0001)     ;
(PID.TID 0000.0001) SEAICE_cpAir      = /* heat capacity of air */
(PID.TID 0000.0001)                 1.005000000000000E+03
(PID.TID 0000.0001)     ;
(PID.TID 0000.0001) SEAICE_dalton     = /* constant dalton number */
(PID.TID 0000.0001)                 1.750000000000000E-03
(PID.TID 0000.0001)     ;
(PID.TID 0000.0001) SEAICE_iceConduct = /* sea-ice conductivity */
(PID.TID 0000.0001)                 2.165600000000000E+00
(PID.TID 0000.0001)     ;
(PID.TID 0000.0001) SEAICE_snowConduct= /* snow conductivity */
(PID.TID 0000.0001)                 3.100000000000000E-01
(PID.TID 0000.0001)     ;
(PID.TID 0000.0001) SEAICE_snowThick  = /* cutoff snow thickness (for albedo) */
(PID.TID 0000.0001)                 0.000000000000000E+00
(PID.TID 0000.0001)     ;
(PID.TID 0000.0001) SEAICE_shortwave  = /* penetration shortwave radiation */
(PID.TID 0000.0001)                 3.000000000000000E-01
(PID.TID 0000.0001)     ;
(PID.TID 0000.0001) useMaykutSatVapPoly = /* use Maykut Polynomial for Sat.Vap.Pr */
(PID.TID 0000.0001)                   F
(PID.TID 0000.0001)     ;
(PID.TID 0000.0001) MIN_ATEMP         = /* minimum air temperature */
(PID.TID 0000.0001)                -5.000000000000000E+01
(PID.TID 0000.0001)     ;
(PID.TID 0000.0001) MIN_LWDOWN        = /* minimum downward longwave */
(PID.TID 0000.0001)                 6.000000000000000E+01
(PID.TID 0000.0001)     ;
(PID.TID 0000.0001) MIN_TICE          = /* minimum ice temperature */
(PID.TID 0000.0001)                -5.000000000000000E+01
(PID.TID 0000.0001)     ;
(PID.TID 0000.0001) 
(PID.TID 0000.0001)    Seaice initialization and IO config.,   > START <
(PID.TID 0000.0001)    -------------------------------------------------
(PID.TID 0000.0001) SEAICE_initialHEFF= /* initial sea-ice thickness */
(PID.TID 0000.0001)                 0.000000000000000E+00
(PID.TID 0000.0001)     ;
(PID.TID 0000.0001) AreaFile = /* Initial ice concentration File */
(PID.TID 0000.0001)               ''
(PID.TID 0000.0001)     ;
(PID.TID 0000.0001) HeffFile = /* Initial effective ice thickness File */
(PID.TID 0000.0001)               ''
(PID.TID 0000.0001)     ;
(PID.TID 0000.0001) HsnowFile = /* Initial snow thickness File */
(PID.TID 0000.0001)               ''
(PID.TID 0000.0001)     ;
(PID.TID 0000.0001) uIceFile = /* Initial U-ice velocity File */
(PID.TID 0000.0001)               ''
(PID.TID 0000.0001)     ;
(PID.TID 0000.0001) vIceFile = /* Initial V-ice velocity File */
(PID.TID 0000.0001)               ''
(PID.TID 0000.0001)     ;
(PID.TID 0000.0001) SEAICEwriteState  = /* write sea ice state to file */
(PID.TID 0000.0001)                   F
(PID.TID 0000.0001)     ;
(PID.TID 0000.0001) SEAICE_monFreq  = /* monitor frequency */
(PID.TID 0000.0001)                 1.000000000000000E+00
(PID.TID 0000.0001)     ;
(PID.TID 0000.0001) SEAICE_dumpFreq   = /* dump frequency */
(PID.TID 0000.0001)                 4.320000000000000E+05
(PID.TID 0000.0001)     ;
(PID.TID 0000.0001) SEAICE_mon_stdio  = /* write monitor to std-outp */
(PID.TID 0000.0001)                   T
(PID.TID 0000.0001)     ;
(PID.TID 0000.0001) SEAICE_dump_mdsio = /* write snap-shot   using MDSIO */
(PID.TID 0000.0001)                   T
(PID.TID 0000.0001)     ;
(PID.TID 0000.0001) 
(PID.TID 0000.0001)    Seaice regularization numbers,   > START <
(PID.TID 0000.0001)    -----------------------------------------------
(PID.TID 0000.0001) SEAICE_deltaMin   = /* reduce singularities in Delta */
(PID.TID 0000.0001)                 1.000000000000000E-10
(PID.TID 0000.0001)     ;
(PID.TID 0000.0001) SEAICE_EPS        = /* small number */
(PID.TID 0000.0001)                 1.000000000000000E-10
(PID.TID 0000.0001)     ;
(PID.TID 0000.0001) SEAICE_EPS_SQ     = /* small number squared */
(PID.TID 0000.0001)                 1.000000000000000E-20
(PID.TID 0000.0001)     ;
(PID.TID 0000.0001) SEAICE_area_reg   = /* reduce derivative singularities */
(PID.TID 0000.0001)                 1.000000000000000E-05
(PID.TID 0000.0001)     ;
(PID.TID 0000.0001) SEAICE_hice_reg   = /* reduce derivative singularities */
(PID.TID 0000.0001)                 5.000000000000000E-02
(PID.TID 0000.0001)     ;
(PID.TID 0000.0001) SEAICE_area_floor = /* reduce derivative singularities */
(PID.TID 0000.0001)                 1.000000000000000E-05
(PID.TID 0000.0001)     ;
(PID.TID 0000.0001) 
(PID.TID 0000.0001) // =======================================================
(PID.TID 0000.0001) // Seaice configuration (SEAICE_PARM01) >>> END <<<
(PID.TID 0000.0001) // =======================================================
(PID.TID 0000.0001) 
(PID.TID 0000.0001) CTRL_INIT_FIXED: ivar=   8 = number of CTRL variables defined
(PID.TID 0000.0001) 
(PID.TID 0000.0001) ctrl-wet 1:    nvarlength =       239366
(PID.TID 0000.0001) ctrl-wet 2: surface wet C =          389
(PID.TID 0000.0001) ctrl-wet 3: surface wet W =          367
(PID.TID 0000.0001) ctrl-wet 4: surface wet S =          384
(PID.TID 0000.0001) ctrl-wet 5: 3D wet points =         5204
(PID.TID 0000.0001) ctrl-wet 6: no recs for ivar =     1           1
(PID.TID 0000.0001) ctrl-wet 6: no recs for ivar =     2           1
(PID.TID 0000.0001) ctrl-wet 6: no recs for ivar =     3           1
(PID.TID 0000.0001) ctrl-wet 6: no recs for ivar =     4           1
(PID.TID 0000.0001) ctrl-wet 6: no recs for ivar =     5           1
(PID.TID 0000.0001) ctrl-wet 6: no recs for ivar =     6           1
(PID.TID 0000.0001) ctrl-wet 6: no recs for ivar =     7           1
(PID.TID 0000.0001) ctrl-wet 6: no recs for ivar =     8           1
(PID.TID 0000.0001) ctrl-wet 6: no recs for ivar =     9           0
(PID.TID 0000.0001) ctrl-wet -------------------------------------------------
(PID.TID 0000.0001) ctrl-wet 13: global nvarlength for Nr =   15      239366
(PID.TID 0000.0001) ctrl-wet -------------------------------------------------
(PID.TID 0000.0001) ctrl-wet 14: global nWet C/S/W k=    1        4420        4232        4206
(PID.TID 0000.0001) ctrl-wet 14: global nWet C/S/W k=    2        4299        4112        4096
(PID.TID 0000.0001) ctrl-wet 14: global nWet C/S/W k=    3        4222        4038        4023
(PID.TID 0000.0001) ctrl-wet 14: global nWet C/S/W k=    4        4140        3960        3939
(PID.TID 0000.0001) ctrl-wet 14: global nWet C/S/W k=    5        4099        3919        3893
(PID.TID 0000.0001) ctrl-wet 14: global nWet C/S/W k=    6        4038        3856        3839
(PID.TID 0000.0001) ctrl-wet 14: global nWet C/S/W k=    7        3995        3814        3795
(PID.TID 0000.0001) ctrl-wet 14: global nWet C/S/W k=    8        3944        3756        3737
(PID.TID 0000.0001) ctrl-wet 14: global nWet C/S/W k=    9        3887        3699        3673
(PID.TID 0000.0001) ctrl-wet 14: global nWet C/S/W k=   10        3799        3605        3585
(PID.TID 0000.0001) ctrl-wet 14: global nWet C/S/W k=   11        3703        3502        3461
(PID.TID 0000.0001) ctrl-wet 14: global nWet C/S/W k=   12        3554        3338        3303
(PID.TID 0000.0001) ctrl-wet 14: global nWet C/S/W k=   13        3202        2910        2911
(PID.TID 0000.0001) ctrl-wet 14: global nWet C/S/W k=   14        2599        2296        2276
(PID.TID 0000.0001) ctrl-wet 14: global nWet C/S/W k=   15        1621        1368        1334
(PID.TID 0000.0001) ctrl-wet -------------------------------------------------
(PID.TID 0000.0001) ctrl_init_wet: no. of control variables:            8
(PID.TID 0000.0001) ctrl_init_wet: control vector length:          239366
(PID.TID 0000.0001) 
(PID.TID 0000.0001) // =======================================================
(PID.TID 0000.0001) // control vector configuration  >>> START <<<
(PID.TID 0000.0001) // =======================================================
(PID.TID 0000.0001) 
(PID.TID 0000.0001)  Total number of ocean points per tile:
(PID.TID 0000.0001)  --------------------------------------
(PID.TID 0000.0001)  sNx*sNy*Nr =     7680
(PID.TID 0000.0001) 
(PID.TID 0000.0001)  Number of ocean points per tile:
(PID.TID 0000.0001)  --------------------------------
(PID.TID 0000.0001)  bi,bj,#(c/s/w): 001 001    5204    5084    4791
(PID.TID 0000.0001)  bi,bj,#(c/s/w): 002 001    3115    2837    2945
(PID.TID 0000.0001)  bi,bj,#(c/s/w): 003 001    5620    5386    5384
(PID.TID 0000.0001)  bi,bj,#(c/s/w): 004 001    2470    2283    1983
(PID.TID 0000.0001)  bi,bj,#(c/s/w): 005 001    1306     952     953
(PID.TID 0000.0001)  bi,bj,#(c/s/w): 006 001    3476    3122    3082
(PID.TID 0000.0001)  bi,bj,#(c/s/w): 007 001    5619    5222    5403
(PID.TID 0000.0001)  bi,bj,#(c/s/w): 008 001    7482    7397    7429
(PID.TID 0000.0001)  bi,bj,#(c/s/w): 009 001    5900    5825    5686
(PID.TID 0000.0001)  bi,bj,#(c/s/w): 010 001    3678    3307    3317
(PID.TID 0000.0001)  bi,bj,#(c/s/w): 011 001    6008    5782    5796
(PID.TID 0000.0001)  bi,bj,#(c/s/w): 012 001    5644    5208    5302
(PID.TID 0000.0001) 
(PID.TID 0000.0001)  -> 3d control, genarr3d no.  1 is in use
(PID.TID 0000.0001)       file       = xx_theta
(PID.TID 0000.0001)       ncvartype  = Arr3D
(PID.TID 0000.0001)       index      =     1  (use this for pkg/grdchk)
(PID.TID 0000.0001)       ncvarindex =     1
(PID.TID 0000.0001)       weight     = ones_64b.bin
(PID.TID 0000.0001) 
(PID.TID 0000.0001)  -> 3d control, genarr3d no.  2 is in use
(PID.TID 0000.0001)       file       = xx_salt
(PID.TID 0000.0001)       ncvartype  = Arr3D
(PID.TID 0000.0001)       index      =     2  (use this for pkg/grdchk)
(PID.TID 0000.0001)       ncvarindex =     2
(PID.TID 0000.0001)       weight     = ones_64b.bin
(PID.TID 0000.0001) 
(PID.TID 0000.0001)  -> 3d control, genarr3d no.  3 is in use
(PID.TID 0000.0001)       file       = xx_ptr1
(PID.TID 0000.0001)       ncvartype  = Arr3D
(PID.TID 0000.0001)       index      =     3  (use this for pkg/grdchk)
(PID.TID 0000.0001)       ncvarindex =     3
(PID.TID 0000.0001)       weight     = ones_64b.bin
(PID.TID 0000.0001) 
(PID.TID 0000.0001)  -> 3d control, genarr3d no.  4 is in use
(PID.TID 0000.0001)       file       = xx_diffkr
(PID.TID 0000.0001)       ncvartype  = Arr3D
(PID.TID 0000.0001)       index      =     4  (use this for pkg/grdchk)
(PID.TID 0000.0001)       ncvarindex =     4
(PID.TID 0000.0001)       weight     = ones_64b.bin
(PID.TID 0000.0001) 
(PID.TID 0000.0001)  -> time variable 2d control, gentim2d no.  1 is in use
(PID.TID 0000.0001)       file       = xx_qnet
(PID.TID 0000.0001)       ncvartype  = Tim2D
(PID.TID 0000.0001)       index      =     5  (use this for pkg/grdchk)
(PID.TID 0000.0001)       ncvarindex =     1
(PID.TID 0000.0001)       weight     = ones_64b.bin
(PID.TID 0000.0001)       period     =  00000000 000000
(PID.TID 0000.0001) 
(PID.TID 0000.0001)  -> time variable 2d control, gentim2d no.  2 is in use
(PID.TID 0000.0001)       file       = xx_empmr
(PID.TID 0000.0001)       ncvartype  = Tim2D
(PID.TID 0000.0001)       index      =     6  (use this for pkg/grdchk)
(PID.TID 0000.0001)       ncvarindex =     2
(PID.TID 0000.0001)       weight     = ones_64b.bin
(PID.TID 0000.0001)       period     =  00000000 000000
(PID.TID 0000.0001) 
(PID.TID 0000.0001)  -> time variable 2d control, gentim2d no.  3 is in use
(PID.TID 0000.0001)       file       = xx_fu
(PID.TID 0000.0001)       ncvartype  = Tim2D
(PID.TID 0000.0001)       index      =     7  (use this for pkg/grdchk)
(PID.TID 0000.0001)       ncvarindex =     3
(PID.TID 0000.0001)       weight     = ones_64b.bin
(PID.TID 0000.0001)       period     =  00000000 000000
(PID.TID 0000.0001) 
(PID.TID 0000.0001)  -> time variable 2d control, gentim2d no.  4 is in use
(PID.TID 0000.0001)       file       = xx_fv
(PID.TID 0000.0001)       ncvartype  = Tim2D
(PID.TID 0000.0001)       index      =     8  (use this for pkg/grdchk)
(PID.TID 0000.0001)       ncvarindex =     4
(PID.TID 0000.0001)       weight     = ones_64b.bin
(PID.TID 0000.0001)       period     =  00000000 000000
(PID.TID 0000.0001) 
(PID.TID 0000.0001) // =======================================================
(PID.TID 0000.0001) // control vector configuration  >>> END <<<
(PID.TID 0000.0001) // =======================================================
(PID.TID 0000.0001) 
(PID.TID 0000.0001) INI_GLOBAL_DOMAIN: Found  19 CS-corner Pts in the domain
(PID.TID 0000.0001) %MON fCori_max                    =   1.4574827780704E-04
(PID.TID 0000.0001) %MON fCori_min                    =  -1.4574827780704E-04
(PID.TID 0000.0001) %MON fCori_mean                   =   3.3881317890172E-21
(PID.TID 0000.0001) %MON fCori_sd                     =   8.4202189509968E-05
(PID.TID 0000.0001) %MON fCoriG_max                   =   1.4584247033981E-04
(PID.TID 0000.0001) %MON fCoriG_min                   =  -1.4584247033981E-04
(PID.TID 0000.0001) %MON fCoriG_mean                  =  -1.6940658945086E-20
(PID.TID 0000.0001) %MON fCoriG_sd                    =   8.4202189509968E-05
(PID.TID 0000.0001) %MON fCoriCos_max                 =   1.4580166994612E-04
(PID.TID 0000.0001) %MON fCoriCos_min                 =   5.2407700865903E-06
(PID.TID 0000.0001) %MON fCoriCos_mean                =   1.1514045869113E-04
(PID.TID 0000.0001) %MON fCoriCos_sd                  =   3.0375849106513E-05
(PID.TID 0000.0001) INI_CG2D: CG2D normalisation factor =  1.9156564154949553E-04
(PID.TID 0000.0001) 
(PID.TID 0000.0001) // =======================================================
(PID.TID 0000.0001) // Model configuration
(PID.TID 0000.0001) // =======================================================
(PID.TID 0000.0001) //
(PID.TID 0000.0001) // "Physical" paramters ( PARM01 in namelist )
(PID.TID 0000.0001) //
(PID.TID 0000.0001) buoyancyRelation = /* Type of relation to get Buoyancy */
(PID.TID 0000.0001)               'OCEANIC'
(PID.TID 0000.0001)     ;
(PID.TID 0000.0001) fluidIsAir   =  /* fluid major constituent is Air */
(PID.TID 0000.0001)                   F
(PID.TID 0000.0001)     ;
(PID.TID 0000.0001) fluidIsWater =  /* fluid major constituent is Water */
(PID.TID 0000.0001)                   T
(PID.TID 0000.0001)     ;
(PID.TID 0000.0001) usingPCoords =  /* use p (or p*) vertical coordinate */
(PID.TID 0000.0001)                   F
(PID.TID 0000.0001)     ;
(PID.TID 0000.0001) usingZCoords =  /* use z (or z*) vertical coordinate */
(PID.TID 0000.0001)                   T
(PID.TID 0000.0001)     ;
(PID.TID 0000.0001) tRef =   /* Reference temperature profile ( oC or K ) */
(PID.TID 0000.0001)    15 @  2.000000000000000E+01              /* K =  1: 15 */
(PID.TID 0000.0001)     ;
(PID.TID 0000.0001) sRef =   /* Reference salinity profile ( g/kg ) */
(PID.TID 0000.0001)    15 @  3.500000000000000E+01              /* K =  1: 15 */
(PID.TID 0000.0001)     ;
(PID.TID 0000.0001) rhoRef =   /* Density vertical profile from (Ref,sRef)( kg/m^3 ) */
(PID.TID 0000.0001)                 1.024872626184147E+03,      /* K =  1 */
(PID.TID 0000.0001)                 1.025135462285008E+03,      /* K =  2 */
(PID.TID 0000.0001)                 1.025507198938228E+03,      /* K =  3 */
(PID.TID 0000.0001)                 1.026030780760464E+03,      /* K =  4 */
(PID.TID 0000.0001)                 1.026748377776259E+03,      /* K =  5 */
(PID.TID 0000.0001)                 1.027679406285166E+03,      /* K =  6 */
(PID.TID 0000.0001)                 1.028820735595355E+03,      /* K =  7 */
(PID.TID 0000.0001)                 1.030168558073105E+03,      /* K =  8 */
(PID.TID 0000.0001)                 1.031718419899614E+03,      /* K =  9 */
(PID.TID 0000.0001)                 1.033465256541184E+03,      /* K = 10 */
(PID.TID 0000.0001)                 1.035403432414885E+03,      /* K = 11 */
(PID.TID 0000.0001)                 1.037526784183520E+03,      /* K = 12 */
(PID.TID 0000.0001)                 1.039828667078104E+03,      /* K = 13 */
(PID.TID 0000.0001)                 1.042302003623418E+03,      /* K = 14 */
(PID.TID 0000.0001)                 1.044939334132512E+03       /* K = 15 */
(PID.TID 0000.0001)     ;
(PID.TID 0000.0001) dBdrRef = /* Vertical grad. of reference buoyancy [(m/s/r)^2] */
(PID.TID 0000.0001)    15 @  0.000000000000000E+00              /* K =  1: 15 */
(PID.TID 0000.0001)     ;
(PID.TID 0000.0001) useStrainTensionVisc= /* Use StrainTension Form of Viscous Operator */
(PID.TID 0000.0001)                   F
(PID.TID 0000.0001)     ;
(PID.TID 0000.0001) useVariableVisc = /* Use variable horizontal viscosity */
(PID.TID 0000.0001)                   F
(PID.TID 0000.0001)     ;
(PID.TID 0000.0001) useHarmonicVisc = /* Use harmonic horizontal viscosity */
(PID.TID 0000.0001)                   T
(PID.TID 0000.0001)     ;
(PID.TID 0000.0001) useBiharmonicVisc= /* Use biharmonic horiz.  viscosity */
(PID.TID 0000.0001)                   F
(PID.TID 0000.0001)     ;
(PID.TID 0000.0001) useSmag3D = /* Use isotropic 3-D Smagorinsky viscosity */
(PID.TID 0000.0001)                   F
(PID.TID 0000.0001)     ;
(PID.TID 0000.0001) viscAh  =   /* Lateral harmonic viscosity ( m^2/s ) */
(PID.TID 0000.0001)                 3.000000000000000E+05
(PID.TID 0000.0001)     ;
(PID.TID 0000.0001) viscA4  =   /* Lateral biharmonic viscosity ( m^4/s ) */
(PID.TID 0000.0001)                 0.000000000000000E+00
(PID.TID 0000.0001)     ;
(PID.TID 0000.0001) no_slip_sides =  /* Viscous BCs: No-slip sides */
(PID.TID 0000.0001)                   T
(PID.TID 0000.0001)     ;
(PID.TID 0000.0001) sideDragFactor = /* side-drag scaling factor (non-dim) */
(PID.TID 0000.0001)                 2.000000000000000E+00
(PID.TID 0000.0001)     ;
(PID.TID 0000.0001) viscArNr = /* vertical profile of vertical viscosity ( m^2/s )*/
(PID.TID 0000.0001)    15 @  1.000000000000000E-03              /* K =  1: 15 */
(PID.TID 0000.0001)     ;
(PID.TID 0000.0001) no_slip_bottom =  /* Viscous BCs: No-slip bottom */
(PID.TID 0000.0001)                   T
(PID.TID 0000.0001)     ;
(PID.TID 0000.0001) bottomVisc_pCell = /* Partial-cell in bottom Visc. BC */
(PID.TID 0000.0001)                   F
(PID.TID 0000.0001)     ;
(PID.TID 0000.0001) bottomDragLinear = /* linear bottom-drag coefficient ( m/s ) */
(PID.TID 0000.0001)                 0.000000000000000E+00
(PID.TID 0000.0001)     ;
(PID.TID 0000.0001) bottomDragQuadratic = /* quadratic bottom-drag coefficient (-) */
(PID.TID 0000.0001)                 0.000000000000000E+00
(PID.TID 0000.0001)     ;
(PID.TID 0000.0001) selectBotDragQuadr = /* select quadratic bottom drag options */
(PID.TID 0000.0001)                      -1
(PID.TID 0000.0001)     ;
(PID.TID 0000.0001) diffKhT =   /* Laplacian diffusion of heat laterally ( m^2/s ) */
(PID.TID 0000.0001)                 0.000000000000000E+00
(PID.TID 0000.0001)     ;
(PID.TID 0000.0001) diffK4T =   /* Biharmonic diffusion of heat laterally ( m^4/s ) */
(PID.TID 0000.0001)                 0.000000000000000E+00
(PID.TID 0000.0001)     ;
(PID.TID 0000.0001) diffKhS =   /* Laplacian diffusion of salt laterally ( m^2/s ) */
(PID.TID 0000.0001)                 0.000000000000000E+00
(PID.TID 0000.0001)     ;
(PID.TID 0000.0001) diffK4S =   /* Biharmonic diffusion of salt laterally ( m^4/s ) */
(PID.TID 0000.0001)                 0.000000000000000E+00
(PID.TID 0000.0001)     ;
(PID.TID 0000.0001) diffKrNrT = /* vertical profile of vertical diffusion of Temp ( m^2/s )*/
(PID.TID 0000.0001)    15 @  0.000000000000000E+00              /* K =  1: 15 */
(PID.TID 0000.0001)     ;
(PID.TID 0000.0001) diffKrNrS = /* vertical profile of vertical diffusion of Salt ( m^2/s )*/
(PID.TID 0000.0001)    15 @  3.000000000000000E-05              /* K =  1: 15 */
(PID.TID 0000.0001)     ;
(PID.TID 0000.0001) diffKrBL79surf = /* Surface diffusion for Bryan and Lewis 79 ( m^2/s ) */
(PID.TID 0000.0001)                 0.000000000000000E+00
(PID.TID 0000.0001)     ;
(PID.TID 0000.0001) diffKrBL79deep = /* Deep diffusion for Bryan and Lewis 1979 ( m^2/s ) */
(PID.TID 0000.0001)                 0.000000000000000E+00
(PID.TID 0000.0001)     ;
(PID.TID 0000.0001) diffKrBL79scl = /* Depth scale for Bryan and Lewis 1979 ( m ) */
(PID.TID 0000.0001)                 2.000000000000000E+02
(PID.TID 0000.0001)     ;
(PID.TID 0000.0001) diffKrBL79Ho = /* Turning depth for Bryan and Lewis 1979 ( m ) */
(PID.TID 0000.0001)                -2.000000000000000E+03
(PID.TID 0000.0001)     ;
(PID.TID 0000.0001) ivdc_kappa = /* Implicit Vertical Diffusivity for Convection ( m^2/s) */
(PID.TID 0000.0001)                 1.000000000000000E+01
(PID.TID 0000.0001)     ;
(PID.TID 0000.0001) hMixCriteria=  /* Criteria for mixed-layer diagnostic */
(PID.TID 0000.0001)                -8.000000000000000E-01
(PID.TID 0000.0001)     ;
(PID.TID 0000.0001) dRhoSmall =  /* Parameter for mixed-layer diagnostic */
(PID.TID 0000.0001)                 1.000000000000000E-06
(PID.TID 0000.0001)     ;
(PID.TID 0000.0001) hMixSmooth=  /* Smoothing parameter for mixed-layer diagnostic */
(PID.TID 0000.0001)                 0.000000000000000E+00
(PID.TID 0000.0001)     ;
(PID.TID 0000.0001) eosType =  /* Type of Equation of State */
(PID.TID 0000.0001)               'JMD95Z'
(PID.TID 0000.0001)     ;
(PID.TID 0000.0001) eosRefP0 = /* Reference atmospheric pressure for EOS ( Pa ) */
(PID.TID 0000.0001)                 1.013250000000000E+05
(PID.TID 0000.0001)     ;
(PID.TID 0000.0001) selectP_inEOS_Zc = /* select pressure to use in EOS (0,1,2,3) */
(PID.TID 0000.0001)                       0
(PID.TID 0000.0001)     0= -g*rhoConst*z ; 1= pRef (from tRef,sRef); 2= Hyd P ; 3= Hyd+NH P
(PID.TID 0000.0001)     ;
(PID.TID 0000.0001) surf_pRef = /* Surface reference pressure ( Pa ) */
(PID.TID 0000.0001)                 1.013250000000000E+05
(PID.TID 0000.0001)     ;
(PID.TID 0000.0001) HeatCapacity_Cp =  /* Specific heat capacity ( J/kg/K ) */
(PID.TID 0000.0001)                 3.994000000000000E+03
(PID.TID 0000.0001)     ;
(PID.TID 0000.0001) celsius2K = /* 0 degree Celsius converted to Kelvin ( K ) */
(PID.TID 0000.0001)                 2.731500000000000E+02
(PID.TID 0000.0001)     ;
(PID.TID 0000.0001) rhoConst  = /* Reference density (Boussinesq)  ( kg/m^3 ) */
(PID.TID 0000.0001)                 1.035000000000000E+03
(PID.TID 0000.0001)     ;
(PID.TID 0000.0001) rhoFacC = /* normalized Reference density @ cell-Center (-) */
(PID.TID 0000.0001)    15 @  1.000000000000000E+00              /* K =  1: 15 */
(PID.TID 0000.0001)     ;
(PID.TID 0000.0001) rhoFacF = /* normalized Reference density @ W-Interface (-) */
(PID.TID 0000.0001)    16 @  1.000000000000000E+00              /* K =  1: 16 */
(PID.TID 0000.0001)     ;
(PID.TID 0000.0001) rhoConstFresh = /* Fresh-water reference density ( kg/m^3 ) */
(PID.TID 0000.0001)                 1.000000000000000E+03
(PID.TID 0000.0001)     ;
(PID.TID 0000.0001) gravity =   /* Gravitational acceleration ( m/s^2 ) */
(PID.TID 0000.0001)                 9.810000000000000E+00
(PID.TID 0000.0001)     ;
(PID.TID 0000.0001) gBaro =   /* Barotropic gravity ( m/s^2 ) */
(PID.TID 0000.0001)                 9.810000000000000E+00
(PID.TID 0000.0001)     ;
(PID.TID 0000.0001) gravFacC = /* gravity factor (vs surf.) @ cell-Center (-) */
(PID.TID 0000.0001)    15 @  1.000000000000000E+00              /* K =  1: 15 */
(PID.TID 0000.0001)     ;
(PID.TID 0000.0001) gravFacF = /* gravity factor (vs surf.) @ W-Interface (-) */
(PID.TID 0000.0001)    16 @  1.000000000000000E+00              /* K =  1: 16 */
(PID.TID 0000.0001)     ;
(PID.TID 0000.0001) rotationPeriod =   /* Rotation Period ( s ) */
(PID.TID 0000.0001)                 8.616400000000000E+04
(PID.TID 0000.0001)     ;
(PID.TID 0000.0001) omega =   /* Angular velocity ( rad/s ) */
(PID.TID 0000.0001)                 7.292123516990375E-05
(PID.TID 0000.0001)     ;
(PID.TID 0000.0001) f0 =   /* Reference coriolis parameter ( 1/s ) */
(PID.TID 0000.0001)                 1.000000000000000E-04
(PID.TID 0000.0001)     ;
(PID.TID 0000.0001) beta =   /* Beta ( 1/(m.s) ) */
(PID.TID 0000.0001)                 9.999999999999999E-12
(PID.TID 0000.0001)     ;
(PID.TID 0000.0001) fPrime =   /* Second coriolis parameter ( 1/s ) */
(PID.TID 0000.0001)                 0.000000000000000E+00
(PID.TID 0000.0001)     ;
(PID.TID 0000.0001) rigidLid =   /* Rigid lid on/off flag */
(PID.TID 0000.0001)                   F
(PID.TID 0000.0001)     ;
(PID.TID 0000.0001) implicitFreeSurface =   /* Implicit free surface on/off flag */
(PID.TID 0000.0001)                   T
(PID.TID 0000.0001)     ;
(PID.TID 0000.0001) freeSurfFac =   /* Implicit free surface factor */
(PID.TID 0000.0001)                 1.000000000000000E+00
(PID.TID 0000.0001)     ;
(PID.TID 0000.0001) implicSurfPress =  /* Surface Pressure implicit factor (0-1) */
(PID.TID 0000.0001)                 1.000000000000000E+00
(PID.TID 0000.0001)     ;
(PID.TID 0000.0001) implicDiv2DFlow =  /* Barot. Flow Div. implicit factor (0-1) */
(PID.TID 0000.0001)                 1.000000000000000E+00
(PID.TID 0000.0001)     ;
(PID.TID 0000.0001) uniformLin_PhiSurf = /* use uniform Bo_surf on/off flag */
(PID.TID 0000.0001)                   T
(PID.TID 0000.0001)     ;
(PID.TID 0000.0001) uniformFreeSurfLev = /* free-surface level-index is uniform */
(PID.TID 0000.0001)                   T
(PID.TID 0000.0001)     ;
(PID.TID 0000.0001) sIceLoadFac =  /* scale factor for sIceLoad (0-1) */
(PID.TID 0000.0001)                 1.000000000000000E+00
(PID.TID 0000.0001)     ;
(PID.TID 0000.0001) hFacMin =   /* minimum partial cell factor (hFac) */
(PID.TID 0000.0001)                 1.000000000000000E-01
(PID.TID 0000.0001)     ;
(PID.TID 0000.0001) hFacMinDr = /* minimum partial cell thickness ( m) */
(PID.TID 0000.0001)                 2.000000000000000E+01
(PID.TID 0000.0001)     ;
(PID.TID 0000.0001) exactConserv = /* Update etaN from continuity Eq on/off flag */
(PID.TID 0000.0001)                   T
(PID.TID 0000.0001)     ;
(PID.TID 0000.0001) linFSConserveTr = /* Tracer correction for Lin Free Surface on/off flag */
(PID.TID 0000.0001)                   F
(PID.TID 0000.0001)     ;
(PID.TID 0000.0001) nonlinFreeSurf = /* Non-linear Free Surf. options (-1,0,1,2,3)*/
(PID.TID 0000.0001)                       2
(PID.TID 0000.0001)      -1,0= Off ; 1,2,3= On, 2=+rescale gU,gV, 3=+update cg2d solv.
(PID.TID 0000.0001)     ;
(PID.TID 0000.0001) hFacInf =   /* lower threshold for hFac (nonlinFreeSurf only)*/
(PID.TID 0000.0001)                 2.000000000000000E-01
(PID.TID 0000.0001)     ;
(PID.TID 0000.0001) hFacSup =   /* upper threshold for hFac (nonlinFreeSurf only)*/
(PID.TID 0000.0001)                 2.000000000000000E+00
(PID.TID 0000.0001)     ;
(PID.TID 0000.0001) select_rStar = /* r* Vertical coord. options (=0 r coord.; >0 uses r*)*/
(PID.TID 0000.0001)                       1
(PID.TID 0000.0001)     ;
(PID.TID 0000.0001) useRealFreshWaterFlux = /* Real Fresh Water Flux on/off flag*/
(PID.TID 0000.0001)                   T
(PID.TID 0000.0001)     ;
(PID.TID 0000.0001) temp_EvPrRn = /* Temp. of Evap/Prec/R (UNSET=use local T)(oC)*/
(PID.TID 0000.0001)                 1.234567000000000E+05
(PID.TID 0000.0001)     ;
(PID.TID 0000.0001) salt_EvPrRn = /* Salin. of Evap/Prec/R (UNSET=use local S)(g/kg)*/
(PID.TID 0000.0001)                 0.000000000000000E+00
(PID.TID 0000.0001)     ;
(PID.TID 0000.0001) selectAddFluid = /* option for mass source/sink of fluid (=0: off) */
(PID.TID 0000.0001)                       0
(PID.TID 0000.0001)     ;
(PID.TID 0000.0001) temp_addMass = /* Temp. of addMass array (UNSET=use local T)(oC)*/
(PID.TID 0000.0001)                 1.234567000000000E+05
(PID.TID 0000.0001)     ;
(PID.TID 0000.0001) salt_addMass = /* Salin. of addMass array (UNSET=use local S)(g/kg)*/
(PID.TID 0000.0001)                 0.000000000000000E+00
(PID.TID 0000.0001)     ;
(PID.TID 0000.0001) use3Dsolver = /* use 3-D pressure solver on/off flag */
(PID.TID 0000.0001)                   F
(PID.TID 0000.0001)     ;
(PID.TID 0000.0001) nonHydrostatic =  /* Non-Hydrostatic on/off flag */
(PID.TID 0000.0001)                   F
(PID.TID 0000.0001)     ;
(PID.TID 0000.0001) nh_Am2 = /* Non-Hydrostatic terms scaling factor */
(PID.TID 0000.0001)                 1.000000000000000E+00
(PID.TID 0000.0001)     ;
(PID.TID 0000.0001) implicitNHPress = /* Non-Hyd Pressure implicit factor (0-1)*/
(PID.TID 0000.0001)                 1.000000000000000E+00
(PID.TID 0000.0001)     ;
(PID.TID 0000.0001) selectNHfreeSurf = /* Non-Hyd (free-)Surface option */
(PID.TID 0000.0001)                       0
(PID.TID 0000.0001)     ;
(PID.TID 0000.0001) quasiHydrostatic = /* Quasi-Hydrostatic on/off flag */
(PID.TID 0000.0001)                   F
(PID.TID 0000.0001)     ;
(PID.TID 0000.0001) calc_wVelocity = /* vertical velocity calculation on/off flag */
(PID.TID 0000.0001)                   T
(PID.TID 0000.0001)     ;
(PID.TID 0000.0001) momStepping =  /* Momentum equation on/off flag */
(PID.TID 0000.0001)                   T
(PID.TID 0000.0001)     ;
(PID.TID 0000.0001) vectorInvariantMomentum= /* Vector-Invariant Momentum on/off */
(PID.TID 0000.0001)                   T
(PID.TID 0000.0001)     ;
(PID.TID 0000.0001) momAdvection =  /* Momentum advection on/off flag */
(PID.TID 0000.0001)                   T
(PID.TID 0000.0001)     ;
(PID.TID 0000.0001) momViscosity =  /* Momentum viscosity on/off flag */
(PID.TID 0000.0001)                   T
(PID.TID 0000.0001)     ;
(PID.TID 0000.0001) momImplVertAdv= /* Momentum implicit vert. advection on/off*/
(PID.TID 0000.0001)                   F
(PID.TID 0000.0001)     ;
(PID.TID 0000.0001) implicitViscosity = /* Implicit viscosity on/off flag */
(PID.TID 0000.0001)                   F
(PID.TID 0000.0001)     ;
(PID.TID 0000.0001) selectImplicitDrag= /* Implicit bot Drag options (0,1,2)*/
(PID.TID 0000.0001)                       0
(PID.TID 0000.0001)     0= Expl. ; 1= Impl. on provis. Vel ; 2= Fully Impl (with surf.P)
(PID.TID 0000.0001)     ;
(PID.TID 0000.0001) useNHMTerms = /* Non-Hydrostatic Metric-Terms on/off */
(PID.TID 0000.0001)                   F
(PID.TID 0000.0001)     ;
(PID.TID 0000.0001) useCoriolis =  /* Coriolis on/off flag */
(PID.TID 0000.0001)                   T
(PID.TID 0000.0001)     ;
(PID.TID 0000.0001) useCDscheme =  /* CD scheme on/off flag */
(PID.TID 0000.0001)                   F
(PID.TID 0000.0001)     ;
(PID.TID 0000.0001) selectCoriMap = /* Coriolis Map options (0,1,2,3)*/
(PID.TID 0000.0001)                       2
(PID.TID 0000.0001)     0= f-Plane ; 1= Beta-Plane ; 2= Spherical ; 3= read from file
(PID.TID 0000.0001)     ;
(PID.TID 0000.0001) select3dCoriScheme= /* Scheme selector for 3-D Coriolis-Term */
(PID.TID 0000.0001)                       0
(PID.TID 0000.0001)    = 0 : Off (ignore 3-D Coriolis Terms in Omega.Cos(Lat) )
(PID.TID 0000.0001)    = 1 : original discretization ; = 2 : using averaged Transport
(PID.TID 0000.0001)    = 3 : same as 2 with hFac in gW_Cor
(PID.TID 0000.0001)     ;
(PID.TID 0000.0001) selectCoriScheme= /* Scheme selector for Coriolis-Term */
(PID.TID 0000.0001)                       0
(PID.TID 0000.0001)    = 0 : original discretization (simple averaging, no hFac)
(PID.TID 0000.0001)    = 1 : Wet-point averaging (Jamar & Ozer 1986)
(PID.TID 0000.0001)    = 2 : hFac weighted average (Angular Mom. conserving)
(PID.TID 0000.0001)    = 3 : energy conserving scheme using hFac weighted average
(PID.TID 0000.0001)     ;
(PID.TID 0000.0001) useAbsVorticity= /* V.I Works with f+zeta in Coriolis */
(PID.TID 0000.0001)                   F
(PID.TID 0000.0001)     ;
(PID.TID 0000.0001) selectVortScheme= /* V.I Scheme selector for Vorticity-Term */
(PID.TID 0000.0001)                       1
(PID.TID 0000.0001)    = 0 : enstrophy (Shallow-Water Eq.) conserving scheme by Sadourny, JAS 75
(PID.TID 0000.0001)    = 1 : same as 0 with modified hFac
(PID.TID 0000.0001)    = 2 : energy conserving scheme (used by Sadourny in JAS 75 paper)
(PID.TID 0000.0001)    = 3 : energy (general) and enstrophy (2D, nonDiv.) conserving scheme
(PID.TID 0000.0001)          from Sadourny (Burridge & Haseler, ECMWF Rep.4, 1977)
(PID.TID 0000.0001)    = 4 : shift 1/hFac from Vorticity to gU,gV tend. (Ang.Mom. conserving)
(PID.TID 0000.0001)     ;
(PID.TID 0000.0001) useJamartMomAdv= /* V.I Non-linear terms Jamart flag */
(PID.TID 0000.0001)                   F
(PID.TID 0000.0001)     ;
(PID.TID 0000.0001) upwindVorticity= /* V.I Upwind bias vorticity flag */
(PID.TID 0000.0001)                   F
(PID.TID 0000.0001)     ;
(PID.TID 0000.0001) highOrderVorticity= /* V.I High order vort. advect. flag */
(PID.TID 0000.0001)                   F
(PID.TID 0000.0001)     ;
(PID.TID 0000.0001) upwindShear= /* V.I Upwind vertical Shear advection flag */
(PID.TID 0000.0001)                   F
(PID.TID 0000.0001)     ;
(PID.TID 0000.0001) selectKEscheme= /* V.I Kinetic Energy scheme selector */
(PID.TID 0000.0001)                       0
(PID.TID 0000.0001)     ;
(PID.TID 0000.0001) momForcing =  /* Momentum forcing on/off flag */
(PID.TID 0000.0001)                   T
(PID.TID 0000.0001)     ;
(PID.TID 0000.0001) momTidalForcing = /* Momentum Tidal forcing on/off flag */
(PID.TID 0000.0001)                   T
(PID.TID 0000.0001)     ;
(PID.TID 0000.0001) momPressureForcing =  /* Momentum pressure term on/off flag */
(PID.TID 0000.0001)                   T
(PID.TID 0000.0001)     ;
(PID.TID 0000.0001) implicitIntGravWave= /* Implicit Internal Gravity Wave flag */
(PID.TID 0000.0001)                   F
(PID.TID 0000.0001)     ;
(PID.TID 0000.0001) staggerTimeStep =    /* Stagger time stepping on/off flag */
(PID.TID 0000.0001)                   T
(PID.TID 0000.0001)     ;
(PID.TID 0000.0001) doResetHFactors = /* reset thickness factors @ each time-step */
(PID.TID 0000.0001)                   T
(PID.TID 0000.0001)     ;
(PID.TID 0000.0001) multiDimAdvection =  /* enable/disable Multi-Dim Advection */
(PID.TID 0000.0001)                   T
(PID.TID 0000.0001)     ;
(PID.TID 0000.0001) useMultiDimAdvec =   /* Multi-Dim Advection is/is-not used */
(PID.TID 0000.0001)                   T
(PID.TID 0000.0001)     ;
(PID.TID 0000.0001) implicitDiffusion = /* Implicit Diffusion on/off flag */
(PID.TID 0000.0001)                   T
(PID.TID 0000.0001)     ;
(PID.TID 0000.0001) tempStepping =  /* Temperature equation on/off flag */
(PID.TID 0000.0001)                   T
(PID.TID 0000.0001)     ;
(PID.TID 0000.0001) tempAdvection = /* Temperature advection on/off flag */
(PID.TID 0000.0001)                   T
(PID.TID 0000.0001)     ;
(PID.TID 0000.0001) tempImplVertAdv = /* Temp. implicit vert. advection on/off */
(PID.TID 0000.0001)                   F
(PID.TID 0000.0001)     ;
(PID.TID 0000.0001) tempForcing  =  /* Temperature forcing on/off flag */
(PID.TID 0000.0001)                   T
(PID.TID 0000.0001)     ;
(PID.TID 0000.0001) selectPenetratingSW = /* short wave penetration selector */
(PID.TID 0000.0001)                       1
(PID.TID 0000.0001)     ;
(PID.TID 0000.0001) balanceQnet  =  /* balance net heat-flux on/off flag */
(PID.TID 0000.0001)                   F
(PID.TID 0000.0001)     ;
(PID.TID 0000.0001) doThetaClimRelax = /* apply SST relaxation on/off flag */
(PID.TID 0000.0001)                   F
(PID.TID 0000.0001)     ;
(PID.TID 0000.0001) balanceThetaClimRelax= /* balance SST relaxation on/off flag */
(PID.TID 0000.0001)                   F
(PID.TID 0000.0001)     ;
(PID.TID 0000.0001) tempIsActiveTr = /* Temp. is a dynamically Active Tracer */
(PID.TID 0000.0001)                   T
(PID.TID 0000.0001)     ;
(PID.TID 0000.0001) saltStepping =  /* Salinity equation on/off flag */
(PID.TID 0000.0001)                   T
(PID.TID 0000.0001)     ;
(PID.TID 0000.0001) saltAdvection = /* Salinity advection on/off flag */
(PID.TID 0000.0001)                   T
(PID.TID 0000.0001)     ;
(PID.TID 0000.0001) saltImplVertAdv = /* Sali. implicit vert. advection on/off */
(PID.TID 0000.0001)                   F
(PID.TID 0000.0001)     ;
(PID.TID 0000.0001) saltForcing  =  /* Salinity forcing on/off flag */
(PID.TID 0000.0001)                   T
(PID.TID 0000.0001)     ;
(PID.TID 0000.0001) selectBalanceEmPmR = /* balancing glob.mean EmPmR selector */
(PID.TID 0000.0001)                       0
(PID.TID 0000.0001)     ;
(PID.TID 0000.0001) doSaltClimRelax = /* apply SSS relaxation on/off flag */
(PID.TID 0000.0001)                   F
(PID.TID 0000.0001)     ;
(PID.TID 0000.0001) balanceSaltClimRelax= /* balance SSS relaxation on/off flag */
(PID.TID 0000.0001)                   F
(PID.TID 0000.0001)     ;
(PID.TID 0000.0001) saltIsActiveTr = /* Salt  is a dynamically Active Tracer */
(PID.TID 0000.0001)                   T
(PID.TID 0000.0001)     ;
(PID.TID 0000.0001)  readBinaryPrec = /* Precision used for reading binary files */
(PID.TID 0000.0001)                      64
(PID.TID 0000.0001)     ;
(PID.TID 0000.0001) writeBinaryPrec = /* Precision used for writing binary files */
(PID.TID 0000.0001)                      32
(PID.TID 0000.0001)     ;
(PID.TID 0000.0001) balancePrintMean = /* print means for balancing fluxes */
(PID.TID 0000.0001)                   F
(PID.TID 0000.0001)     ;
(PID.TID 0000.0001)  rwSuffixType =   /* select format of mds file suffix */
(PID.TID 0000.0001)                       0
(PID.TID 0000.0001)    = 0 : myIter (I10.10) ;   = 1 : 100*myTime (100th sec) ;
(PID.TID 0000.0001)    = 2 : myTime (seconds);   = 3 : myTime/360 (10th of hr);
(PID.TID 0000.0001)    = 4 : myTime/3600 (hours)
(PID.TID 0000.0001)     ;
(PID.TID 0000.0001)  globalFiles = /* write "global" (=not per tile) files */
(PID.TID 0000.0001)                   F
(PID.TID 0000.0001)     ;
(PID.TID 0000.0001)  useSingleCpuIO = /* only master MPI process does I/O */
(PID.TID 0000.0001)                   F
(PID.TID 0000.0001)     ;
(PID.TID 0000.0001)  useSingleCpuInput = /* only master process reads input */
(PID.TID 0000.0001)                   F
(PID.TID 0000.0001)     ;
(PID.TID 0000.0001) /* debLev[*]  : level of debug & auxiliary message printing */
(PID.TID 0000.0001) debLevZero =  0 ; /* level of disabled aux. msg printing */
(PID.TID 0000.0001)    debLevA =  1 ; /* level of minimum  aux. msg printing */
(PID.TID 0000.0001)    debLevB =  2 ; /* level of low aux. print (report read-file opening)*/
(PID.TID 0000.0001)    debLevC =  3 ; /* level of moderate debug prt (most pkgs debug msg) */
(PID.TID 0000.0001)    debLevD =  4 ; /* level of enhanced debug prt (add DEBUG_STATS prt) */
(PID.TID 0000.0001)    debLevE =  5 ; /* level of extensive debug printing */
(PID.TID 0000.0001) debugLevel =  /* select debug printing level */
(PID.TID 0000.0001)                       1
(PID.TID 0000.0001)     ;
(PID.TID 0000.0001)  plotLevel =  /* select PLOT_FIELD printing level */
(PID.TID 0000.0001)                       1
(PID.TID 0000.0001)     ;
(PID.TID 0000.0001) //
(PID.TID 0000.0001) // Elliptic solver(s) paramters ( PARM02 in namelist )
(PID.TID 0000.0001) //
(PID.TID 0000.0001) cg2dMaxIters =   /* Upper limit on 2d con. grad iterations  */
(PID.TID 0000.0001)                     200
(PID.TID 0000.0001)     ;
(PID.TID 0000.0001) cg2dMinItersNSA =   /* Minimum number of iterations of 2d con. grad solver  */
(PID.TID 0000.0001)                       0
(PID.TID 0000.0001)     ;
(PID.TID 0000.0001) cg2dUseMinResSol= /* use cg2d last-iter(=0) / min-resid.(=1) solution */
(PID.TID 0000.0001)                       0
(PID.TID 0000.0001)     ;
(PID.TID 0000.0001) cg2dTargetResidual =   /* 2d con. grad target residual  */
(PID.TID 0000.0001)                 1.000000000000000E-09
(PID.TID 0000.0001)     ;
(PID.TID 0000.0001) cg2dTargetResWunit =   /* CG2d target residual [W units] */
(PID.TID 0000.0001)                -1.000000000000000E+00
(PID.TID 0000.0001)     ;
(PID.TID 0000.0001) cg2dPreCondFreq =   /* Freq. for updating cg2d preconditioner */
(PID.TID 0000.0001)                       1
(PID.TID 0000.0001)     ;
(PID.TID 0000.0001) useSRCGSolver =  /* use single reduction CG solver(s) */
(PID.TID 0000.0001)                   F
(PID.TID 0000.0001)     ;
(PID.TID 0000.0001) useNSACGSolver =  /* use not-self-adjoint CG solver */
(PID.TID 0000.0001)                   F
(PID.TID 0000.0001)     ;
(PID.TID 0000.0001) printResidualFreq = /* Freq. for printing CG residual */
(PID.TID 0000.0001)                      -1
(PID.TID 0000.0001)     ;
(PID.TID 0000.0001) //
(PID.TID 0000.0001) // Time stepping paramters ( PARM03 in namelist )
(PID.TID 0000.0001) //
(PID.TID 0000.0001) deltaTMom =   /* Momentum equation timestep ( s ) */
(PID.TID 0000.0001)                 1.200000000000000E+03
(PID.TID 0000.0001)     ;
(PID.TID 0000.0001) deltaTFreeSurf = /* FreeSurface equation timestep ( s ) */
(PID.TID 0000.0001)                 8.640000000000000E+04
(PID.TID 0000.0001)     ;
(PID.TID 0000.0001) dTtracerLev =  /* Tracer equation timestep ( s ) */
(PID.TID 0000.0001)    15 @  8.640000000000000E+04              /* K =  1: 15 */
(PID.TID 0000.0001)     ;
(PID.TID 0000.0001) deltaTClock  =   /* Model clock timestep ( s ) */
(PID.TID 0000.0001)                 8.640000000000000E+04
(PID.TID 0000.0001)     ;
(PID.TID 0000.0001) cAdjFreq =   /* Convective adjustment interval ( s ) */
(PID.TID 0000.0001)                 0.000000000000000E+00
(PID.TID 0000.0001)     ;
(PID.TID 0000.0001) momForcingOutAB = /* =1: take Momentum Forcing out of Adams-Bash. stepping */
(PID.TID 0000.0001)                       1
(PID.TID 0000.0001)     ;
(PID.TID 0000.0001) tracForcingOutAB = /* =1: take T,S,pTr Forcing out of Adams-Bash. stepping */
(PID.TID 0000.0001)                       1
(PID.TID 0000.0001)     ;
(PID.TID 0000.0001) momDissip_In_AB = /* put Dissipation Tendency in Adams-Bash. stepping */
(PID.TID 0000.0001)                   T
(PID.TID 0000.0001)     ;
(PID.TID 0000.0001) doAB_onGtGs = /* apply AB on Tendencies (rather than on T,S)*/
(PID.TID 0000.0001)                   T
(PID.TID 0000.0001)     ;
(PID.TID 0000.0001) abEps =   /* Adams-Bashforth-2 stabilizing weight */
(PID.TID 0000.0001)                 1.000000000000000E-01
(PID.TID 0000.0001)     ;
(PID.TID 0000.0001) alph_AB =   /* Adams-Bashforth-3 primary factor */
(PID.TID 0000.0001)                 6.000000000000000E-01
(PID.TID 0000.0001)     ;
(PID.TID 0000.0001) beta_AB =   /* Adams-Bashforth-3 secondary factor */
(PID.TID 0000.0001)                 0.000000000000000E+00
(PID.TID 0000.0001)     ;
(PID.TID 0000.0001) startFromPickupAB2= /* start from AB-2 pickup */
(PID.TID 0000.0001)                   F
(PID.TID 0000.0001)     ;
(PID.TID 0000.0001) applyExchUV_early = /* Apply EXCH to U,V earlier in time-step */
(PID.TID 0000.0001)                   F
(PID.TID 0000.0001)     ;
(PID.TID 0000.0001) pickupStrictlyMatch= /* stop if pickup do not strictly match */
(PID.TID 0000.0001)                   T
(PID.TID 0000.0001)     ;
(PID.TID 0000.0001) nIter0   =   /* Run starting timestep number */
(PID.TID 0000.0001)                   72000
(PID.TID 0000.0001)     ;
(PID.TID 0000.0001) nTimeSteps = /* Number of timesteps */
(PID.TID 0000.0001)                       5
(PID.TID 0000.0001)     ;
(PID.TID 0000.0001) nEndIter =   /* Run ending timestep number */
(PID.TID 0000.0001)                   72005
(PID.TID 0000.0001)     ;
(PID.TID 0000.0001) baseTime =   /* Model base time ( s ) */
(PID.TID 0000.0001)                 0.000000000000000E+00
(PID.TID 0000.0001)     ;
(PID.TID 0000.0001) startTime =  /* Run start time ( s ) */
(PID.TID 0000.0001)                 6.220800000000000E+09
(PID.TID 0000.0001)     ;
(PID.TID 0000.0001) endTime  =   /* Integration ending time ( s ) */
(PID.TID 0000.0001)                 6.221232000000000E+09
(PID.TID 0000.0001)     ;
(PID.TID 0000.0001) pChkPtFreq = /* Permanent restart/pickup file interval ( s ) */
(PID.TID 0000.0001)                 3.110400000000000E+08
(PID.TID 0000.0001)     ;
(PID.TID 0000.0001) chkPtFreq  = /* Rolling restart/pickup file interval ( s ) */
(PID.TID 0000.0001)                 3.110400000000000E+07
(PID.TID 0000.0001)     ;
(PID.TID 0000.0001) pickup_write_mdsio =   /* Model IO flag. */
(PID.TID 0000.0001)                   T
(PID.TID 0000.0001)     ;
(PID.TID 0000.0001) pickup_read_mdsio =   /* Model IO flag. */
(PID.TID 0000.0001)                   T
(PID.TID 0000.0001)     ;
(PID.TID 0000.0001) writePickupAtEnd =   /* Model IO flag. */
(PID.TID 0000.0001)                   T
(PID.TID 0000.0001)     ;
(PID.TID 0000.0001) dumpFreq =   /* Model state write out interval ( s ). */
(PID.TID 0000.0001)                 4.320000000000000E+05
(PID.TID 0000.0001)     ;
(PID.TID 0000.0001) dumpInitAndLast= /* write out Initial & Last iter. model state */
(PID.TID 0000.0001)                   T
(PID.TID 0000.0001)     ;
(PID.TID 0000.0001) snapshot_mdsio =   /* Model IO flag. */
(PID.TID 0000.0001)                   T
(PID.TID 0000.0001)     ;
(PID.TID 0000.0001) monitorFreq =   /* Monitor output interval ( s ). */
(PID.TID 0000.0001)                 1.000000000000000E+00
(PID.TID 0000.0001)     ;
(PID.TID 0000.0001) monitorSelect = /* select group of variables to monitor */
(PID.TID 0000.0001)                       3
(PID.TID 0000.0001)     ;
(PID.TID 0000.0001) monitor_stdio =   /* Model IO flag. */
(PID.TID 0000.0001)                   T
(PID.TID 0000.0001)     ;
(PID.TID 0000.0001) externForcingPeriod =   /* forcing period (s) */
(PID.TID 0000.0001)                 0.000000000000000E+00
(PID.TID 0000.0001)     ;
(PID.TID 0000.0001) externForcingCycle =   /* period of the cyle (s). */
(PID.TID 0000.0001)                 0.000000000000000E+00
(PID.TID 0000.0001)     ;
(PID.TID 0000.0001) tauThetaClimRelax =   /* relaxation time scale (s) */
(PID.TID 0000.0001)                 0.000000000000000E+00
(PID.TID 0000.0001)     ;
(PID.TID 0000.0001) tauSaltClimRelax =   /* relaxation time scale (s) */
(PID.TID 0000.0001)                 0.000000000000000E+00
(PID.TID 0000.0001)     ;
(PID.TID 0000.0001) latBandClimRelax =   /* max. Lat. where relaxation */
(PID.TID 0000.0001)                 1.800000000000000E+02
(PID.TID 0000.0001)     ;
(PID.TID 0000.0001) //
(PID.TID 0000.0001) // Gridding paramters ( PARM04 in namelist )
(PID.TID 0000.0001) //
(PID.TID 0000.0001) usingCartesianGrid = /* Cartesian coordinates flag ( True/False ) */
(PID.TID 0000.0001)                   F
(PID.TID 0000.0001)     ;
(PID.TID 0000.0001) usingCylindricalGrid = /* Cylindrical coordinates flag ( True/False ) */
(PID.TID 0000.0001)                   F
(PID.TID 0000.0001)     ;
(PID.TID 0000.0001) usingSphericalPolarGrid = /* Spherical coordinates flag ( True/False ) */
(PID.TID 0000.0001)                   F
(PID.TID 0000.0001)     ;
(PID.TID 0000.0001) usingCurvilinearGrid = /* Curvilinear coordinates flag ( True/False ) */
(PID.TID 0000.0001)                   T
(PID.TID 0000.0001)     ;
(PID.TID 0000.0001) useMin4hFacEdges = /* set hFacW,S as minimum of adjacent hFacC factor */
(PID.TID 0000.0001)                   F
(PID.TID 0000.0001)     ;
(PID.TID 0000.0001) interViscAr_pCell = /* account for partial-cell in interior vert. viscosity */
(PID.TID 0000.0001)                   F
(PID.TID 0000.0001)     ;
(PID.TID 0000.0001) interDiffKr_pCell = /* account for partial-cell in interior vert. diffusion */
(PID.TID 0000.0001)                   F
(PID.TID 0000.0001)     ;
(PID.TID 0000.0001) pCellMix_select = /* option to enhance mixing near surface & bottom */
(PID.TID 0000.0001)                       0
(PID.TID 0000.0001)     ;
(PID.TID 0000.0001) selectSigmaCoord = /* Hybrid-Sigma Vert. Coordinate option */
(PID.TID 0000.0001)                       0
(PID.TID 0000.0001)     ;
(PID.TID 0000.0001) rSigmaBnd = /* r/sigma transition ( units of r ==  m ) */
(PID.TID 0000.0001)                 1.234567000000000E+05
(PID.TID 0000.0001)     ;
(PID.TID 0000.0001) rkSign =   /* index orientation relative to vertical coordinate */
(PID.TID 0000.0001)                -1.000000000000000E+00
(PID.TID 0000.0001)     ;
(PID.TID 0000.0001) gravitySign = /* gravity orientation relative to vertical coordinate */
(PID.TID 0000.0001)                -1.000000000000000E+00
(PID.TID 0000.0001)     ;
(PID.TID 0000.0001) seaLev_Z =  /* reference height of sea-level [m] */
(PID.TID 0000.0001)                 0.000000000000000E+00
(PID.TID 0000.0001)     ;
(PID.TID 0000.0001) top_Pres =  /* reference pressure at the top [Pa] */
(PID.TID 0000.0001)                 0.000000000000000E+00
(PID.TID 0000.0001)     ;
(PID.TID 0000.0001) mass2rUnit = /* convert mass per unit area [kg/m2] to r-units [m] */
(PID.TID 0000.0001)                 9.661835748792270E-04
(PID.TID 0000.0001)     ;
(PID.TID 0000.0001) rUnit2mass = /* convert r-units [m] to mass per unit area [kg/m2] */
(PID.TID 0000.0001)                 1.035000000000000E+03
(PID.TID 0000.0001)     ;
(PID.TID 0000.0001) drC =   /* C spacing ( units of r ) */
(PID.TID 0000.0001)                 2.500000000000000E+01,      /* K =  1 */
(PID.TID 0000.0001)                 6.000000000000000E+01,      /* K =  2 */
(PID.TID 0000.0001)                 8.500000000000000E+01,      /* K =  3 */
(PID.TID 0000.0001)                 1.200000000000000E+02,      /* K =  4 */
(PID.TID 0000.0001)                 1.650000000000000E+02,      /* K =  5 */
(PID.TID 0000.0001)                 2.150000000000000E+02,      /* K =  6 */
(PID.TID 0000.0001)                 2.650000000000000E+02,      /* K =  7 */
(PID.TID 0000.0001)                 3.150000000000000E+02,      /* K =  8 */
(PID.TID 0000.0001)                 3.650000000000000E+02,      /* K =  9 */
(PID.TID 0000.0001)                 4.150000000000000E+02,      /* K = 10 */
(PID.TID 0000.0001)                 4.650000000000000E+02,      /* K = 11 */
(PID.TID 0000.0001)                 5.150000000000000E+02,      /* K = 12 */
(PID.TID 0000.0001)                 5.650000000000000E+02,      /* K = 13 */
(PID.TID 0000.0001)                 6.150000000000000E+02,      /* K = 14 */
(PID.TID 0000.0001)                 6.650000000000000E+02,      /* K = 15 */
(PID.TID 0000.0001)                 3.450000000000000E+02       /* K = 16 */
(PID.TID 0000.0001)     ;
(PID.TID 0000.0001) drF =   /* W spacing ( units of r ) */
(PID.TID 0000.0001)                 5.000000000000000E+01,      /* K =  1 */
(PID.TID 0000.0001)                 7.000000000000000E+01,      /* K =  2 */
(PID.TID 0000.0001)                 1.000000000000000E+02,      /* K =  3 */
(PID.TID 0000.0001)                 1.400000000000000E+02,      /* K =  4 */
(PID.TID 0000.0001)                 1.900000000000000E+02,      /* K =  5 */
(PID.TID 0000.0001)                 2.400000000000000E+02,      /* K =  6 */
(PID.TID 0000.0001)                 2.900000000000000E+02,      /* K =  7 */
(PID.TID 0000.0001)                 3.400000000000000E+02,      /* K =  8 */
(PID.TID 0000.0001)                 3.900000000000000E+02,      /* K =  9 */
(PID.TID 0000.0001)                 4.400000000000000E+02,      /* K = 10 */
(PID.TID 0000.0001)                 4.900000000000000E+02,      /* K = 11 */
(PID.TID 0000.0001)                 5.400000000000000E+02,      /* K = 12 */
(PID.TID 0000.0001)                 5.900000000000000E+02,      /* K = 13 */
(PID.TID 0000.0001)                 6.400000000000000E+02,      /* K = 14 */
(PID.TID 0000.0001)                 6.900000000000000E+02       /* K = 15 */
(PID.TID 0000.0001)     ;
(PID.TID 0000.0001) radius_fromHorizGrid = /* sphere Radius of input horiz. grid */
(PID.TID 0000.0001)                 6.370000000000000E+06
(PID.TID 0000.0001)     ;
(PID.TID 0000.0001) rSphere =  /* Radius ( ignored - cartesian, m - spherical ) */
(PID.TID 0000.0001)                 6.370000000000000E+06
(PID.TID 0000.0001)     ;
(PID.TID 0000.0001) deepAtmosphere = /* Deep/Shallow Atmosphere flag (True/False) */
(PID.TID 0000.0001)                   F
(PID.TID 0000.0001)     ;
(PID.TID 0000.0001) xC =  /* xC(:,1,:,1) : P-point X coord ( deg. or m if cartesian) */
(PID.TID 0000.0001)                -4.439521994760536E+01,      /* I =  1 */
(PID.TID 0000.0001)                -4.295641272275883E+01,      /* I =  2 */
(PID.TID 0000.0001)                -4.122055553388957E+01,      /* I =  3 */
(PID.TID 0000.0001)      . . .
(PID.TID 0000.0001)                 1.312205555338896E+02,      /* I = 94 */
(PID.TID 0000.0001)                 1.329564127227588E+02,      /* I = 95 */
(PID.TID 0000.0001)                 1.343952199476053E+02,      /* I = 96 */
(PID.TID 0000.0001)                 4.635509675007168E+01,      /* I = 97 */
(PID.TID 0000.0001)                 4.906731228843647E+01,      /* I = 98 */
(PID.TID 0000.0001)                 5.178550688214704E+01,      /* I = 99 */
(PID.TID 0000.0001)      . . .
(PID.TID 0000.0001)                -1.778001716525716E+02,      /* I =190 */
(PID.TID 0000.0001)                -1.779288225675308E+02,      /* I =191 */
(PID.TID 0000.0001)                -1.780367200854751E+02,      /* I =192 */
(PID.TID 0000.0001)                 1.356047800523947E+02,      /* I =193 */
(PID.TID 0000.0001)                 1.358367907661329E+02,      /* I =194 */
(PID.TID 0000.0001)                 1.359720382181193E+02,      /* I =195 */
(PID.TID 0000.0001)      . . .
(PID.TID 0000.0001)                -1.340279617818807E+02,      /* I =286 */
(PID.TID 0000.0001)                -1.341632092338671E+02,      /* I =287 */
(PID.TID 0000.0001)                -1.343952199476053E+02,      /* I =288 */
(PID.TID 0000.0001)                -8.812739148696656E+01,      /* I =289 */
(PID.TID 0000.0001)                -8.820362659721324E+01,      /* I =290 */
(PID.TID 0000.0001)                -8.826768106944316E+01,      /* I =291 */
(PID.TID 0000.0001)      . . .
(PID.TID 0000.0001)                 8.780017165257156E+01,      /* I =382 */
(PID.TID 0000.0001)                 8.792882256753080E+01,      /* I =383 */
(PID.TID 0000.0001)                 8.803672008547504E+01       /* I =384 */
(PID.TID 0000.0001)     ;
(PID.TID 0000.0001) yC =  /* yC(1,:,1,:) : P-point Y coord ( deg. or m if cartesian) */
(PID.TID 0000.0001)                -3.497677942598243E+01,      /* J =  1 */
(PID.TID 0000.0001)                -3.374005967394886E+01,      /* J =  2 */
(PID.TID 0000.0001)                -3.220655175667454E+01,      /* J =  3 */
(PID.TID 0000.0001)                -3.045756348838641E+01,      /* J =  4 */
(PID.TID 0000.0001)                -2.853728129852918E+01,      /* J =  5 */
(PID.TID 0000.0001)                -2.647426640173173E+01,      /* J =  6 */
(PID.TID 0000.0001)                -2.428936657094636E+01,      /* J =  7 */
(PID.TID 0000.0001)                -2.199915808312262E+01,      /* J =  8 */
(PID.TID 0000.0001)                -1.961768597440146E+01,      /* J =  9 */
(PID.TID 0000.0001)                -1.715743888281371E+01,      /* J = 10 */
(PID.TID 0000.0001)                -1.462993396899330E+01,      /* J = 11 */
(PID.TID 0000.0001)                -1.204608340464756E+01,      /* J = 12 */
(PID.TID 0000.0001)                -9.416429130284818E+00,      /* J = 13 */
(PID.TID 0000.0001)                -6.751293662992216E+00,      /* J = 14 */
(PID.TID 0000.0001)                -4.060875511835959E+00,      /* J = 15 */
(PID.TID 0000.0001)                -1.355307764409121E+00       /* J = 16 */
(PID.TID 0000.0001)     ;
(PID.TID 0000.0001) rcoord = /* P-point R coordinate (  units of r ) */
(PID.TID 0000.0001)                -2.500000000000000E+01,      /* K =  1 */
(PID.TID 0000.0001)                -8.500000000000000E+01,      /* K =  2 */
(PID.TID 0000.0001)                -1.700000000000000E+02,      /* K =  3 */
(PID.TID 0000.0001)                -2.900000000000000E+02,      /* K =  4 */
(PID.TID 0000.0001)                -4.550000000000000E+02,      /* K =  5 */
(PID.TID 0000.0001)                -6.700000000000000E+02,      /* K =  6 */
(PID.TID 0000.0001)                -9.350000000000000E+02,      /* K =  7 */
(PID.TID 0000.0001)                -1.250000000000000E+03,      /* K =  8 */
(PID.TID 0000.0001)                -1.615000000000000E+03,      /* K =  9 */
(PID.TID 0000.0001)                -2.030000000000000E+03,      /* K = 10 */
(PID.TID 0000.0001)                -2.495000000000000E+03,      /* K = 11 */
(PID.TID 0000.0001)                -3.010000000000000E+03,      /* K = 12 */
(PID.TID 0000.0001)                -3.575000000000000E+03,      /* K = 13 */
(PID.TID 0000.0001)                -4.190000000000000E+03,      /* K = 14 */
(PID.TID 0000.0001)                -4.855000000000000E+03       /* K = 15 */
(PID.TID 0000.0001)     ;
(PID.TID 0000.0001) rF =   /* W-Interf. R coordinate (  units of r ) */
(PID.TID 0000.0001)                 0.000000000000000E+00,      /* K =  1 */
(PID.TID 0000.0001)                -5.000000000000000E+01,      /* K =  2 */
(PID.TID 0000.0001)                -1.200000000000000E+02,      /* K =  3 */
(PID.TID 0000.0001)                -2.200000000000000E+02,      /* K =  4 */
(PID.TID 0000.0001)                -3.600000000000000E+02,      /* K =  5 */
(PID.TID 0000.0001)                -5.500000000000000E+02,      /* K =  6 */
(PID.TID 0000.0001)                -7.900000000000000E+02,      /* K =  7 */
(PID.TID 0000.0001)                -1.080000000000000E+03,      /* K =  8 */
(PID.TID 0000.0001)                -1.420000000000000E+03,      /* K =  9 */
(PID.TID 0000.0001)                -1.810000000000000E+03,      /* K = 10 */
(PID.TID 0000.0001)                -2.250000000000000E+03,      /* K = 11 */
(PID.TID 0000.0001)                -2.740000000000000E+03,      /* K = 12 */
(PID.TID 0000.0001)                -3.280000000000000E+03,      /* K = 13 */
(PID.TID 0000.0001)                -3.870000000000000E+03,      /* K = 14 */
(PID.TID 0000.0001)                -4.510000000000000E+03,      /* K = 15 */
(PID.TID 0000.0001)                -5.200000000000000E+03       /* K = 16 */
(PID.TID 0000.0001)     ;
(PID.TID 0000.0001) deepFacC = /* deep-model grid factor @ cell-Center (-) */
(PID.TID 0000.0001)    15 @  1.000000000000000E+00              /* K =  1: 15 */
(PID.TID 0000.0001)     ;
(PID.TID 0000.0001) deepFacF = /* deep-model grid factor @ W-Interface (-) */
(PID.TID 0000.0001)    16 @  1.000000000000000E+00              /* K =  1: 16 */
(PID.TID 0000.0001)     ;
(PID.TID 0000.0001) rotateGrid = /* use rotated grid ( True/False ) */
(PID.TID 0000.0001)                   F
(PID.TID 0000.0001)     ;
(PID.TID 0000.0001) phiEuler = /* Euler angle, rotation about original z-coordinate [rad] */
(PID.TID 0000.0001)                 0.000000000000000E+00
(PID.TID 0000.0001)     ;
(PID.TID 0000.0001) thetaEuler = /* Euler angle, rotation about new x-coordinate [rad] */
(PID.TID 0000.0001)                 0.000000000000000E+00
(PID.TID 0000.0001)     ;
(PID.TID 0000.0001) psiEuler = /* Euler angle, rotation about new z-coordinate [rad] */
(PID.TID 0000.0001)                 0.000000000000000E+00
(PID.TID 0000.0001)     ;
(PID.TID 0000.0001) dxF =  /* dxF(:,1,:,1) ( units: m ) */
(PID.TID 0000.0001)                 1.202082051331828E+05,      /* I =  1 */
(PID.TID 0000.0001)                 1.563594089971120E+05,      /* I =  2 */
(PID.TID 0000.0001)                 1.835530058121492E+05,      /* I =  3 */
(PID.TID 0000.0001)      . . .
(PID.TID 0000.0001)                 1.835530058121492E+05,      /* I = 94 */
(PID.TID 0000.0001)                 1.563594089971120E+05,      /* I = 95 */
(PID.TID 0000.0001)                 1.202082051331828E+05,      /* I = 96 */
(PID.TID 0000.0001)                 3.012844832048790E+05,      /* I = 97 */
(PID.TID 0000.0001)                 3.017314519159184E+05,      /* I = 98 */
(PID.TID 0000.0001)                 3.026061571839506E+05,      /* I = 99 */
(PID.TID 0000.0001)      . . .
(PID.TID 0000.0001)                 3.026061571839506E+05,      /* I =190 */
(PID.TID 0000.0001)                 3.017314519159184E+05,      /* I =191 */
(PID.TID 0000.0001)                 3.012844832048790E+05,      /* I =192 */
(PID.TID 0000.0001)                 1.202082051331828E+05,      /* I =193 */
(PID.TID 0000.0001)                 1.563594089971120E+05,      /* I =194 */
(PID.TID 0000.0001)                 1.835530058121492E+05,      /* I =195 */
(PID.TID 0000.0001)      . . .
(PID.TID 0000.0001)                 1.835530058121492E+05,      /* I =286 */
(PID.TID 0000.0001)                 1.563594089971120E+05,      /* I =287 */
(PID.TID 0000.0001)                 1.202082051331828E+05,      /* I =288 */
(PID.TID 0000.0001)                 3.012844832048790E+05,      /* I =289 */
(PID.TID 0000.0001)                 3.017314519159184E+05,      /* I =290 */
(PID.TID 0000.0001)                 3.026061571839506E+05,      /* I =291 */
(PID.TID 0000.0001)      . . .
(PID.TID 0000.0001)                 3.026061571839506E+05,      /* I =382 */
(PID.TID 0000.0001)                 3.017314519159184E+05,      /* I =383 */
(PID.TID 0000.0001)                 3.012844832048790E+05       /* I =384 */
(PID.TID 0000.0001)     ;
(PID.TID 0000.0001) dxF =  /* dxF(1,:,1,:) ( units: m ) */
(PID.TID 0000.0001)                 1.202082051331828E+05,      /* J =  1 */
(PID.TID 0000.0001)                 1.572908084538706E+05,      /* J =  2 */
(PID.TID 0000.0001)                 1.840412227747703E+05,      /* J =  3 */
(PID.TID 0000.0001)                 2.048868197919576E+05,      /* J =  4 */
(PID.TID 0000.0001)                 2.220405216043041E+05,      /* J =  5 */
(PID.TID 0000.0001)                 2.365892017348392E+05,      /* J =  6 */
(PID.TID 0000.0001)                 2.491250781852558E+05,      /* J =  7 */
(PID.TID 0000.0001)                 2.599949918261881E+05,      /* J =  8 */
(PID.TID 0000.0001)                 2.694110134598581E+05,      /* J =  9 */
(PID.TID 0000.0001)                 2.775055554645015E+05,      /* J = 10 */
(PID.TID 0000.0001)                 2.843615645344775E+05,      /* J = 11 */
(PID.TID 0000.0001)                 2.900303768613599E+05,      /* J = 12 */
(PID.TID 0000.0001)                 2.945429307892709E+05,      /* J = 13 */
(PID.TID 0000.0001)                 2.979171143158405E+05,      /* J = 14 */
(PID.TID 0000.0001)                 3.001626787528886E+05,      /* J = 15 */
(PID.TID 0000.0001)                 3.012844832048790E+05       /* J = 16 */
(PID.TID 0000.0001)     ;
(PID.TID 0000.0001) dyF =  /* dyF(:,1,:,1) ( units: m ) */
(PID.TID 0000.0001)                 1.202082051331828E+05,      /* I =  1 */
(PID.TID 0000.0001)                 1.572908084538706E+05,      /* I =  2 */
(PID.TID 0000.0001)                 1.840412227747703E+05,      /* I =  3 */
(PID.TID 0000.0001)      . . .
(PID.TID 0000.0001)                 1.840412227747703E+05,      /* I = 94 */
(PID.TID 0000.0001)                 1.572908084538706E+05,      /* I = 95 */
(PID.TID 0000.0001)                 1.202082051331828E+05,      /* I = 96 */
(PID.TID 0000.0001)                 3.012190981969055E+05,      /* I = 97 */
(PID.TID 0000.0001)                 3.016675528553907E+05,      /* I = 98 */
(PID.TID 0000.0001)                 3.025451404065074E+05,      /* I = 99 */
(PID.TID 0000.0001)      . . .
(PID.TID 0000.0001)                 3.025451404065074E+05,      /* I =190 */
(PID.TID 0000.0001)                 3.016675528553907E+05,      /* I =191 */
(PID.TID 0000.0001)                 3.012190981969055E+05,      /* I =192 */
(PID.TID 0000.0001)                 1.202082051331828E+05,      /* I =193 */
(PID.TID 0000.0001)                 1.572908084538706E+05,      /* I =194 */
(PID.TID 0000.0001)                 1.840412227747703E+05,      /* I =195 */
(PID.TID 0000.0001)      . . .
(PID.TID 0000.0001)                 1.840412227747703E+05,      /* I =286 */
(PID.TID 0000.0001)                 1.572908084538706E+05,      /* I =287 */
(PID.TID 0000.0001)                 1.202082051331828E+05,      /* I =288 */
(PID.TID 0000.0001)                 3.012190981969055E+05,      /* I =289 */
(PID.TID 0000.0001)                 3.016675528553907E+05,      /* I =290 */
(PID.TID 0000.0001)                 3.025451404065074E+05,      /* I =291 */
(PID.TID 0000.0001)      . . .
(PID.TID 0000.0001)                 3.025451404065074E+05,      /* I =382 */
(PID.TID 0000.0001)                 3.016675528553907E+05,      /* I =383 */
(PID.TID 0000.0001)                 3.012190981969055E+05       /* I =384 */
(PID.TID 0000.0001)     ;
(PID.TID 0000.0001) dyF =  /* dyF(1,:,1,:) ( units: m ) */
(PID.TID 0000.0001)                 1.202082051331828E+05,      /* J =  1 */
(PID.TID 0000.0001)                 1.563594089971120E+05,      /* J =  2 */
(PID.TID 0000.0001)                 1.835530058121492E+05,      /* J =  3 */
(PID.TID 0000.0001)                 2.045883481718707E+05,      /* J =  4 */
(PID.TID 0000.0001)                 2.218350349844185E+05,      /* J =  5 */
(PID.TID 0000.0001)                 2.364352994647058E+05,      /* J =  6 */
(PID.TID 0000.0001)                 2.490022710862746E+05,      /* J =  7 */
(PID.TID 0000.0001)                 2.598919724358304E+05,      /* J =  8 */
(PID.TID 0000.0001)                 2.693210245495156E+05,      /* J =  9 */
(PID.TID 0000.0001)                 2.774243179696503E+05,      /* J = 10 */
(PID.TID 0000.0001)                 2.842862532064524E+05,      /* J = 11 */
(PID.TID 0000.0001)                 2.899590699694043E+05,      /* J = 12 */
(PID.TID 0000.0001)                 2.944742915095688E+05,      /* J = 13 */
(PID.TID 0000.0001)                 2.978501920522794E+05,      /* J = 14 */
(PID.TID 0000.0001)                 3.000967749619962E+05,      /* J = 15 */
(PID.TID 0000.0001)                 3.012190981969055E+05       /* J = 16 */
(PID.TID 0000.0001)     ;
(PID.TID 0000.0001) dxG =  /* dxG(:,1,:,1) ( units: m ) */
(PID.TID 0000.0001)                 1.009837800879055E+05,      /* I =  1 */
(PID.TID 0000.0001)                 1.534505834330338E+05,      /* I =  2 */
(PID.TID 0000.0001)                 1.823321598773926E+05,      /* I =  3 */
(PID.TID 0000.0001)      . . .
(PID.TID 0000.0001)                 1.823321598773926E+05,      /* I = 94 */
(PID.TID 0000.0001)                 1.534505834330338E+05,      /* I = 95 */
(PID.TID 0000.0001)                 1.009837800879055E+05,      /* I = 96 */
(PID.TID 0000.0001)                 3.014246674484008E+05,      /* I = 97 */
(PID.TID 0000.0001)                 3.018694497480782E+05,      /* I = 98 */
(PID.TID 0000.0001)                 3.027399364062562E+05,      /* I = 99 */
(PID.TID 0000.0001)      . . .
(PID.TID 0000.0001)                 3.027399364062562E+05,      /* I =190 */
(PID.TID 0000.0001)                 3.018694497480782E+05,      /* I =191 */
(PID.TID 0000.0001)                 3.014246674484008E+05,      /* I =192 */
(PID.TID 0000.0001)                 1.009837800879055E+05,      /* I =193 */
(PID.TID 0000.0001)                 1.534505834330338E+05,      /* I =194 */
(PID.TID 0000.0001)                 1.823321598773926E+05,      /* I =195 */
(PID.TID 0000.0001)      . . .
(PID.TID 0000.0001)                 1.823321598773926E+05,      /* I =286 */
(PID.TID 0000.0001)                 1.534505834330338E+05,      /* I =287 */
(PID.TID 0000.0001)                 1.009837800879055E+05,      /* I =288 */
(PID.TID 0000.0001)                 3.014246674484008E+05,      /* I =289 */
(PID.TID 0000.0001)                 3.018694497480782E+05,      /* I =290 */
(PID.TID 0000.0001)                 3.027399364062562E+05,      /* I =291 */
(PID.TID 0000.0001)      . . .
(PID.TID 0000.0001)                 3.027399364062562E+05,      /* I =382 */
(PID.TID 0000.0001)                 3.018694497480782E+05,      /* I =383 */
(PID.TID 0000.0001)                 3.014246674484008E+05       /* I =384 */
(PID.TID 0000.0001)     ;
(PID.TID 0000.0001) dxG =  /* dxG(1,:,1,:) ( units: m ) */
(PID.TID 0000.0001)                 1.009837800879055E+05,      /* J =  1 */
(PID.TID 0000.0001)                 1.403701524205398E+05,      /* J =  2 */
(PID.TID 0000.0001)                 1.716197227386011E+05,      /* J =  3 */
(PID.TID 0000.0001)                 1.950254041626018E+05,      /* J =  4 */
(PID.TID 0000.0001)                 2.138410773065497E+05,      /* J =  5 */
(PID.TID 0000.0001)                 2.295958105911512E+05,      /* J =  6 */
(PID.TID 0000.0001)                 2.430829951739083E+05,      /* J =  7 */
(PID.TID 0000.0001)                 2.547526806712889E+05,      /* J =  8 */
(PID.TID 0000.0001)                 2.648750305193301E+05,      /* J =  9 */
(PID.TID 0000.0001)                 2.736173771018112E+05,      /* J = 10 */
(PID.TID 0000.0001)                 2.810845823202647E+05,      /* J = 11 */
(PID.TID 0000.0001)                 2.873420591008078E+05,      /* J = 12 */
(PID.TID 0000.0001)                 2.924298293668651E+05,      /* J = 13 */
(PID.TID 0000.0001)                 2.963715635865306E+05,      /* J = 14 */
(PID.TID 0000.0001)                 2.991805843171258E+05,      /* J = 15 */
(PID.TID 0000.0001)                 3.008638765647886E+05       /* J = 16 */
(PID.TID 0000.0001)     ;
(PID.TID 0000.0001) dyG =  /* dyG(:,1,:,1) ( units: m ) */
(PID.TID 0000.0001)                 1.009837800879055E+05,      /* I =  1 */
(PID.TID 0000.0001)                 1.403701524205398E+05,      /* I =  2 */
(PID.TID 0000.0001)                 1.716197227386011E+05,      /* I =  3 */
(PID.TID 0000.0001)      . . .
(PID.TID 0000.0001)                 1.950254041626018E+05,      /* I = 94 */
(PID.TID 0000.0001)                 1.716197227386011E+05,      /* I = 95 */
(PID.TID 0000.0001)                 1.403701524205398E+05,      /* I = 96 */
(PID.TID 0000.0001)                 3.011625828699101E+05,      /* I = 97 */
(PID.TID 0000.0001)                 3.013880313304323E+05,      /* I = 98 */
(PID.TID 0000.0001)                 3.020546438966793E+05,      /* I = 99 */
(PID.TID 0000.0001)      . . .
(PID.TID 0000.0001)                 3.031337933484788E+05,      /* I =190 */
(PID.TID 0000.0001)                 3.020546438966793E+05,      /* I =191 */
(PID.TID 0000.0001)                 3.013880313304323E+05,      /* I =192 */
(PID.TID 0000.0001)                 1.009837800879055E+05,      /* I =193 */
(PID.TID 0000.0001)                 1.403701524205398E+05,      /* I =194 */
(PID.TID 0000.0001)                 1.716197227386011E+05,      /* I =195 */
(PID.TID 0000.0001)      . . .
(PID.TID 0000.0001)                 1.950254041626018E+05,      /* I =286 */
(PID.TID 0000.0001)                 1.716197227386011E+05,      /* I =287 */
(PID.TID 0000.0001)                 1.403701524205398E+05,      /* I =288 */
(PID.TID 0000.0001)                 3.011625828699101E+05,      /* I =289 */
(PID.TID 0000.0001)                 3.013880313304323E+05,      /* I =290 */
(PID.TID 0000.0001)                 3.020546438966793E+05,      /* I =291 */
(PID.TID 0000.0001)      . . .
(PID.TID 0000.0001)                 3.031337933484788E+05,      /* I =382 */
(PID.TID 0000.0001)                 3.020546438966793E+05,      /* I =383 */
(PID.TID 0000.0001)                 3.013880313304323E+05       /* I =384 */
(PID.TID 0000.0001)     ;
(PID.TID 0000.0001) dyG =  /* dyG(1,:,1,:) ( units: m ) */
(PID.TID 0000.0001)                 1.009837800879055E+05,      /* J =  1 */
(PID.TID 0000.0001)                 1.534505834330338E+05,      /* J =  2 */
(PID.TID 0000.0001)                 1.823321598773926E+05,      /* J =  3 */
(PID.TID 0000.0001)                 2.038999045536999E+05,      /* J =  4 */
(PID.TID 0000.0001)                 2.213884732245467E+05,      /* J =  5 */
(PID.TID 0000.0001)                 2.361211699596122E+05,      /* J =  6 */
(PID.TID 0000.0001)                 2.487693460283865E+05,      /* J =  7 */
(PID.TID 0000.0001)                 2.597126963772147E+05,      /* J =  8 */
(PID.TID 0000.0001)                 2.691790288994575E+05,      /* J =  9 */
(PID.TID 0000.0001)                 2.773091043277394E+05,      /* J = 10 */
(PID.TID 0000.0001)                 2.841906470085516E+05,      /* J = 11 */
(PID.TID 0000.0001)                 2.898778860929753E+05,      /* J = 12 */
(PID.TID 0000.0001)                 2.944035815526416E+05,      /* J = 13 */
(PID.TID 0000.0001)                 2.977867909042096E+05,      /* J = 14 */
(PID.TID 0000.0001)                 3.000380090330854E+05,      /* J = 15 */
(PID.TID 0000.0001)                 3.011625828699101E+05       /* J = 16 */
(PID.TID 0000.0001)     ;
(PID.TID 0000.0001) dxC =  /* dxC(:,1,:,1) ( units: m ) */
(PID.TID 0000.0001)                 1.114203141013064E+05,      /* I =  1 */
(PID.TID 0000.0001)                 1.391343389937106E+05,      /* I =  2 */
(PID.TID 0000.0001)                 1.709574999026266E+05,      /* I =  3 */
(PID.TID 0000.0001)      . . .
(PID.TID 0000.0001)                 1.946503699269892E+05,      /* I = 94 */
(PID.TID 0000.0001)                 1.709574999026266E+05,      /* I = 95 */
(PID.TID 0000.0001)                 1.391343389937106E+05,      /* I = 96 */
(PID.TID 0000.0001)                 3.012281885409289E+05,      /* I = 97 */
(PID.TID 0000.0001)                 3.014528555318499E+05,      /* I = 98 */
(PID.TID 0000.0001)                 3.021172674809921E+05,      /* I = 99 */
(PID.TID 0000.0001)      . . .
(PID.TID 0000.0001)                 3.031928954490276E+05,      /* I =190 */
(PID.TID 0000.0001)                 3.021172674809921E+05,      /* I =191 */
(PID.TID 0000.0001)                 3.014528555318499E+05,      /* I =192 */
(PID.TID 0000.0001)                 1.114203141013064E+05,      /* I =193 */
(PID.TID 0000.0001)                 1.391343389937106E+05,      /* I =194 */
(PID.TID 0000.0001)                 1.709574999026266E+05,      /* I =195 */
(PID.TID 0000.0001)      . . .
(PID.TID 0000.0001)                 1.946503699269892E+05,      /* I =286 */
(PID.TID 0000.0001)                 1.709574999026266E+05,      /* I =287 */
(PID.TID 0000.0001)                 1.391343389937106E+05,      /* I =288 */
(PID.TID 0000.0001)                 3.012281885409289E+05,      /* I =289 */
(PID.TID 0000.0001)                 3.014528555318499E+05,      /* I =290 */
(PID.TID 0000.0001)                 3.021172674809921E+05,      /* I =291 */
(PID.TID 0000.0001)      . . .
(PID.TID 0000.0001)                 3.031928954490276E+05,      /* I =382 */
(PID.TID 0000.0001)                 3.021172674809921E+05,      /* I =383 */
(PID.TID 0000.0001)                 3.014528555318499E+05       /* I =384 */
(PID.TID 0000.0001)     ;
(PID.TID 0000.0001) dxC =  /* dxC(1,:,1,:) ( units: m ) */
(PID.TID 0000.0001)                 1.114203141013064E+05,      /* J =  1 */
(PID.TID 0000.0001)                 1.549545757850771E+05,      /* J =  2 */
(PID.TID 0000.0001)                 1.829777599966776E+05,      /* J =  3 */
(PID.TID 0000.0001)                 2.042717761866506E+05,      /* J =  4 */
(PID.TID 0000.0001)                 2.216367828252819E+05,      /* J =  5 */
(PID.TID 0000.0001)                 2.363029564123586E+05,      /* J =  6 */
(PID.TID 0000.0001)                 2.489113743322025E+05,      /* J =  7 */
(PID.TID 0000.0001)                 2.598293319150326E+05,      /* J =  8 */
(PID.TID 0000.0001)                 2.692787333338535E+05,      /* J =  9 */
(PID.TID 0000.0001)                 2.773972106720365E+05,      /* J = 10 */
(PID.TID 0000.0001)                 2.842706922224557E+05,      /* J = 11 */
(PID.TID 0000.0001)                 2.899523122489403E+05,      /* J = 12 */
(PID.TID 0000.0001)                 2.944741346384699E+05,      /* J = 13 */
(PID.TID 0000.0001)                 2.978547649292580E+05,      /* J = 14 */
(PID.TID 0000.0001)                 3.001044073506459E+05,      /* J = 15 */
(PID.TID 0000.0001)                 3.012281885409289E+05       /* J = 16 */
(PID.TID 0000.0001)     ;
(PID.TID 0000.0001) dyC =  /* dyC(:,1,:,1) ( units: m ) */
(PID.TID 0000.0001)                 1.114203141013064E+05,      /* I =  1 */
(PID.TID 0000.0001)                 1.549545757850771E+05,      /* I =  2 */
(PID.TID 0000.0001)                 1.829777599966776E+05,      /* I =  3 */
(PID.TID 0000.0001)      . . .
(PID.TID 0000.0001)                 1.829777599966776E+05,      /* I = 94 */
(PID.TID 0000.0001)                 1.549545757850771E+05,      /* I = 95 */
(PID.TID 0000.0001)                 1.114203141013064E+05,      /* I = 96 */
(PID.TID 0000.0001)                 3.013593857228136E+05,      /* I = 97 */
(PID.TID 0000.0001)                 3.018056440786431E+05,      /* I = 98 */
(PID.TID 0000.0001)                 3.026789946729719E+05,      /* I = 99 */
(PID.TID 0000.0001)      . . .
(PID.TID 0000.0001)                 3.026789946729719E+05,      /* I =190 */
(PID.TID 0000.0001)                 3.018056440786431E+05,      /* I =191 */
(PID.TID 0000.0001)                 3.013593857228136E+05,      /* I =192 */
(PID.TID 0000.0001)                 1.114203141013064E+05,      /* I =193 */
(PID.TID 0000.0001)                 1.549545757850771E+05,      /* I =194 */
(PID.TID 0000.0001)                 1.829777599966776E+05,      /* I =195 */
(PID.TID 0000.0001)      . . .
(PID.TID 0000.0001)                 1.829777599966776E+05,      /* I =286 */
(PID.TID 0000.0001)                 1.549545757850771E+05,      /* I =287 */
(PID.TID 0000.0001)                 1.114203141013064E+05,      /* I =288 */
(PID.TID 0000.0001)                 3.013593857228136E+05,      /* I =289 */
(PID.TID 0000.0001)                 3.018056440786431E+05,      /* I =290 */
(PID.TID 0000.0001)                 3.026789946729719E+05,      /* I =291 */
(PID.TID 0000.0001)      . . .
(PID.TID 0000.0001)                 3.026789946729719E+05,      /* I =382 */
(PID.TID 0000.0001)                 3.018056440786431E+05,      /* I =383 */
(PID.TID 0000.0001)                 3.013593857228136E+05       /* I =384 */
(PID.TID 0000.0001)     ;
(PID.TID 0000.0001) dyC =  /* dyC(1,:,1,:) ( units: m ) */
(PID.TID 0000.0001)                 1.114203141013064E+05,      /* J =  1 */
(PID.TID 0000.0001)                 1.391343389937106E+05,      /* J =  2 */
(PID.TID 0000.0001)                 1.709574999026266E+05,      /* J =  3 */
(PID.TID 0000.0001)                 1.946503699269892E+05,      /* J =  4 */
(PID.TID 0000.0001)                 2.135964483342134E+05,      /* J =  5 */
(PID.TID 0000.0001)                 2.294195678257306E+05,      /* J =  6 */
(PID.TID 0000.0001)                 2.429464709770498E+05,      /* J =  7 */
(PID.TID 0000.0001)                 2.546408290696998E+05,      /* J =  8 */
(PID.TID 0000.0001)                 2.647791839299727E+05,      /* J =  9 */
(PID.TID 0000.0001)                 2.735321911346108E+05,      /* J = 10 */
(PID.TID 0000.0001)                 2.810065951609633E+05,      /* J = 11 */
(PID.TID 0000.0001)                 2.872689479506990E+05,      /* J = 12 */
(PID.TID 0000.0001)                 2.923599955312932E+05,      /* J = 13 */
(PID.TID 0000.0001)                 2.963038832565530E+05,      /* J = 14 */
(PID.TID 0000.0001)                 2.991142470004740E+05,      /* J = 15 */
(PID.TID 0000.0001)                 3.007982711627968E+05       /* J = 16 */
(PID.TID 0000.0001)     ;
(PID.TID 0000.0001) dxV =  /* dxV(:,1,:,1) ( units: m ) */
(PID.TID 0000.0001)                 8.015229982413632E+04,      /* I =  1 */
(PID.TID 0000.0001)                 1.333130744933864E+05,      /* I =  2 */
(PID.TID 0000.0001)                 1.691744868129062E+05,      /* I =  3 */
(PID.TID 0000.0001)      . . .
(PID.TID 0000.0001)                 1.937548202849060E+05,      /* I = 94 */
(PID.TID 0000.0001)                 1.691744868129062E+05,      /* I = 95 */
(PID.TID 0000.0001)                 1.333130744933864E+05,      /* I = 96 */
(PID.TID 0000.0001)                 3.013686170436881E+05,      /* I = 97 */
(PID.TID 0000.0001)                 3.015922136961168E+05,      /* I = 98 */
(PID.TID 0000.0001)                 3.022533948177109E+05,      /* I = 99 */
(PID.TID 0000.0001)      . . .
(PID.TID 0000.0001)                 3.033238888442880E+05,      /* I =190 */
(PID.TID 0000.0001)                 3.022533948177109E+05,      /* I =191 */
(PID.TID 0000.0001)                 3.015922136961168E+05,      /* I =192 */
(PID.TID 0000.0001)                 8.015229982413632E+04,      /* I =193 */
(PID.TID 0000.0001)                 1.333130744933864E+05,      /* I =194 */
(PID.TID 0000.0001)                 1.691744868129062E+05,      /* I =195 */
(PID.TID 0000.0001)      . . .
(PID.TID 0000.0001)                 1.937548202849060E+05,      /* I =286 */
(PID.TID 0000.0001)                 1.691744868129062E+05,      /* I =287 */
(PID.TID 0000.0001)                 1.333130744933864E+05,      /* I =288 */
(PID.TID 0000.0001)                 3.013686170436881E+05,      /* I =289 */
(PID.TID 0000.0001)                 3.015922136961168E+05,      /* I =290 */
(PID.TID 0000.0001)                 3.022533948177109E+05,      /* I =291 */
(PID.TID 0000.0001)      . . .
(PID.TID 0000.0001)                 3.033238888442880E+05,      /* I =382 */
(PID.TID 0000.0001)                 3.022533948177109E+05,      /* I =383 */
(PID.TID 0000.0001)                 3.015922136961168E+05       /* I =384 */
(PID.TID 0000.0001)     ;
(PID.TID 0000.0001) dxV =  /* dxV(1,:,1,:) ( units: m ) */
(PID.TID 0000.0001)                 8.015229982413632E+04,      /* J =  1 */
(PID.TID 0000.0001)                 1.362652340208229E+05,      /* J =  2 */
(PID.TID 0000.0001)                 1.701080315742101E+05,      /* J =  3 */
(PID.TID 0000.0001)                 1.942331448101592E+05,      /* J =  4 */
(PID.TID 0000.0001)                 2.133486626971531E+05,      /* J =  5 */
(PID.TID 0000.0001)                 2.292584591272880E+05,      /* J =  6 */
(PID.TID 0000.0001)                 2.428369969078989E+05,      /* J =  7 */
(PID.TID 0000.0001)                 2.545652950875683E+05,      /* J =  8 */
(PID.TID 0000.0001)                 2.647274964828301E+05,      /* J =  9 */
(PID.TID 0000.0001)                 2.734980225206389E+05,      /* J = 10 */
(PID.TID 0000.0001)                 2.809856491525217E+05,      /* J = 11 */
(PID.TID 0000.0001)                 2.872580915202295E+05,      /* J = 12 */
(PID.TID 0000.0001)                 2.923567890694162E+05,      /* J = 13 */
(PID.TID 0000.0001)                 2.963063101754721E+05,      /* J = 14 */
(PID.TID 0000.0001)                 2.991205495886625E+05,      /* J = 15 */
(PID.TID 0000.0001)                 3.008068453676764E+05       /* J = 16 */
(PID.TID 0000.0001)     ;
(PID.TID 0000.0001) dyU =  /* dyU(:,1,:,1) ( units: m ) */
(PID.TID 0000.0001)                 8.015229982413632E+04,      /* I =  1 */
(PID.TID 0000.0001)                 1.362652340208229E+05,      /* I =  2 */
(PID.TID 0000.0001)                 1.701080315742101E+05,      /* I =  3 */
(PID.TID 0000.0001)      . . .
(PID.TID 0000.0001)                 1.942331448101592E+05,      /* I = 94 */
(PID.TID 0000.0001)                 1.701080315742101E+05,      /* I = 95 */
(PID.TID 0000.0001)                 1.362652340208229E+05,      /* I = 96 */
(PID.TID 0000.0001)                 3.013031486919771E+05,      /* I = 97 */
(PID.TID 0000.0001)                 3.015274890091515E+05,      /* I = 98 */
(PID.TID 0000.0001)                 3.021908563699420E+05,      /* I = 99 */
(PID.TID 0000.0001)      . . .
(PID.TID 0000.0001)                 3.032648502024415E+05,      /* I =190 */
(PID.TID 0000.0001)                 3.021908563699420E+05,      /* I =191 */
(PID.TID 0000.0001)                 3.015274890091515E+05,      /* I =192 */
(PID.TID 0000.0001)                 8.015229982413632E+04,      /* I =193 */
(PID.TID 0000.0001)                 1.362652340208229E+05,      /* I =194 */
(PID.TID 0000.0001)                 1.701080315742101E+05,      /* I =195 */
(PID.TID 0000.0001)      . . .
(PID.TID 0000.0001)                 1.942331448101592E+05,      /* I =286 */
(PID.TID 0000.0001)                 1.701080315742101E+05,      /* I =287 */
(PID.TID 0000.0001)                 1.362652340208229E+05,      /* I =288 */
(PID.TID 0000.0001)                 3.013031486919771E+05,      /* I =289 */
(PID.TID 0000.0001)                 3.015274890091515E+05,      /* I =290 */
(PID.TID 0000.0001)                 3.021908563699420E+05,      /* I =291 */
(PID.TID 0000.0001)      . . .
(PID.TID 0000.0001)                 3.032648502024415E+05,      /* I =382 */
(PID.TID 0000.0001)                 3.021908563699420E+05,      /* I =383 */
(PID.TID 0000.0001)                 3.015274890091515E+05       /* I =384 */
(PID.TID 0000.0001)     ;
(PID.TID 0000.0001) dyU =  /* dyU(1,:,1,:) ( units: m ) */
(PID.TID 0000.0001)                 8.015229982413632E+04,      /* J =  1 */
(PID.TID 0000.0001)                 1.333130744933864E+05,      /* J =  2 */
(PID.TID 0000.0001)                 1.691744868129062E+05,      /* J =  3 */
(PID.TID 0000.0001)                 1.937548202849060E+05,      /* J =  4 */
(PID.TID 0000.0001)                 2.130490056267208E+05,      /* J =  5 */
(PID.TID 0000.0001)                 2.290479919481738E+05,      /* J =  6 */
(PID.TID 0000.0001)                 2.426774358027003E+05,      /* J =  7 */
(PID.TID 0000.0001)                 2.544372984215561E+05,      /* J =  8 */
(PID.TID 0000.0001)                 2.646201463834826E+05,      /* J =  9 */
(PID.TID 0000.0001)                 2.734046499619031E+05,      /* J = 10 */
(PID.TID 0000.0001)                 2.809019351693761E+05,      /* J = 11 */
(PID.TID 0000.0001)                 2.871811105274442E+05,      /* J = 12 */
(PID.TID 0000.0001)                 2.922844849381675E+05,      /* J = 13 */
(PID.TID 0000.0001)                 2.962371870847826E+05,      /* J = 14 */
(PID.TID 0000.0001)                 2.990534755671296E+05,      /* J = 15 */
(PID.TID 0000.0001)                 3.007409169495504E+05       /* J = 16 */
(PID.TID 0000.0001)     ;
(PID.TID 0000.0001) rA  =  /* rA (:,1,:,1) ( units: m^2 ) */
(PID.TID 0000.0001)                 1.401900702255611E+10,      /* I =  1 */
(PID.TID 0000.0001)                 2.459906945574446E+10,      /* I =  2 */
(PID.TID 0000.0001)                 3.378518544307869E+10,      /* I =  3 */
(PID.TID 0000.0001)      . . .
(PID.TID 0000.0001)                 3.378518544304265E+10,      /* I = 94 */
(PID.TID 0000.0001)                 2.459906945574446E+10,      /* I = 95 */
(PID.TID 0000.0001)                 1.401900702259215E+10,      /* I = 96 */
(PID.TID 0000.0001)                 9.076111290422060E+10,      /* I = 97 */
(PID.TID 0000.0001)                 9.103111035233499E+10,      /* I = 98 */
(PID.TID 0000.0001)                 9.156064070993231E+10,      /* I = 99 */
(PID.TID 0000.0001)      . . .
(PID.TID 0000.0001)                 9.156064070993231E+10,      /* I =190 */
(PID.TID 0000.0001)                 9.103111035233499E+10,      /* I =191 */
(PID.TID 0000.0001)                 9.076111290418457E+10,      /* I =192 */
(PID.TID 0000.0001)                 1.401900702255611E+10,      /* I =193 */
(PID.TID 0000.0001)                 2.459906945574446E+10,      /* I =194 */
(PID.TID 0000.0001)                 3.378518544307869E+10,      /* I =195 */
(PID.TID 0000.0001)      . . .
(PID.TID 0000.0001)                 3.378518544304265E+10,      /* I =286 */
(PID.TID 0000.0001)                 2.459906945574446E+10,      /* I =287 */
(PID.TID 0000.0001)                 1.401900702259215E+10,      /* I =288 */
(PID.TID 0000.0001)                 9.076111290422060E+10,      /* I =289 */
(PID.TID 0000.0001)                 9.103111035233499E+10,      /* I =290 */
(PID.TID 0000.0001)                 9.156064070993231E+10,      /* I =291 */
(PID.TID 0000.0001)      . . .
(PID.TID 0000.0001)                 9.156064070993231E+10,      /* I =382 */
(PID.TID 0000.0001)                 9.103111035233499E+10,      /* I =383 */
(PID.TID 0000.0001)                 9.076111290418457E+10       /* I =384 */
(PID.TID 0000.0001)     ;
(PID.TID 0000.0001) rA  =  /* rA (1,:,1,:) ( units: m^2 ) */
(PID.TID 0000.0001)                 1.401900702255611E+10,      /* J =  1 */
(PID.TID 0000.0001)                 2.459906945574446E+10,      /* J =  2 */
(PID.TID 0000.0001)                 3.378518544307869E+10,      /* J =  3 */
(PID.TID 0000.0001)                 4.192037169898667E+10,      /* J =  4 */
(PID.TID 0000.0001)                 4.925938996118163E+10,      /* J =  5 */
(PID.TID 0000.0001)                 5.594154126607553E+10,      /* J =  6 */
(PID.TID 0000.0001)                 6.203683527776127E+10,      /* J =  7 */
(PID.TID 0000.0001)                 6.757541173817516E+10,      /* J =  8 */
(PID.TID 0000.0001)                 7.256353271748119E+10,      /* J =  9 */
(PID.TID 0000.0001)                 7.699293007098555E+10,      /* J = 10 */
(PID.TID 0000.0001)                 8.084683449728902E+10,      /* J = 11 */
(PID.TID 0000.0001)                 8.410423102799828E+10,      /* J = 12 */
(PID.TID 0000.0001)                 8.674306976737517E+10,      /* J = 13 */
(PID.TID 0000.0001)                 8.874277443041928E+10,      /* J = 14 */
(PID.TID 0000.0001)                 9.008620045350865E+10,      /* J = 15 */
(PID.TID 0000.0001)                 9.076111290418457E+10       /* J = 16 */
(PID.TID 0000.0001)     ;
(PID.TID 0000.0001) rAw =  /* rAw(:,1,:,1) ( units: m^2 ) */
(PID.TID 0000.0001)                 1.216690346714270E+10,      /* I =  1 */
(PID.TID 0000.0001)                 1.974052138506315E+10,      /* I =  2 */
(PID.TID 0000.0001)                 2.943712825252015E+10,      /* I =  3 */
(PID.TID 0000.0001)      . . .
(PID.TID 0000.0001)                 3.801790263325260E+10,      /* I = 94 */
(PID.TID 0000.0001)                 2.943712825251114E+10,      /* I = 95 */
(PID.TID 0000.0001)                 1.974052138509018E+10,      /* I = 96 */
(PID.TID 0000.0001)                 9.071447638299399E+10,      /* I = 97 */
(PID.TID 0000.0001)                 9.085012105610597E+10,      /* I = 98 */
(PID.TID 0000.0001)                 9.125179254955583E+10,      /* I = 99 */
(PID.TID 0000.0001)      . . .
(PID.TID 0000.0001)                 9.190392048045309E+10,      /* I =190 */
(PID.TID 0000.0001)                 9.125179254954683E+10,      /* I =191 */
(PID.TID 0000.0001)                 9.085012105606993E+10,      /* I =192 */
(PID.TID 0000.0001)                 1.216690346714270E+10,      /* I =193 */
(PID.TID 0000.0001)                 1.974052138506315E+10,      /* I =194 */
(PID.TID 0000.0001)                 2.943712825252015E+10,      /* I =195 */
(PID.TID 0000.0001)      . . .
(PID.TID 0000.0001)                 3.801790263325260E+10,      /* I =286 */
(PID.TID 0000.0001)                 2.943712825251114E+10,      /* I =287 */
(PID.TID 0000.0001)                 1.974052138509018E+10,      /* I =288 */
(PID.TID 0000.0001)                 9.071447638299399E+10,      /* I =289 */
(PID.TID 0000.0001)                 9.085012105610597E+10,      /* I =290 */
(PID.TID 0000.0001)                 9.125179254955583E+10,      /* I =291 */
(PID.TID 0000.0001)      . . .
(PID.TID 0000.0001)                 9.190392048045309E+10,      /* I =382 */
(PID.TID 0000.0001)                 9.125179254954683E+10,      /* I =383 */
(PID.TID 0000.0001)                 9.085012105606993E+10       /* I =384 */
(PID.TID 0000.0001)     ;
(PID.TID 0000.0001) rAw =  /* rAw(1,:,1,:) ( units: m^2 ) */
(PID.TID 0000.0001)                 1.216690346714270E+10,      /* J =  1 */
(PID.TID 0000.0001)                 2.390126200743558E+10,      /* J =  2 */
(PID.TID 0000.0001)                 3.341968103208270E+10,      /* J =  3 */
(PID.TID 0000.0001)                 4.168532893152940E+10,      /* J =  4 */
(PID.TID 0000.0001)                 4.909074590409593E+10,      /* J =  5 */
(PID.TID 0000.0001)                 5.581203765722643E+10,      /* J =  6 */
(PID.TID 0000.0001)                 6.193257577506788E+10,      /* J =  7 */
(PID.TID 0000.0001)                 6.748840226738273E+10,      /* J =  8 */
(PID.TID 0000.0001)                 7.248875782324815E+10,      /* J =  9 */
(PID.TID 0000.0001)                 7.692702995909871E+10,      /* J = 10 */
(PID.TID 0000.0001)                 8.078743937057304E+10,      /* J = 11 */
(PID.TID 0000.0001)                 8.404959656062837E+10,      /* J = 12 */
(PID.TID 0000.0001)                 8.669186205742538E+10,      /* J = 13 */
(PID.TID 0000.0001)                 8.869393350723613E+10,      /* J = 14 */
(PID.TID 0000.0001)                 9.003884657168852E+10,      /* J = 15 */
(PID.TID 0000.0001)                 9.071447638299399E+10       /* J = 16 */
(PID.TID 0000.0001)     ;
(PID.TID 0000.0001) rAs =  /* rAs(:,1,:,1) ( units: m^2 ) */
(PID.TID 0000.0001)                 1.216690346714270E+10,      /* I =  1 */
(PID.TID 0000.0001)                 2.390126200743558E+10,      /* I =  2 */
(PID.TID 0000.0001)                 3.341968103208270E+10,      /* I =  3 */
(PID.TID 0000.0001)      . . .
(PID.TID 0000.0001)                 3.341968103208270E+10,      /* I = 94 */
(PID.TID 0000.0001)                 2.390126200743558E+10,      /* I = 95 */
(PID.TID 0000.0001)                 1.216690346714270E+10,      /* I = 96 */
(PID.TID 0000.0001)                 9.083293515008307E+10,      /* I = 97 */
(PID.TID 0000.0001)                 9.110170898494536E+10,      /* I = 98 */
(PID.TID 0000.0001)                 9.162886297688426E+10,      /* I = 99 */
(PID.TID 0000.0001)      . . .
(PID.TID 0000.0001)                 9.162886297688426E+10,      /* I =190 */
(PID.TID 0000.0001)                 9.110170898494536E+10,      /* I =191 */
(PID.TID 0000.0001)                 9.083293515008307E+10,      /* I =192 */
(PID.TID 0000.0001)                 1.216690346714270E+10,      /* I =193 */
(PID.TID 0000.0001)                 2.390126200743558E+10,      /* I =194 */
(PID.TID 0000.0001)                 3.341968103208270E+10,      /* I =195 */
(PID.TID 0000.0001)      . . .
(PID.TID 0000.0001)                 3.341968103208270E+10,      /* I =286 */
(PID.TID 0000.0001)                 2.390126200743558E+10,      /* I =287 */
(PID.TID 0000.0001)                 1.216690346714270E+10,      /* I =288 */
(PID.TID 0000.0001)                 9.083293515008307E+10,      /* I =289 */
(PID.TID 0000.0001)                 9.110170898494536E+10,      /* I =290 */
(PID.TID 0000.0001)                 9.162886297688426E+10,      /* I =291 */
(PID.TID 0000.0001)      . . .
(PID.TID 0000.0001)                 9.162886297688426E+10,      /* I =382 */
(PID.TID 0000.0001)                 9.110170898494536E+10,      /* I =383 */
(PID.TID 0000.0001)                 9.083293515008307E+10       /* I =384 */
(PID.TID 0000.0001)     ;
(PID.TID 0000.0001) rAs =  /* rAs(1,:,1,:) ( units: m^2 ) */
(PID.TID 0000.0001)                 1.216690346714270E+10,      /* J =  1 */
(PID.TID 0000.0001)                 1.974052138506315E+10,      /* J =  2 */
(PID.TID 0000.0001)                 2.943712825252015E+10,      /* J =  3 */
(PID.TID 0000.0001)                 3.801790263324359E+10,      /* J =  4 */
(PID.TID 0000.0001)                 4.571243814189866E+10,      /* J =  5 */
(PID.TID 0000.0001)                 5.269930713599979E+10,      /* J =  6 */
(PID.TID 0000.0001)                 5.907428494299063E+10,      /* J =  7 */
(PID.TID 0000.0001)                 6.488320895111514E+10,      /* J =  8 */
(PID.TID 0000.0001)                 7.014205907741882E+10,      /* J =  9 */
(PID.TID 0000.0001)                 7.484854821847499E+10,      /* J = 10 */
(PID.TID 0000.0001)                 7.898934631431560E+10,      /* J = 11 */
(PID.TID 0000.0001)                 8.254500894894537E+10,      /* J = 12 */
(PID.TID 0000.0001)                 8.549360686473492E+10,      /* J = 13 */
(PID.TID 0000.0001)                 8.781353403175085E+10,      /* J = 14 */
(PID.TID 0000.0001)                 8.948571540392021E+10,      /* J = 15 */
(PID.TID 0000.0001)                 9.049530583086168E+10       /* J = 16 */
(PID.TID 0000.0001)     ;
(PID.TID 0000.0001) globalArea = /* Integrated horizontal Area (m^2) */
(PID.TID 0000.0001)                 3.638867375081599E+14
(PID.TID 0000.0001)     ;
(PID.TID 0000.0001) rAc_3dMean = /* 3-D Averaged grid-cell Area (m^2) */
(PID.TID 0000.0001)                 8.193292328209888E+10
(PID.TID 0000.0001)     ;
(PID.TID 0000.0001) n2dWetPts = /* Number of wet surface points (-) */
(PID.TID 0000.0001)                 4.420000000000000E+03
(PID.TID 0000.0001)     ;
(PID.TID 0000.0001) n3dWetPts = /* Number of wet grid points (-) */
(PID.TID 0000.0001)                 5.552200000000000E+04
(PID.TID 0000.0001)     ;
(PID.TID 0000.0001) hasWetCSCorners = /* Domain contains CS corners (True/False) */
(PID.TID 0000.0001)                   T
(PID.TID 0000.0001)     ;
(PID.TID 0000.0001) // =======================================================
(PID.TID 0000.0001) // End of Model config. summary
(PID.TID 0000.0001) // =======================================================
(PID.TID 0000.0001) 
(PID.TID 0000.0001) == Packages configuration : Check & print summary ==
(PID.TID 0000.0001) 
(PID.TID 0000.0001) GMREDI_CHECK: #define GMREDI
(PID.TID 0000.0001) GM_AdvForm =     /* if FALSE => use SkewFlux Form */
(PID.TID 0000.0001)                   F
(PID.TID 0000.0001)     ;
(PID.TID 0000.0001) GM_InMomAsStress = /* if TRUE => apply as Eddy Stress */
(PID.TID 0000.0001)                   F
(PID.TID 0000.0001)     ;
(PID.TID 0000.0001) GM_AdvSeparate = /* Calc Bolus & Euler Adv. separately */
(PID.TID 0000.0001)                   F
(PID.TID 0000.0001)     ;
(PID.TID 0000.0001) GM_ExtraDiag =   /* Tensor Extra Diag (line 1&2) non 0 */
(PID.TID 0000.0001)                   F
(PID.TID 0000.0001)     ;
(PID.TID 0000.0001) GM_isopycK =    /* Background Isopyc. Diffusivity [m^2/s] */
(PID.TID 0000.0001)                 1.000000000000000E+03
(PID.TID 0000.0001)     ;
(PID.TID 0000.0001) GM_advec*K =    /* Backg. GM-Advec(=Bolus) Diffusivity [m^2/s] */
(PID.TID 0000.0001)                 0.000000000000000E+00
(PID.TID 0000.0001)     ;
(PID.TID 0000.0001) GM_skewflx*K =  /* Background GM_SkewFlx Diffusivity [m^2/s] */
(PID.TID 0000.0001)                 1.000000000000000E+03
(PID.TID 0000.0001)     ;
(PID.TID 0000.0001) GM_isoFac_calcK = /* Fraction of dynamic K added to Redi tensor */
(PID.TID 0000.0001)                 1.000000000000000E+00
(PID.TID 0000.0001)     ;
(PID.TID 0000.0001) GM_Kmin_horiz = /* Minimum Horizontal Diffusivity [m^2/s] */
(PID.TID 0000.0001)                 5.000000000000000E+01
(PID.TID 0000.0001)     ;
(PID.TID 0000.0001) GM_Visbeck_alpha = /* Visbeck alpha coeff. [-] */
(PID.TID 0000.0001)                 0.000000000000000E+00
(PID.TID 0000.0001)     ;
(PID.TID 0000.0001) GM_Small_Number =  /* epsilon used in slope calc */
(PID.TID 0000.0001)                 9.999999999999999E-21
(PID.TID 0000.0001)     ;
(PID.TID 0000.0001) GM_slopeSqCutoff = /* Slope^2 cut-off value */
(PID.TID 0000.0001)                 1.000000000000000E+08
(PID.TID 0000.0001)     ;
(PID.TID 0000.0001) GM_taper_scheme =  /* Type of Tapering/Clipping scheme */
(PID.TID 0000.0001)               'dm95                                    '
(PID.TID 0000.0001)     ;
(PID.TID 0000.0001) GM_maxSlope =  /* Maximum Slope (Tapering/Clipping) */
(PID.TID 0000.0001)                 1.000000000000000E-02
(PID.TID 0000.0001)     ;
(PID.TID 0000.0001) GM_facTrL2dz = /* Minimum Trans.Layer Thick. (factor of dz) */
(PID.TID 0000.0001)                 1.000000000000000E+00
(PID.TID 0000.0001)     ;
(PID.TID 0000.0001) GM_facTrL2ML = /* Max.Trans.Layer Thick. (factor of MxL Depth)*/
(PID.TID 0000.0001)                 5.000000000000000E+00
(PID.TID 0000.0001)     ;
(PID.TID 0000.0001) GM_maxTransLay = /* Maximum Transition Layer Thickness [m] */
(PID.TID 0000.0001)                 5.000000000000000E+02
(PID.TID 0000.0001)     ;
(PID.TID 0000.0001) GM_UseBVP = /* if TRUE => use bvp a la Ferrari et al. (2010) */
(PID.TID 0000.0001)                   F
(PID.TID 0000.0001)     ;
(PID.TID 0000.0001) GM_BVP_ModeNumber = /* Vertical mode number for BVP wave speed */
(PID.TID 0000.0001)                       1
(PID.TID 0000.0001)     ;
(PID.TID 0000.0001) GM_BVP_cMin = /* Minimum wave speed for BVP [m/s] */
(PID.TID 0000.0001)                 1.000000000000000E-01
(PID.TID 0000.0001)     ;
(PID.TID 0000.0001) GM_useSubMeso = /* if TRUE => use Sub-Meso param. (B.Fox-Kemper) */
(PID.TID 0000.0001)                   F
(PID.TID 0000.0001)     ;
(PID.TID 0000.0001) subMeso_Ceff = /* efficiency coeff. of Mixed-Layer Eddies [-] */
(PID.TID 0000.0001)                 7.000000000000001E-02
(PID.TID 0000.0001)     ;
(PID.TID 0000.0001) subMeso_invTau = /* inverse of Sub-Meso mixing time-scale [/s] */
(PID.TID 0000.0001)                 2.000000000000000E-06
(PID.TID 0000.0001)     ;
(PID.TID 0000.0001) subMeso_LfMin = /* minimum length-scale "Lf" [m] */
(PID.TID 0000.0001)                 1.000000000000000E+03
(PID.TID 0000.0001)     ;
(PID.TID 0000.0001) subMeso_Lmax = /* maximum grid-scale length [m] */
(PID.TID 0000.0001)                 1.100000000000000E+05
(PID.TID 0000.0001)     ;
(PID.TID 0000.0001) GM_useLeithQG = /* if TRUE => add QG Leith viscosity to GMRedi tensor */
(PID.TID 0000.0001)                   F
(PID.TID 0000.0001)     ;
(PID.TID 0000.0001) GM_useGEOM = /* using GEOMETRIC */
(PID.TID 0000.0001)                   F
(PID.TID 0000.0001)     ;
(PID.TID 0000.0001) EXF_CHECK: #define ALLOW_EXF
(PID.TID 0000.0001) SEAICE_CHECK: #define ALLOW_SEAICE
(PID.TID 0000.0001) CTRL_CHECK:  --> Starts to check CTRL set-up
(PID.TID 0000.0001) CTRL_CHECK:  <-- Ends Normally
(PID.TID 0000.0001) 
(PID.TID 0000.0001) COST_CHECK: #define ALLOW_COST
(PID.TID 0000.0001) GRDCHK_CHECK: grdchk package
(PID.TID 0000.0001) 
(PID.TID 0000.0001) // =======================================================
(PID.TID 0000.0001) // Gradient check configuration  >>> START <<<
(PID.TID 0000.0001) // =======================================================
(PID.TID 0000.0001) 
(PID.TID 0000.0001)   grdchkvarindex :                      1
(PID.TID 0000.0001)   matching CTRL xx_file:       "xx_theta"
(PID.TID 0000.0001)   eps =                         1.000E-02
(PID.TID 0000.0001)   First location:                       1
(PID.TID 0000.0001)   Last location:                        4
(PID.TID 0000.0001)   Increment:                            1
(PID.TID 0000.0001)   grdchkWhichProc:                      0
(PID.TID 0000.0001)   iLocTile =      1 ,   jLocTile =      1
(PID.TID 0000.0001) 
(PID.TID 0000.0001) // =======================================================
(PID.TID 0000.0001) // Gradient check configuration  >>> END <<<
(PID.TID 0000.0001) // =======================================================
(PID.TID 0000.0001) 
(PID.TID 0000.0001) GAD_CHECK: #define ALLOW_GENERIC_ADVDIFF
(PID.TID 0000.0001) // =======================================================
(PID.TID 0000.0001) // Check Model config. (CONFIG_CHECK):
(PID.TID 0000.0001) // CONFIG_CHECK : Normal End
(PID.TID 0000.0001) // =======================================================
(PID.TID 0000.0001) 
(PID.TID 0000.0001)  nRecords = 123 ; filePrec =  64 ; fileIter =     72000
(PID.TID 0000.0001)     nDims =   2 , dims:
(PID.TID 0000.0001)    1: 192   1 192
(PID.TID 0000.0001)    2:  32   1  32
(PID.TID 0000.0001)     nFlds =  11 , nFl3D =   8 , fields:
(PID.TID 0000.0001)  >Uvel    < >GuNm1   < >Vvel    < >GvNm1   < >Theta   < >GtNm1   < >Salt    < >GsNm1   < >EtaN    < >dEtaHdt < >EtaH    <
(PID.TID 0000.0001) missingVal=  1.00000000000000E+00 ; nTimRec =   0 , timeList:
(PID.TID 0000.0001) READ_MFLDS_3D_RL: read field: "Uvel    ", #   1 in fldList, rec=   1
(PID.TID 0000.0001) READ_MFLDS_3D_RL: read field: "Vvel    ", #   3 in fldList, rec=   3
(PID.TID 0000.0001) READ_MFLDS_3D_RL: read field: "Theta   ", #   5 in fldList, rec=   5
(PID.TID 0000.0001) READ_MFLDS_3D_RL: read field: "Salt    ", #   7 in fldList, rec=   7
(PID.TID 0000.0001) READ_MFLDS_3D_RL: read field: "GuNm1   ", #   2 in fldList, rec=   2
(PID.TID 0000.0001) READ_MFLDS_3D_RL: read field: "GvNm1   ", #   4 in fldList, rec=   4
(PID.TID 0000.0001) READ_MFLDS_3D_RL: read field: "EtaN    ", #   9 in fldList, rec= 121
(PID.TID 0000.0001) READ_MFLDS_3D_RL: read field: "dEtaHdt ", #  10 in fldList, rec= 122
(PID.TID 0000.0001) READ_MFLDS_3D_RL: read field: "EtaH    ", #  11 in fldList, rec= 123
(PID.TID 0000.0001) READ_MFLDS_CHECK: - normal end ; reset MFLDS file-name: pickup.0000072000
(PID.TID 0000.0001)  nRecords =  15 ; filePrec =  64 ; fileIter =     72000
(PID.TID 0000.0001)     nDims =   2 , dims:
(PID.TID 0000.0001)    1: 192   1 192
(PID.TID 0000.0001)    2:  32   1  32
(PID.TID 0000.0001)     nFlds =  15 , nFl3D =   0 , fields:
(PID.TID 0000.0001)  >siTICE  < >siYNEG  < >siHSNOW < >siUICE  < >siUICE_2< >siUICE_3< >siVICE  < >siVICE_2< >siVICE_3< >siHEFF  < >siHEFF_2< >siHEFF_3< >siAREA  < >siAREA_2< >siAREA_3<
(PID.TID 0000.0001) missingVal=  1.00000000000000E+00 ; nTimRec =   0 , timeList:
(PID.TID 0000.0001) READ_MFLDS_LEV_RL: read field: "siTICE  ", #   1 in fldList, rec=   1
(PID.TID 0000.0001) READ_MFLDS_3D_RL: read field: "siAREA  ", #  13 in fldList, rec=  13
(PID.TID 0000.0001) READ_MFLDS_3D_RL: read field: "siHEFF  ", #  10 in fldList, rec=  10
(PID.TID 0000.0001) READ_MFLDS_3D_RL: read field: "siHSNOW ", #   3 in fldList, rec=   3
(PID.TID 0000.0001) READ_MFLDS_3D_RL: read field: "siUICE  ", #   4 in fldList, rec=   4
(PID.TID 0000.0001) READ_MFLDS_3D_RL: read field: "siVICE  ", #   7 in fldList, rec=   7
(PID.TID 0000.0001) READ_MFLDS_CHECK: - normal end ; reset MFLDS file-name: pickup_seaice.0000072000
(PID.TID 0000.0001) // =======================================================
(PID.TID 0000.0001) // Begin MONITOR dynamic field statistics
(PID.TID 0000.0001) // =======================================================
(PID.TID 0000.0001) %MON time_tsnumber                =                 72000
(PID.TID 0000.0001) %MON time_secondsf                =   6.2208000000000E+09
(PID.TID 0000.0001) %MON dynstat_eta_max              =  -2.2041664480788E+00
(PID.TID 0000.0001) %MON dynstat_eta_min              =  -8.3368186317242E+00
(PID.TID 0000.0001) %MON dynstat_eta_mean             =  -3.2999269019401E+00
(PID.TID 0000.0001) %MON dynstat_eta_sd               =   8.8289254437965E-01
(PID.TID 0000.0001) %MON dynstat_eta_del2             =   2.4546251501318E-03
(PID.TID 0000.0001) %MON dynstat_uvel_max             =   2.1289733821794E-01
(PID.TID 0000.0001) %MON dynstat_uvel_min             =  -2.9128750750933E-01
(PID.TID 0000.0001) %MON dynstat_uvel_mean            =  -5.2860218230237E-04
(PID.TID 0000.0001) %MON dynstat_uvel_sd              =   1.4790330813737E-02
(PID.TID 0000.0001) %MON dynstat_uvel_del2            =   6.8248145743958E-05
(PID.TID 0000.0001) %MON dynstat_vvel_max             =   2.2199184704564E-01
(PID.TID 0000.0001) %MON dynstat_vvel_min             =  -2.0062292421344E-01
(PID.TID 0000.0001) %MON dynstat_vvel_mean            =  -4.0113294365963E-04
(PID.TID 0000.0001) %MON dynstat_vvel_sd              =   1.5242443278796E-02
(PID.TID 0000.0001) %MON dynstat_vvel_del2            =   6.3300374611828E-05
(PID.TID 0000.0001) %MON dynstat_wvel_max             =   1.0124735215525E-04
(PID.TID 0000.0001) %MON dynstat_wvel_min             =  -2.1390867107236E-04
(PID.TID 0000.0001) %MON dynstat_wvel_mean            =  -2.2881662065410E-09
(PID.TID 0000.0001) %MON dynstat_wvel_sd              =   5.3718089817332E-06
(PID.TID 0000.0001) %MON dynstat_wvel_del2            =   4.9515844278522E-08
(PID.TID 0000.0001) %MON dynstat_theta_max            =   3.1190145162975E+01
(PID.TID 0000.0001) %MON dynstat_theta_min            =  -2.0000000000000E+00
(PID.TID 0000.0001) %MON dynstat_theta_mean           =   3.0531070632180E+00
(PID.TID 0000.0001) %MON dynstat_theta_sd             =   4.9944713468841E+00
(PID.TID 0000.0001) %MON dynstat_theta_del2           =   2.9528142893868E-03
(PID.TID 0000.0001) %MON dynstat_salt_max             =   5.9479941764493E+01
(PID.TID 0000.0001) %MON dynstat_salt_min             =   1.7775579847672E+01
(PID.TID 0000.0001) %MON dynstat_salt_mean            =   3.4752520111249E+01
(PID.TID 0000.0001) %MON dynstat_salt_sd              =   4.8912632150922E-01
(PID.TID 0000.0001) %MON dynstat_salt_del2            =   1.3623675537366E-03
(PID.TID 0000.0001) %MON forcing_qnet_max             =   0.0000000000000E+00
(PID.TID 0000.0001) %MON forcing_qnet_min             =   0.0000000000000E+00
(PID.TID 0000.0001) %MON forcing_qnet_mean            =   0.0000000000000E+00
(PID.TID 0000.0001) %MON forcing_qnet_sd              =   0.0000000000000E+00
(PID.TID 0000.0001) %MON forcing_qnet_del2            =   0.0000000000000E+00
(PID.TID 0000.0001) %MON forcing_qsw_max              =   0.0000000000000E+00
(PID.TID 0000.0001) %MON forcing_qsw_min              =   0.0000000000000E+00
(PID.TID 0000.0001) %MON forcing_qsw_mean             =   0.0000000000000E+00
(PID.TID 0000.0001) %MON forcing_qsw_sd               =   0.0000000000000E+00
(PID.TID 0000.0001) %MON forcing_qsw_del2             =   0.0000000000000E+00
(PID.TID 0000.0001) %MON forcing_empmr_max            =   0.0000000000000E+00
(PID.TID 0000.0001) %MON forcing_empmr_min            =   0.0000000000000E+00
(PID.TID 0000.0001) %MON forcing_empmr_mean           =   0.0000000000000E+00
(PID.TID 0000.0001) %MON forcing_empmr_sd             =   0.0000000000000E+00
(PID.TID 0000.0001) %MON forcing_empmr_del2           =   0.0000000000000E+00
(PID.TID 0000.0001) %MON forcing_fu_max               =   0.0000000000000E+00
(PID.TID 0000.0001) %MON forcing_fu_min               =   0.0000000000000E+00
(PID.TID 0000.0001) %MON forcing_fu_mean              =   0.0000000000000E+00
(PID.TID 0000.0001) %MON forcing_fu_sd                =   0.0000000000000E+00
(PID.TID 0000.0001) %MON forcing_fu_del2              =   0.0000000000000E+00
(PID.TID 0000.0001) %MON forcing_fv_max               =   0.0000000000000E+00
(PID.TID 0000.0001) %MON forcing_fv_min               =   0.0000000000000E+00
(PID.TID 0000.0001) %MON forcing_fv_mean              =   0.0000000000000E+00
(PID.TID 0000.0001) %MON forcing_fv_sd                =   0.0000000000000E+00
(PID.TID 0000.0001) %MON forcing_fv_del2              =   0.0000000000000E+00
(PID.TID 0000.0001) %MON trAdv_CFL_u_max              =   0.0000000000000E+00
(PID.TID 0000.0001) %MON trAdv_CFL_v_max              =   0.0000000000000E+00
(PID.TID 0000.0001) %MON trAdv_CFL_w_max              =   0.0000000000000E+00
(PID.TID 0000.0001) %MON advcfl_uvel_max              =   8.3923803824552E-02
(PID.TID 0000.0001) %MON advcfl_vvel_max              =   8.3304632405312E-02
(PID.TID 0000.0001) %MON advcfl_wvel_max              =   6.9742298794914E-02
(PID.TID 0000.0001) %MON advcfl_W_hf_max              =   7.7160082019468E-02
(PID.TID 0000.0001) %MON pe_b_mean                    =   1.5559232407148E-02
(PID.TID 0000.0001) %MON ke_max                       =   4.1915507392132E-02
(PID.TID 0000.0001) %MON ke_mean                      =   2.0848176851410E-04
(PID.TID 0000.0001) %MON ke_vol                       =   1.3386015893205E+18
(PID.TID 0000.0001) %MON vort_r_min                   =  -1.2262915518822E-06
(PID.TID 0000.0001) %MON vort_r_max                   =   1.3011966935743E-06
(PID.TID 0000.0001) %MON vort_a_mean                  =  -2.0549865324846E-05
(PID.TID 0000.0001) %MON vort_a_sd                    =   7.5259723723248E-05
(PID.TID 0000.0001) %MON vort_p_mean                  =  -2.4806340990730E-05
(PID.TID 0000.0001) %MON vort_p_sd                    =   1.2827605093522E-04
(PID.TID 0000.0001) %MON surfExpan_theta_mean         =   4.0742649548195E-08
(PID.TID 0000.0001) %MON surfExpan_salt_mean          =   2.1717823146781E-08
(PID.TID 0000.0001) // =======================================================
(PID.TID 0000.0001) // End MONITOR dynamic field statistics
(PID.TID 0000.0001) // =======================================================
(PID.TID 0000.0001) // =======================================================
(PID.TID 0000.0001) // Begin MONITOR SEAICE statistics
(PID.TID 0000.0001) // =======================================================
(PID.TID 0000.0001) %MON seaice_tsnumber              =                 72000
(PID.TID 0000.0001) %MON seaice_time_sec              =   6.2208000000000E+09
(PID.TID 0000.0001) %MON seaice_uice_max              =   4.0000000000000E-01
(PID.TID 0000.0001) %MON seaice_uice_min              =  -4.0000000000000E-01
(PID.TID 0000.0001) %MON seaice_uice_mean             =  -1.4584960473672E-02
(PID.TID 0000.0001) %MON seaice_uice_sd               =   1.4252324186947E-01
(PID.TID 0000.0001) %MON seaice_uice_del2             =   7.2720843677207E-04
(PID.TID 0000.0001) %MON seaice_vice_max              =   3.7441285697502E-01
(PID.TID 0000.0001) %MON seaice_vice_min              =  -4.0000000000000E-01
(PID.TID 0000.0001) %MON seaice_vice_mean             =  -3.7542841261047E-02
(PID.TID 0000.0001) %MON seaice_vice_sd               =   1.5635165386930E-01
(PID.TID 0000.0001) %MON seaice_vice_del2             =   7.0861834440520E-04
(PID.TID 0000.0001) %MON seaice_area_max              =   1.0000000000000E+00
(PID.TID 0000.0001) %MON seaice_area_min              =   0.0000000000000E+00
(PID.TID 0000.0001) %MON seaice_area_mean             =   4.7593115319309E-02
(PID.TID 0000.0001) %MON seaice_area_sd               =   1.9132919249415E-01
(PID.TID 0000.0001) %MON seaice_area_del2             =   1.7116012833979E-03
(PID.TID 0000.0001) %MON seaice_heff_max              =   5.2000132254738E+00
(PID.TID 0000.0001) %MON seaice_heff_min              =   0.0000000000000E+00
(PID.TID 0000.0001) %MON seaice_heff_mean             =   8.4334854083991E-02
(PID.TID 0000.0001) %MON seaice_heff_sd               =   3.9995427486652E-01
(PID.TID 0000.0001) %MON seaice_heff_del2             =   2.4797179641400E-03
(PID.TID 0000.0001) %MON seaice_hsnow_max             =   0.0000000000000E+00
(PID.TID 0000.0001) %MON seaice_hsnow_min             =   0.0000000000000E+00
(PID.TID 0000.0001) %MON seaice_hsnow_mean            =   0.0000000000000E+00
(PID.TID 0000.0001) %MON seaice_hsnow_sd              =   0.0000000000000E+00
(PID.TID 0000.0001) %MON seaice_hsnow_del2            =   0.0000000000000E+00
(PID.TID 0000.0001) // =======================================================
(PID.TID 0000.0001) // End MONITOR SEAICE statistics
(PID.TID 0000.0001) // =======================================================
(PID.TID 0000.0001) whio : write lev 3 rec   1
(PID.TID 0000.0001) SOLVE_FOR_PRESSURE: putPmEinXvector =    F
 cg2d: Sum(rhs),rhsMax =   1.09891466460499E+02  2.01372754051185E+01
(PID.TID 0000.0001)      cg2d_init_res =   2.20768388554132E+00
(PID.TID 0000.0001)      cg2d_iters(min,last) =      -1     103
(PID.TID 0000.0001)      cg2d_last_res =   9.31498269433267E-10
(PID.TID 0000.0001) // =======================================================
(PID.TID 0000.0001) // Begin MONITOR dynamic field statistics
(PID.TID 0000.0001) // =======================================================
(PID.TID 0000.0001) %MON time_tsnumber                =                 72001
(PID.TID 0000.0001) %MON time_secondsf                =   6.2208864000000E+09
(PID.TID 0000.0001) %MON dynstat_eta_max              =  -2.2002366561548E+00
(PID.TID 0000.0001) %MON dynstat_eta_min              =  -8.4708591908738E+00
(PID.TID 0000.0001) %MON dynstat_eta_mean             =  -3.2913632940063E+00
(PID.TID 0000.0001) %MON dynstat_eta_sd               =   8.6181268924047E-01
(PID.TID 0000.0001) %MON dynstat_eta_del2             =   2.6604061869327E-03
(PID.TID 0000.0001) %MON dynstat_uvel_max             =   2.1315870784198E-01
(PID.TID 0000.0001) %MON dynstat_uvel_min             =  -2.9096275115836E-01
(PID.TID 0000.0001) %MON dynstat_uvel_mean            =  -5.2639818539331E-04
(PID.TID 0000.0001) %MON dynstat_uvel_sd              =   1.4787457223845E-02
(PID.TID 0000.0001) %MON dynstat_uvel_del2            =   6.8212938805878E-05
(PID.TID 0000.0001) %MON dynstat_vvel_max             =   2.2158795724169E-01
(PID.TID 0000.0001) %MON dynstat_vvel_min             =  -2.0069036704923E-01
(PID.TID 0000.0001) %MON dynstat_vvel_mean            =  -4.0085699886452E-04
(PID.TID 0000.0001) %MON dynstat_vvel_sd              =   1.5243715703997E-02
(PID.TID 0000.0001) %MON dynstat_vvel_del2            =   6.3225029746793E-05
(PID.TID 0000.0001) %MON dynstat_wvel_max             =   1.0165529038128E-04
(PID.TID 0000.0001) %MON dynstat_wvel_min             =  -2.1363764816586E-04
(PID.TID 0000.0001) %MON dynstat_wvel_mean            =  -4.7500829205997E-08
(PID.TID 0000.0001) %MON dynstat_wvel_sd              =   5.3822551954721E-06
(PID.TID 0000.0001) %MON dynstat_wvel_del2            =   4.9753749256615E-08
(PID.TID 0000.0001) %MON dynstat_theta_max            =   3.1189589760386E+01
(PID.TID 0000.0001) %MON dynstat_theta_min            =  -3.4735689759531E+00
(PID.TID 0000.0001) %MON dynstat_theta_mean           =   3.0530765669799E+00
(PID.TID 0000.0001) %MON dynstat_theta_sd             =   4.9949379233070E+00
(PID.TID 0000.0001) %MON dynstat_theta_del2           =   2.9505178259245E-03
(PID.TID 0000.0001) %MON dynstat_salt_max             =   5.8465879349532E+01
(PID.TID 0000.0001) %MON dynstat_salt_min             =   1.7775797127033E+01
(PID.TID 0000.0001) %MON dynstat_salt_mean            =   3.4752446323025E+01
(PID.TID 0000.0001) %MON dynstat_salt_sd              =   4.8897558346340E-01
(PID.TID 0000.0001) %MON dynstat_salt_del2            =   1.3340932987217E-03
(PID.TID 0000.0001) %MON forcing_qnet_max             =   3.1816705936589E+03
(PID.TID 0000.0001) %MON forcing_qnet_min             =  -2.5031225998834E+02
(PID.TID 0000.0001) %MON forcing_qnet_mean            =   5.3977789919988E+00
(PID.TID 0000.0001) %MON forcing_qnet_sd              =   2.3638904298809E+02
(PID.TID 0000.0001) %MON forcing_qnet_del2            =   5.1969091300807E+00
(PID.TID 0000.0001) %MON forcing_qsw_max              =   0.0000000000000E+00
(PID.TID 0000.0001) %MON forcing_qsw_min              =  -3.0191527312954E+02
(PID.TID 0000.0001) %MON forcing_qsw_mean             =  -1.8243261285050E+02
(PID.TID 0000.0001) %MON forcing_qsw_sd               =   7.9864997331198E+01
(PID.TID 0000.0001) %MON forcing_qsw_del2             =   3.2963236410942E-01
(PID.TID 0000.0001) %MON forcing_empmr_max            =   1.4617630761920E-03
(PID.TID 0000.0001) %MON forcing_empmr_min            =  -9.1579235623174E-03
(PID.TID 0000.0001) %MON forcing_empmr_mean           =  -1.0258488670639E-04
(PID.TID 0000.0001) %MON forcing_empmr_sd             =   6.3954305083701E-04
(PID.TID 0000.0001) %MON forcing_empmr_del2           =   1.5222207386239E-05
(PID.TID 0000.0001) %MON forcing_fu_max               =   2.4760613571392E-01
(PID.TID 0000.0001) %MON forcing_fu_min               =  -2.9720558541057E-01
(PID.TID 0000.0001) %MON forcing_fu_mean              =  -4.8574762239531E-03
(PID.TID 0000.0001) %MON forcing_fu_sd                =   6.5597819869577E-02
(PID.TID 0000.0001) %MON forcing_fu_del2              =   2.5132883213106E-04
(PID.TID 0000.0001) %MON forcing_fv_max               =   2.5281098043587E-01
(PID.TID 0000.0001) %MON forcing_fv_min               =  -3.2691992401999E-01
(PID.TID 0000.0001) %MON forcing_fv_mean              =  -1.3320871311147E-02
(PID.TID 0000.0001) %MON forcing_fv_sd                =   7.6108888525108E-02
(PID.TID 0000.0001) %MON forcing_fv_del2              =   2.5878175496687E-04
(PID.TID 0000.0001) %MON trAdv_CFL_u_max              =   8.2059801261715E-02
(PID.TID 0000.0001) %MON trAdv_CFL_v_max              =   8.8598131853219E-02
(PID.TID 0000.0001) %MON trAdv_CFL_w_max              =   7.7062319462979E-02
(PID.TID 0000.0001) %MON advcfl_uvel_max              =   8.4001327606856E-02
(PID.TID 0000.0001) %MON advcfl_vvel_max              =   8.3382260607334E-02
(PID.TID 0000.0001) %MON advcfl_wvel_max              =   6.9653935100114E-02
(PID.TID 0000.0001) %MON advcfl_W_hf_max              =   7.7062319462979E-02
(PID.TID 0000.0001) %MON pe_b_mean                    =   1.4388713635723E-02
(PID.TID 0000.0001) %MON ke_max                       =   4.1793164358773E-02
(PID.TID 0000.0001) %MON ke_mean                      =   2.0845953667263E-04
(PID.TID 0000.0001) %MON ke_vol                       =   1.3386016457284E+18
(PID.TID 0000.0001) %MON vort_r_min                   =  -1.2311066222463E-06
(PID.TID 0000.0001) %MON vort_r_max                   =   1.2986356400129E-06
(PID.TID 0000.0001) %MON vort_a_mean                  =  -2.0549865324846E-05
(PID.TID 0000.0001) %MON vort_a_sd                    =   7.5259723668427E-05
(PID.TID 0000.0001) %MON vort_p_mean                  =  -2.4806339598239E-05
(PID.TID 0000.0001) %MON vort_p_sd                    =   1.2827603480084E-04
(PID.TID 0000.0001) %MON surfExpan_theta_mean         =   2.5716249958658E-08
(PID.TID 0000.0001) %MON surfExpan_salt_mean          =   1.1006188347502E-07
(PID.TID 0000.0001) // =======================================================
(PID.TID 0000.0001) // End MONITOR dynamic field statistics
(PID.TID 0000.0001) // =======================================================
(PID.TID 0000.0001) // =======================================================
(PID.TID 0000.0001) // Begin MONITOR SEAICE statistics
(PID.TID 0000.0001) // =======================================================
(PID.TID 0000.0001) %MON seaice_tsnumber              =                 72001
(PID.TID 0000.0001) %MON seaice_time_sec              =   6.2208864000000E+09
(PID.TID 0000.0001) %MON seaice_uice_max              =   4.0000000000000E-01
(PID.TID 0000.0001) %MON seaice_uice_min              =  -4.0000000000000E-01
(PID.TID 0000.0001) %MON seaice_uice_mean             =  -1.4634499218377E-02
(PID.TID 0000.0001) %MON seaice_uice_sd               =   1.4253329272489E-01
(PID.TID 0000.0001) %MON seaice_uice_del2             =   7.2742407146839E-04
(PID.TID 0000.0001) %MON seaice_vice_max              =   3.7309509524963E-01
(PID.TID 0000.0001) %MON seaice_vice_min              =  -4.0000000000000E-01
(PID.TID 0000.0001) %MON seaice_vice_mean             =  -3.7477548827354E-02
(PID.TID 0000.0001) %MON seaice_vice_sd               =   1.5648047049028E-01
(PID.TID 0000.0001) %MON seaice_vice_del2             =   7.0866812684509E-04
(PID.TID 0000.0001) %MON seaice_area_max              =   1.0000000000000E+00
(PID.TID 0000.0001) %MON seaice_area_min              =   0.0000000000000E+00
(PID.TID 0000.0001) %MON seaice_area_mean             =   4.0212622433394E-02
(PID.TID 0000.0001) %MON seaice_area_sd               =   1.8443190182333E-01
(PID.TID 0000.0001) %MON seaice_area_del2             =   1.6806128391519E-03
(PID.TID 0000.0001) %MON seaice_heff_max              =   5.1870108242973E+00
(PID.TID 0000.0001) %MON seaice_heff_min              =   0.0000000000000E+00
(PID.TID 0000.0001) %MON seaice_heff_mean             =   7.4976833285104E-02
(PID.TID 0000.0001) %MON seaice_heff_sd               =   3.8996995047933E-01
(PID.TID 0000.0001) %MON seaice_heff_del2             =   2.3122600378213E-03
(PID.TID 0000.0001) %MON seaice_hsnow_max             =   5.0439985670719E-03
(PID.TID 0000.0001) %MON seaice_hsnow_min             =   0.0000000000000E+00
(PID.TID 0000.0001) %MON seaice_hsnow_mean            =   8.4010922745971E-05
(PID.TID 0000.0001) %MON seaice_hsnow_sd              =   4.7234444427737E-04
(PID.TID 0000.0001) %MON seaice_hsnow_del2            =   5.4997593417980E-06
(PID.TID 0000.0001) // =======================================================
(PID.TID 0000.0001) // End MONITOR SEAICE statistics
(PID.TID 0000.0001) // =======================================================
 cg2d: Sum(rhs),rhsMax =   1.07767549210785E+02  2.05338889005634E+01
(PID.TID 0000.0001)      cg2d_init_res =   9.44279004011138E-01
(PID.TID 0000.0001)      cg2d_iters(min,last) =      -1      93
(PID.TID 0000.0001)      cg2d_last_res =   9.43512187517331E-10
(PID.TID 0000.0001) // =======================================================
(PID.TID 0000.0001) // Begin MONITOR dynamic field statistics
(PID.TID 0000.0001) // =======================================================
(PID.TID 0000.0001) %MON time_tsnumber                =                 72002
(PID.TID 0000.0001) %MON time_secondsf                =   6.2209728000000E+09
(PID.TID 0000.0001) %MON dynstat_eta_max              =  -2.2007714407219E+00
(PID.TID 0000.0001) %MON dynstat_eta_min              =  -8.5762334750258E+00
(PID.TID 0000.0001) %MON dynstat_eta_mean             =  -3.2913218830935E+00
(PID.TID 0000.0001) %MON dynstat_eta_sd               =   8.6160023860236E-01
(PID.TID 0000.0001) %MON dynstat_eta_del2             =   2.6964581539011E-03
(PID.TID 0000.0001) %MON dynstat_uvel_max             =   2.1337011059705E-01
(PID.TID 0000.0001) %MON dynstat_uvel_min             =  -2.9060032918991E-01
(PID.TID 0000.0001) %MON dynstat_uvel_mean            =  -5.2437582315267E-04
(PID.TID 0000.0001) %MON dynstat_uvel_sd              =   1.4785518973059E-02
(PID.TID 0000.0001) %MON dynstat_uvel_del2            =   6.8167811207251E-05
(PID.TID 0000.0001) %MON dynstat_vvel_max             =   2.2111447176588E-01
(PID.TID 0000.0001) %MON dynstat_vvel_min             =  -2.0075338726340E-01
(PID.TID 0000.0001) %MON dynstat_vvel_mean            =  -4.0006142418918E-04
(PID.TID 0000.0001) %MON dynstat_vvel_sd              =   1.5245768496994E-02
(PID.TID 0000.0001) %MON dynstat_vvel_del2            =   6.3150258503666E-05
(PID.TID 0000.0001) %MON dynstat_wvel_max             =   1.0217026725811E-04
(PID.TID 0000.0001) %MON dynstat_wvel_min             =  -2.1365825359248E-04
(PID.TID 0000.0001) %MON dynstat_wvel_mean            =  -1.1508454299655E-09
(PID.TID 0000.0001) %MON dynstat_wvel_sd              =   5.3828451638194E-06
(PID.TID 0000.0001) %MON dynstat_wvel_del2            =   4.9680135107383E-08
(PID.TID 0000.0001) %MON dynstat_theta_max            =   3.1188526493246E+01
(PID.TID 0000.0001) %MON dynstat_theta_min            =  -3.2443731366785E+00
(PID.TID 0000.0001) %MON dynstat_theta_mean           =   3.0532411623870E+00
(PID.TID 0000.0001) %MON dynstat_theta_sd             =   4.9952367095997E+00
(PID.TID 0000.0001) %MON dynstat_theta_del2           =   2.9305948512406E-03
(PID.TID 0000.0001) %MON dynstat_salt_max             =   5.8614957850830E+01
(PID.TID 0000.0001) %MON dynstat_salt_min             =   1.7775998853677E+01
(PID.TID 0000.0001) %MON dynstat_salt_mean            =   3.4752447924914E+01
(PID.TID 0000.0001) %MON dynstat_salt_sd              =   4.8899481710113E-01
(PID.TID 0000.0001) %MON dynstat_salt_del2            =   1.3285317188597E-03
(PID.TID 0000.0001) %MON forcing_qnet_max             =   5.9942992434858E+02
(PID.TID 0000.0001) %MON forcing_qnet_min             =  -4.8294751204719E+02
(PID.TID 0000.0001) %MON forcing_qnet_mean            =  -3.0310042645484E+01
(PID.TID 0000.0001) %MON forcing_qnet_sd              =   1.2117846142624E+02
(PID.TID 0000.0001) %MON forcing_qnet_del2            =   8.7426780719050E-01
(PID.TID 0000.0001) %MON forcing_qsw_max              =   0.0000000000000E+00
(PID.TID 0000.0001) %MON forcing_qsw_min              =  -3.0190327619373E+02
(PID.TID 0000.0001) %MON forcing_qsw_mean             =  -1.8424061078537E+02
(PID.TID 0000.0001) %MON forcing_qsw_sd               =   7.9756885590995E+01
(PID.TID 0000.0001) %MON forcing_qsw_del2             =   3.1467846941542E-01
(PID.TID 0000.0001) %MON forcing_empmr_max            =   2.1542704434400E-03
(PID.TID 0000.0001) %MON forcing_empmr_min            =  -7.1936797388403E-04
(PID.TID 0000.0001) %MON forcing_empmr_mean           =  -4.9606822600206E-07
(PID.TID 0000.0001) %MON forcing_empmr_sd             =   7.5700812044540E-05
(PID.TID 0000.0001) %MON forcing_empmr_del2           =   1.6277593794595E-06
(PID.TID 0000.0001) %MON forcing_fu_max               =   2.4755808644372E-01
(PID.TID 0000.0001) %MON forcing_fu_min               =  -2.8135545454636E-01
(PID.TID 0000.0001) %MON forcing_fu_mean              =  -4.7985312793168E-03
(PID.TID 0000.0001) %MON forcing_fu_sd                =   6.5257911769105E-02
(PID.TID 0000.0001) %MON forcing_fu_del2              =   2.4206213146874E-04
(PID.TID 0000.0001) %MON forcing_fv_max               =   2.5549422200851E-01
(PID.TID 0000.0001) %MON forcing_fv_min               =  -3.2770782795392E-01
(PID.TID 0000.0001) %MON forcing_fv_mean              =  -1.3290516338341E-02
(PID.TID 0000.0001) %MON forcing_fv_sd                =   7.6027171478589E-02
(PID.TID 0000.0001) %MON forcing_fv_del2              =   2.5708144889853E-04
(PID.TID 0000.0001) %MON trAdv_CFL_u_max              =   8.1957582415341E-02
(PID.TID 0000.0001) %MON trAdv_CFL_v_max              =   8.8678544112658E-02
(PID.TID 0000.0001) %MON trAdv_CFL_w_max              =   7.7069842865389E-02
(PID.TID 0000.0001) %MON advcfl_uvel_max              =   8.4085499041056E-02
(PID.TID 0000.0001) %MON advcfl_vvel_max              =   8.3457805307215E-02
(PID.TID 0000.0001) %MON advcfl_wvel_max              =   6.9660653246757E-02
(PID.TID 0000.0001) %MON advcfl_W_hf_max              =   7.7069842865389E-02
(PID.TID 0000.0001) %MON pe_b_mean                    =   1.4383159954138E-02
(PID.TID 0000.0001) %MON ke_max                       =   4.1665632241118E-02
(PID.TID 0000.0001) %MON ke_mean                      =   2.0846095577629E-04
(PID.TID 0000.0001) %MON ke_vol                       =   1.3386047619117E+18
(PID.TID 0000.0001) %MON vort_r_min                   =  -1.2362813404761E-06
(PID.TID 0000.0001) %MON vort_r_max                   =   1.2969163998993E-06
(PID.TID 0000.0001) %MON vort_a_mean                  =  -2.0549865324846E-05
(PID.TID 0000.0001) %MON vort_a_sd                    =   7.5259723706715E-05
(PID.TID 0000.0001) %MON vort_p_mean                  =  -2.4806281848042E-05
(PID.TID 0000.0001) %MON vort_p_sd                    =   1.2827526422624E-04
(PID.TID 0000.0001) %MON surfExpan_theta_mean         =  -4.6417572326980E-08
(PID.TID 0000.0001) %MON surfExpan_salt_mean          =   1.2127549654440E-08
(PID.TID 0000.0001) // =======================================================
(PID.TID 0000.0001) // End MONITOR dynamic field statistics
(PID.TID 0000.0001) // =======================================================
(PID.TID 0000.0001) // =======================================================
(PID.TID 0000.0001) // Begin MONITOR SEAICE statistics
(PID.TID 0000.0001) // =======================================================
(PID.TID 0000.0001) %MON seaice_tsnumber              =                 72002
(PID.TID 0000.0001) %MON seaice_time_sec              =   6.2209728000000E+09
(PID.TID 0000.0001) %MON seaice_uice_max              =   4.0000000000000E-01
(PID.TID 0000.0001) %MON seaice_uice_min              =  -4.0000000000000E-01
(PID.TID 0000.0001) %MON seaice_uice_mean             =  -1.4591043847883E-02
(PID.TID 0000.0001) %MON seaice_uice_sd               =   1.4244646031851E-01
(PID.TID 0000.0001) %MON seaice_uice_del2             =   7.2669292792698E-04
(PID.TID 0000.0001) %MON seaice_vice_max              =   3.6864375349356E-01
(PID.TID 0000.0001) %MON seaice_vice_min              =  -4.0000000000000E-01
(PID.TID 0000.0001) %MON seaice_vice_mean             =  -3.7487115182749E-02
(PID.TID 0000.0001) %MON seaice_vice_sd               =   1.5668670158614E-01
(PID.TID 0000.0001) %MON seaice_vice_del2             =   7.0926495935763E-04
(PID.TID 0000.0001) %MON seaice_area_max              =   1.0000000000000E+00
(PID.TID 0000.0001) %MON seaice_area_min              =   0.0000000000000E+00
(PID.TID 0000.0001) %MON seaice_area_mean             =   4.0651356642454E-02
(PID.TID 0000.0001) %MON seaice_area_sd               =   1.8678955351945E-01
(PID.TID 0000.0001) %MON seaice_area_del2             =   1.6806901093699E-03
(PID.TID 0000.0001) %MON seaice_heff_max              =   5.1925956726986E+00
(PID.TID 0000.0001) %MON seaice_heff_min              =   0.0000000000000E+00
(PID.TID 0000.0001) %MON seaice_heff_mean             =   7.5314896417742E-02
(PID.TID 0000.0001) %MON seaice_heff_sd               =   3.9147085125842E-01
(PID.TID 0000.0001) %MON seaice_heff_del2             =   2.3043999215635E-03
(PID.TID 0000.0001) %MON seaice_hsnow_max             =   9.9155277463648E-03
(PID.TID 0000.0001) %MON seaice_hsnow_min             =   0.0000000000000E+00
(PID.TID 0000.0001) %MON seaice_hsnow_mean            =   1.6737562705278E-04
(PID.TID 0000.0001) %MON seaice_hsnow_sd              =   9.4136036484466E-04
(PID.TID 0000.0001) %MON seaice_hsnow_del2            =   1.1084287496007E-05
(PID.TID 0000.0001) // =======================================================
(PID.TID 0000.0001) // End MONITOR SEAICE statistics
(PID.TID 0000.0001) // =======================================================
 cg2d: Sum(rhs),rhsMax =   1.06880725800578E+02  2.07023142075238E+01
(PID.TID 0000.0001)      cg2d_init_res =   9.65245992552428E-01
(PID.TID 0000.0001)      cg2d_iters(min,last) =      -1      93
(PID.TID 0000.0001)      cg2d_last_res =   9.47948874419548E-10
(PID.TID 0000.0001) // =======================================================
(PID.TID 0000.0001) // Begin MONITOR dynamic field statistics
(PID.TID 0000.0001) // =======================================================
(PID.TID 0000.0001) %MON time_tsnumber                =                 72003
(PID.TID 0000.0001) %MON time_secondsf                =   6.2210592000000E+09
(PID.TID 0000.0001) %MON dynstat_eta_max              =  -2.2021282320270E+00
(PID.TID 0000.0001) %MON dynstat_eta_min              =  -8.6118495597092E+00
(PID.TID 0000.0001) %MON dynstat_eta_mean             =  -3.2910117507602E+00
(PID.TID 0000.0001) %MON dynstat_eta_sd               =   8.6053607201218E-01
(PID.TID 0000.0001) %MON dynstat_eta_del2             =   2.6804938183996E-03
(PID.TID 0000.0001) %MON dynstat_uvel_max             =   2.1354838727313E-01
(PID.TID 0000.0001) %MON dynstat_uvel_min             =  -2.9020998521744E-01
(PID.TID 0000.0001) %MON dynstat_uvel_mean            =  -5.2309607160418E-04
(PID.TID 0000.0001) %MON dynstat_uvel_sd              =   1.4784134642631E-02
(PID.TID 0000.0001) %MON dynstat_uvel_del2            =   6.8122386358040E-05
(PID.TID 0000.0001) %MON dynstat_vvel_max             =   2.2057778495634E-01
(PID.TID 0000.0001) %MON dynstat_vvel_min             =  -2.0081302239812E-01
(PID.TID 0000.0001) %MON dynstat_vvel_mean            =  -3.9846396662028E-04
(PID.TID 0000.0001) %MON dynstat_vvel_sd              =   1.5249022434879E-02
(PID.TID 0000.0001) %MON dynstat_vvel_del2            =   6.3079543842361E-05
(PID.TID 0000.0001) %MON dynstat_wvel_max             =   1.0280222988351E-04
(PID.TID 0000.0001) %MON dynstat_wvel_min             =  -2.1357230579056E-04
(PID.TID 0000.0001) %MON dynstat_wvel_mean            =  -2.3277159240067E-09
(PID.TID 0000.0001) %MON dynstat_wvel_sd              =   5.4078790426328E-06
(PID.TID 0000.0001) %MON dynstat_wvel_del2            =   4.9997927275004E-08
(PID.TID 0000.0001) %MON dynstat_theta_max            =   3.1186977755023E+01
(PID.TID 0000.0001) %MON dynstat_theta_min            =  -3.2805307369696E+00
(PID.TID 0000.0001) %MON dynstat_theta_mean           =   3.0534091850783E+00
(PID.TID 0000.0001) %MON dynstat_theta_sd             =   4.9955441416084E+00
(PID.TID 0000.0001) %MON dynstat_theta_del2           =   2.9171030999354E-03
(PID.TID 0000.0001) %MON dynstat_salt_max             =   5.8576977403604E+01
(PID.TID 0000.0001) %MON dynstat_salt_min             =   1.7776185379146E+01
(PID.TID 0000.0001) %MON dynstat_salt_mean            =   3.4752444577087E+01
(PID.TID 0000.0001) %MON dynstat_salt_sd              =   4.8892554205021E-01
(PID.TID 0000.0001) %MON dynstat_salt_del2            =   1.3201452779716E-03
(PID.TID 0000.0001) %MON forcing_qnet_max             =   6.0105415903543E+02
(PID.TID 0000.0001) %MON forcing_qnet_min             =  -2.6530870128666E+02
(PID.TID 0000.0001) %MON forcing_qnet_mean            =  -2.9318274234713E+01
(PID.TID 0000.0001) %MON forcing_qnet_sd              =   1.2058843599106E+02
(PID.TID 0000.0001) %MON forcing_qnet_del2            =   9.0081465672862E-01
(PID.TID 0000.0001) %MON forcing_qsw_max              =   0.0000000000000E+00
(PID.TID 0000.0001) %MON forcing_qsw_min              =  -3.0189127925792E+02
(PID.TID 0000.0001) %MON forcing_qsw_mean             =  -1.8430407156535E+02
(PID.TID 0000.0001) %MON forcing_qsw_sd               =   7.9672646974051E+01
(PID.TID 0000.0001) %MON forcing_qsw_del2             =   3.0619145590748E-01
(PID.TID 0000.0001) %MON forcing_empmr_max            =   9.2755219591123E-04
(PID.TID 0000.0001) %MON forcing_empmr_min            =  -7.7868538500945E-04
(PID.TID 0000.0001) %MON forcing_empmr_mean           =  -3.7151269096934E-06
(PID.TID 0000.0001) %MON forcing_empmr_sd             =   6.5535566462448E-05
(PID.TID 0000.0001) %MON forcing_empmr_del2           =   1.6109157930173E-06
(PID.TID 0000.0001) %MON forcing_fu_max               =   2.4751003717351E-01
(PID.TID 0000.0001) %MON forcing_fu_min               =  -2.8699037952794E-01
(PID.TID 0000.0001) %MON forcing_fu_mean              =  -4.7313064847547E-03
(PID.TID 0000.0001) %MON forcing_fu_sd                =   6.5314689823190E-02
(PID.TID 0000.0001) %MON forcing_fu_del2              =   2.4510341036058E-04
(PID.TID 0000.0001) %MON forcing_fv_max               =   2.5817746358114E-01
(PID.TID 0000.0001) %MON forcing_fv_min               =  -3.2849573188785E-01
(PID.TID 0000.0001) %MON forcing_fv_mean              =  -1.3332617591206E-02
(PID.TID 0000.0001) %MON forcing_fv_sd                =   7.6027910620977E-02
(PID.TID 0000.0001) %MON forcing_fv_del2              =   2.5642466277040E-04
(PID.TID 0000.0001) %MON trAdv_CFL_u_max              =   8.1847503987536E-02
(PID.TID 0000.0001) %MON trAdv_CFL_v_max              =   8.8755898964425E-02
(PID.TID 0000.0001) %MON trAdv_CFL_w_max              =   7.7038871517070E-02
(PID.TID 0000.0001) %MON advcfl_uvel_max              =   8.4186033949385E-02
(PID.TID 0000.0001) %MON advcfl_vvel_max              =   8.3530633577545E-02
(PID.TID 0000.0001) %MON advcfl_wvel_max              =   6.9632631020015E-02
(PID.TID 0000.0001) %MON advcfl_W_hf_max              =   7.7038871517070E-02
(PID.TID 0000.0001) %MON pe_b_mean                    =   1.4377847010832E-02
(PID.TID 0000.0001) %MON ke_max                       =   4.1535620857042E-02
(PID.TID 0000.0001) %MON ke_mean                      =   2.0848697321460E-04
(PID.TID 0000.0001) %MON ke_vol                       =   1.3386047769806E+18
(PID.TID 0000.0001) %MON vort_r_min                   =  -1.2417645039614E-06
(PID.TID 0000.0001) %MON vort_r_max                   =   1.2952326766167E-06
(PID.TID 0000.0001) %MON vort_a_mean                  =  -2.0549865324846E-05
(PID.TID 0000.0001) %MON vort_a_sd                    =   7.5259723788492E-05
(PID.TID 0000.0001) %MON vort_p_mean                  =  -2.4806281024821E-05
(PID.TID 0000.0001) %MON vort_p_sd                    =   1.2827527460831E-04
(PID.TID 0000.0001) %MON surfExpan_theta_mean         =  -5.4372130152570E-08
(PID.TID 0000.0001) %MON surfExpan_salt_mean          =   1.5357801474946E-08
(PID.TID 0000.0001) // =======================================================
(PID.TID 0000.0001) // End MONITOR dynamic field statistics
(PID.TID 0000.0001) // =======================================================
(PID.TID 0000.0001) // =======================================================
(PID.TID 0000.0001) // Begin MONITOR SEAICE statistics
(PID.TID 0000.0001) // =======================================================
(PID.TID 0000.0001) %MON seaice_tsnumber              =                 72003
(PID.TID 0000.0001) %MON seaice_time_sec              =   6.2210592000000E+09
(PID.TID 0000.0001) %MON seaice_uice_max              =   4.0000000000000E-01
(PID.TID 0000.0001) %MON seaice_uice_min              =  -4.0000000000000E-01
(PID.TID 0000.0001) %MON seaice_uice_mean             =  -1.4513728310295E-02
(PID.TID 0000.0001) %MON seaice_uice_sd               =   1.4236740433937E-01
(PID.TID 0000.0001) %MON seaice_uice_del2             =   7.2715949468999E-04
(PID.TID 0000.0001) %MON seaice_vice_max              =   3.6446055573782E-01
(PID.TID 0000.0001) %MON seaice_vice_min              =  -4.0000000000000E-01
(PID.TID 0000.0001) %MON seaice_vice_mean             =  -3.7528844738786E-02
(PID.TID 0000.0001) %MON seaice_vice_sd               =   1.5680190362059E-01
(PID.TID 0000.0001) %MON seaice_vice_del2             =   7.0819049645250E-04
(PID.TID 0000.0001) %MON seaice_area_max              =   1.0000000000000E+00
(PID.TID 0000.0001) %MON seaice_area_min              =   0.0000000000000E+00
(PID.TID 0000.0001) %MON seaice_area_mean             =   4.0738534723973E-02
(PID.TID 0000.0001) %MON seaice_area_sd               =   1.8831023034036E-01
(PID.TID 0000.0001) %MON seaice_area_del2             =   1.6490135835646E-03
(PID.TID 0000.0001) %MON seaice_heff_max              =   5.1961666235276E+00
(PID.TID 0000.0001) %MON seaice_heff_min              =   0.0000000000000E+00
(PID.TID 0000.0001) %MON seaice_heff_mean             =   7.5345003709426E-02
(PID.TID 0000.0001) %MON seaice_heff_sd               =   3.9251731204934E-01
(PID.TID 0000.0001) %MON seaice_heff_del2             =   2.2888276894420E-03
(PID.TID 0000.0001) %MON seaice_hsnow_max             =   1.4851083548601E-02
(PID.TID 0000.0001) %MON seaice_hsnow_min             =  -1.3234889800848E-23
(PID.TID 0000.0001) %MON seaice_hsnow_mean            =   2.5232409530905E-04
(PID.TID 0000.0001) %MON seaice_hsnow_sd              =   1.4192056546427E-03
(PID.TID 0000.0001) %MON seaice_hsnow_del2            =   1.6924889752832E-05
(PID.TID 0000.0001) // =======================================================
(PID.TID 0000.0001) // End MONITOR SEAICE statistics
(PID.TID 0000.0001) // =======================================================
 cg2d: Sum(rhs),rhsMax =   1.06077230712686E+02  2.08570979434791E+01
(PID.TID 0000.0001)      cg2d_init_res =   9.34307122560689E-01
(PID.TID 0000.0001)      cg2d_iters(min,last) =      -1      91
(PID.TID 0000.0001)      cg2d_last_res =   9.67428032336304E-10
(PID.TID 0000.0001) // =======================================================
(PID.TID 0000.0001) // Begin MONITOR dynamic field statistics
(PID.TID 0000.0001) // =======================================================
(PID.TID 0000.0001) %MON time_tsnumber                =                 72004
(PID.TID 0000.0001) %MON time_secondsf                =   6.2211456000000E+09
(PID.TID 0000.0001) %MON dynstat_eta_max              =  -2.2035631527747E+00
(PID.TID 0000.0001) %MON dynstat_eta_min              =  -8.6096621842832E+00
(PID.TID 0000.0001) %MON dynstat_eta_mean             =  -3.2906917077014E+00
(PID.TID 0000.0001) %MON dynstat_eta_sd               =   8.5956774227215E-01
(PID.TID 0000.0001) %MON dynstat_eta_del2             =   2.6727659376887E-03
(PID.TID 0000.0001) %MON dynstat_uvel_max             =   2.1368118555219E-01
(PID.TID 0000.0001) %MON dynstat_uvel_min             =  -2.8979588978830E-01
(PID.TID 0000.0001) %MON dynstat_uvel_mean            =  -5.2231459119100E-04
(PID.TID 0000.0001) %MON dynstat_uvel_sd              =   1.4782945871229E-02
(PID.TID 0000.0001) %MON dynstat_uvel_del2            =   6.8076418124723E-05
(PID.TID 0000.0001) %MON dynstat_vvel_max             =   2.1997174775295E-01
(PID.TID 0000.0001) %MON dynstat_vvel_min             =  -2.0086797176867E-01
(PID.TID 0000.0001) %MON dynstat_vvel_mean            =  -3.9646837756528E-04
(PID.TID 0000.0001) %MON dynstat_vvel_sd              =   1.5252840633536E-02
(PID.TID 0000.0001) %MON dynstat_vvel_del2            =   6.3011346275283E-05
(PID.TID 0000.0001) %MON dynstat_wvel_max             =   1.0354260494831E-04
(PID.TID 0000.0001) %MON dynstat_wvel_min             =  -2.1350628564463E-04
(PID.TID 0000.0001) %MON dynstat_wvel_mean            =  -2.1796816669899E-09
(PID.TID 0000.0001) %MON dynstat_wvel_sd              =   5.4405649570488E-06
(PID.TID 0000.0001) %MON dynstat_wvel_del2            =   5.0377940290018E-08
(PID.TID 0000.0001) %MON dynstat_theta_max            =   3.1184963125357E+01
(PID.TID 0000.0001) %MON dynstat_theta_min            =  -3.2738850940805E+00
(PID.TID 0000.0001) %MON dynstat_theta_mean           =   3.0535766502263E+00
(PID.TID 0000.0001) %MON dynstat_theta_sd             =   4.9958557232569E+00
(PID.TID 0000.0001) %MON dynstat_theta_del2           =   2.9004444050788E-03
(PID.TID 0000.0001) %MON dynstat_salt_max             =   5.8556736103986E+01
(PID.TID 0000.0001) %MON dynstat_salt_min             =   1.7776356929063E+01
(PID.TID 0000.0001) %MON dynstat_salt_mean            =   3.4752441556189E+01
(PID.TID 0000.0001) %MON dynstat_salt_sd              =   4.8887151450261E-01
(PID.TID 0000.0001) %MON dynstat_salt_del2            =   1.3122312002299E-03
(PID.TID 0000.0001) %MON forcing_qnet_max             =   6.0077507849690E+02
(PID.TID 0000.0001) %MON forcing_qnet_min             =  -2.6340471705318E+02
(PID.TID 0000.0001) %MON forcing_qnet_mean            =  -2.9314576679361E+01
(PID.TID 0000.0001) %MON forcing_qnet_sd              =   1.2051225800616E+02
(PID.TID 0000.0001) %MON forcing_qnet_del2            =   8.8875996264512E-01
(PID.TID 0000.0001) %MON forcing_qsw_max              =   0.0000000000000E+00
(PID.TID 0000.0001) %MON forcing_qsw_min              =  -3.0187928232211E+02
(PID.TID 0000.0001) %MON forcing_qsw_mean             =  -1.8440449458632E+02
(PID.TID 0000.0001) %MON forcing_qsw_sd               =   7.9568590728040E+01
(PID.TID 0000.0001) %MON forcing_qsw_del2             =   2.8975330652596E-01
(PID.TID 0000.0001) %MON forcing_empmr_max            =   7.4694753343706E-04
(PID.TID 0000.0001) %MON forcing_empmr_min            =  -8.4190478689088E-04
(PID.TID 0000.0001) %MON forcing_empmr_mean           =  -3.8338491422933E-06
(PID.TID 0000.0001) %MON forcing_empmr_sd             =   6.3020740169105E-05
(PID.TID 0000.0001) %MON forcing_empmr_del2           =   1.5976286177622E-06
(PID.TID 0000.0001) %MON forcing_fu_max               =   2.4746198790331E-01
(PID.TID 0000.0001) %MON forcing_fu_min               =  -2.9119010532175E-01
(PID.TID 0000.0001) %MON forcing_fu_mean              =  -4.6851789970894E-03
(PID.TID 0000.0001) %MON forcing_fu_sd                =   6.5355620869649E-02
(PID.TID 0000.0001) %MON forcing_fu_del2              =   2.4820378155718E-04
(PID.TID 0000.0001) %MON forcing_fv_max               =   2.6086070515377E-01
(PID.TID 0000.0001) %MON forcing_fv_min               =  -3.2928363582178E-01
(PID.TID 0000.0001) %MON forcing_fv_mean              =  -1.3351390157518E-02
(PID.TID 0000.0001) %MON forcing_fv_sd                =   7.6058350313032E-02
(PID.TID 0000.0001) %MON forcing_fv_del2              =   2.5605571324296E-04
(PID.TID 0000.0001) %MON trAdv_CFL_u_max              =   8.1730724219471E-02
(PID.TID 0000.0001) %MON trAdv_CFL_v_max              =   8.8825192759172E-02
(PID.TID 0000.0001) %MON trAdv_CFL_w_max              =   7.7015128227120E-02
(PID.TID 0000.0001) %MON advcfl_uvel_max              =   8.4298422926800E-02
(PID.TID 0000.0001) %MON advcfl_vvel_max              =   8.3595893946464E-02
(PID.TID 0000.0001) %MON advcfl_wvel_max              =   6.9611105961116E-02
(PID.TID 0000.0001) %MON advcfl_W_hf_max              =   7.7015128227120E-02
(PID.TID 0000.0001) %MON pe_b_mean                    =   1.4372846056354E-02
(PID.TID 0000.0001) %MON ke_max                       =   4.1404135439891E-02
(PID.TID 0000.0001) %MON ke_mean                      =   2.0852374173481E-04
(PID.TID 0000.0001) %MON ke_vol                       =   1.3386048898337E+18
(PID.TID 0000.0001) %MON vort_r_min                   =  -1.2474735118335E-06
(PID.TID 0000.0001) %MON vort_r_max                   =   1.2934720230298E-06
(PID.TID 0000.0001) %MON vort_a_mean                  =  -2.0549865324846E-05
(PID.TID 0000.0001) %MON vort_a_sd                    =   7.5259723787756E-05
(PID.TID 0000.0001) %MON vort_p_mean                  =  -2.4806278659333E-05
(PID.TID 0000.0001) %MON vort_p_sd                    =   1.2827525505586E-04
(PID.TID 0000.0001) %MON surfExpan_theta_mean         =  -5.6074891160389E-08
(PID.TID 0000.0001) %MON surfExpan_salt_mean          =   1.6712956957249E-08
(PID.TID 0000.0001) // =======================================================
(PID.TID 0000.0001) // End MONITOR dynamic field statistics
(PID.TID 0000.0001) // =======================================================
(PID.TID 0000.0001) // =======================================================
(PID.TID 0000.0001) // Begin MONITOR SEAICE statistics
(PID.TID 0000.0001) // =======================================================
(PID.TID 0000.0001) %MON seaice_tsnumber              =                 72004
(PID.TID 0000.0001) %MON seaice_time_sec              =   6.2211456000000E+09
(PID.TID 0000.0001) %MON seaice_uice_max              =   4.0000000000000E-01
(PID.TID 0000.0001) %MON seaice_uice_min              =  -4.0000000000000E-01
(PID.TID 0000.0001) %MON seaice_uice_mean             =  -1.4453050469011E-02
(PID.TID 0000.0001) %MON seaice_uice_sd               =   1.4227954108337E-01
(PID.TID 0000.0001) %MON seaice_uice_del2             =   7.2792194350432E-04
(PID.TID 0000.0001) %MON seaice_vice_max              =   3.6544363823221E-01
(PID.TID 0000.0001) %MON seaice_vice_min              =  -4.0000000000000E-01
(PID.TID 0000.0001) %MON seaice_vice_mean             =  -3.7550019526007E-02
(PID.TID 0000.0001) %MON seaice_vice_sd               =   1.5695062292002E-01
(PID.TID 0000.0001) %MON seaice_vice_del2             =   7.0805881872058E-04
(PID.TID 0000.0001) %MON seaice_area_max              =   1.0000000000000E+00
(PID.TID 0000.0001) %MON seaice_area_min              =   0.0000000000000E+00
(PID.TID 0000.0001) %MON seaice_area_mean             =   4.0867922746844E-02
(PID.TID 0000.0001) %MON seaice_area_sd               =   1.8949993610685E-01
(PID.TID 0000.0001) %MON seaice_area_del2             =   1.6363848735148E-03
(PID.TID 0000.0001) %MON seaice_heff_max              =   5.1998988829821E+00
(PID.TID 0000.0001) %MON seaice_heff_min              =   0.0000000000000E+00
(PID.TID 0000.0001) %MON seaice_heff_mean             =   7.5361104292128E-02
(PID.TID 0000.0001) %MON seaice_heff_sd               =   3.9347430023888E-01
(PID.TID 0000.0001) %MON seaice_heff_del2             =   2.2821546710087E-03
(PID.TID 0000.0001) %MON seaice_hsnow_max             =   1.9828777841928E-02
(PID.TID 0000.0001) %MON seaice_hsnow_min             =  -2.7105054312138E-20
(PID.TID 0000.0001) %MON seaice_hsnow_mean            =   3.3835510607772E-04
(PID.TID 0000.0001) %MON seaice_hsnow_sd              =   1.9032902190457E-03
(PID.TID 0000.0001) %MON seaice_hsnow_del2            =   2.2907053893399E-05
(PID.TID 0000.0001) // =======================================================
(PID.TID 0000.0001) // End MONITOR SEAICE statistics
(PID.TID 0000.0001) // =======================================================
 cg2d: Sum(rhs),rhsMax =   1.05455463559465E+02  2.09779533170759E+01
(PID.TID 0000.0001)      cg2d_init_res =   9.13037966871578E-01
(PID.TID 0000.0001)      cg2d_iters(min,last) =      -1      90
(PID.TID 0000.0001)      cg2d_last_res =   9.82161410380540E-10
(PID.TID 0000.0001) // =======================================================
(PID.TID 0000.0001) // Begin MONITOR dynamic field statistics
(PID.TID 0000.0001) // =======================================================
(PID.TID 0000.0001) %MON time_tsnumber                =                 72005
(PID.TID 0000.0001) %MON time_secondsf                =   6.2212320000000E+09
(PID.TID 0000.0001) %MON dynstat_eta_max              =  -2.2050739097006E+00
(PID.TID 0000.0001) %MON dynstat_eta_min              =  -8.5940870567439E+00
(PID.TID 0000.0001) %MON dynstat_eta_mean             =  -3.2903594368055E+00
(PID.TID 0000.0001) %MON dynstat_eta_sd               =   8.5870431662105E-01
(PID.TID 0000.0001) %MON dynstat_eta_del2             =   2.6739082611821E-03
(PID.TID 0000.0001) %MON dynstat_uvel_max             =   2.1376202324081E-01
(PID.TID 0000.0001) %MON dynstat_uvel_min             =  -2.8935969141266E-01
(PID.TID 0000.0001) %MON dynstat_uvel_mean            =  -5.2187483843765E-04
(PID.TID 0000.0001) %MON dynstat_uvel_sd              =   1.4782028927261E-02
(PID.TID 0000.0001) %MON dynstat_uvel_del2            =   6.8029697261639E-05
(PID.TID 0000.0001) %MON dynstat_vvel_max             =   2.1930506500195E-01
(PID.TID 0000.0001) %MON dynstat_vvel_min             =  -2.0091761887222E-01
(PID.TID 0000.0001) %MON dynstat_vvel_mean            =  -3.9436948274634E-04
(PID.TID 0000.0001) %MON dynstat_vvel_sd              =   1.5257065471528E-02
(PID.TID 0000.0001) %MON dynstat_vvel_del2            =   6.2945098291678E-05
(PID.TID 0000.0001) %MON dynstat_wvel_max             =   1.0437707794446E-04
(PID.TID 0000.0001) %MON dynstat_wvel_min             =  -2.1351680854384E-04
(PID.TID 0000.0001) %MON dynstat_wvel_mean            =  -2.0089780009713E-09
(PID.TID 0000.0001) %MON dynstat_wvel_sd              =   5.4773195265645E-06
(PID.TID 0000.0001) %MON dynstat_wvel_del2            =   5.0758077321089E-08
(PID.TID 0000.0001) %MON dynstat_theta_max            =   3.1182496156636E+01
(PID.TID 0000.0001) %MON dynstat_theta_min            =  -3.2733232333362E+00
(PID.TID 0000.0001) %MON dynstat_theta_mean           =   3.0537436925390E+00
(PID.TID 0000.0001) %MON dynstat_theta_sd             =   4.9961704574603E+00
(PID.TID 0000.0001) %MON dynstat_theta_del2           =   2.8842950445164E-03
(PID.TID 0000.0001) %MON dynstat_salt_max             =   5.8523488071055E+01
(PID.TID 0000.0001) %MON dynstat_salt_min             =   1.7776513697414E+01
(PID.TID 0000.0001) %MON dynstat_salt_mean            =   3.4752438364914E+01
(PID.TID 0000.0001) %MON dynstat_salt_sd              =   4.8881562172764E-01
(PID.TID 0000.0001) %MON dynstat_salt_del2            =   1.3044944241629E-03
(PID.TID 0000.0001) %MON forcing_qnet_max             =   6.0050530604601E+02
(PID.TID 0000.0001) %MON forcing_qnet_min             =  -2.5948186396033E+02
(PID.TID 0000.0001) %MON forcing_qnet_mean            =  -2.9251285145954E+01
(PID.TID 0000.0001) %MON forcing_qnet_sd              =   1.2035287284996E+02
(PID.TID 0000.0001) %MON forcing_qnet_del2            =   8.7935241338950E-01
(PID.TID 0000.0001) %MON forcing_qsw_max              =   0.0000000000000E+00
(PID.TID 0000.0001) %MON forcing_qsw_min              =  -3.0186728538630E+02
(PID.TID 0000.0001) %MON forcing_qsw_mean             =  -1.8446667841267E+02
(PID.TID 0000.0001) %MON forcing_qsw_sd               =   7.9460701257204E+01
(PID.TID 0000.0001) %MON forcing_qsw_del2             =   2.7848454701562E-01
(PID.TID 0000.0001) %MON forcing_empmr_max            =   6.1064475221922E-04
(PID.TID 0000.0001) %MON forcing_empmr_min            =  -8.9426629585263E-04
(PID.TID 0000.0001) %MON forcing_empmr_mean           =  -3.9803284403508E-06
(PID.TID 0000.0001) %MON forcing_empmr_sd             =   6.0949471868894E-05
(PID.TID 0000.0001) %MON forcing_empmr_del2           =   1.5826240271586E-06
(PID.TID 0000.0001) %MON forcing_fu_max               =   2.4741393863310E-01
(PID.TID 0000.0001) %MON forcing_fu_min               =  -2.9320361656678E-01
(PID.TID 0000.0001) %MON forcing_fu_mean              =  -4.6426795837201E-03
(PID.TID 0000.0001) %MON forcing_fu_sd                =   6.5389596746360E-02
(PID.TID 0000.0001) %MON forcing_fu_del2              =   2.4930822679909E-04
(PID.TID 0000.0001) %MON forcing_fv_max               =   2.6354394672640E-01
(PID.TID 0000.0001) %MON forcing_fv_min               =  -3.3007153975572E-01
(PID.TID 0000.0001) %MON forcing_fv_mean              =  -1.3365892068622E-02
(PID.TID 0000.0001) %MON forcing_fv_sd                =   7.6105960029525E-02
(PID.TID 0000.0001) %MON forcing_fv_del2              =   2.5651999902803E-04
(PID.TID 0000.0001) %MON trAdv_CFL_u_max              =   8.1607709480217E-02
(PID.TID 0000.0001) %MON trAdv_CFL_v_max              =   8.8886226392167E-02
(PID.TID 0000.0001) %MON trAdv_CFL_w_max              =   7.7018973198111E-02
(PID.TID 0000.0001) %MON advcfl_uvel_max              =   8.4419999021353E-02
(PID.TID 0000.0001) %MON advcfl_vvel_max              =   8.3653383683479E-02
(PID.TID 0000.0001) %MON advcfl_wvel_max              =   6.9614536823351E-02
(PID.TID 0000.0001) %MON advcfl_W_hf_max              =   7.7018973198111E-02
(PID.TID 0000.0001) %MON pe_b_mean                    =   1.4368146580948E-02
(PID.TID 0000.0001) %MON ke_max                       =   4.1271414372139E-02
(PID.TID 0000.0001) %MON ke_mean                      =   2.0857010677118E-04
(PID.TID 0000.0001) %MON ke_vol                       =   1.3386050062931E+18
(PID.TID 0000.0001) %MON vort_r_min                   =  -1.2533723122173E-06
(PID.TID 0000.0001) %MON vort_r_max                   =   1.2917618672180E-06
(PID.TID 0000.0001) %MON vort_a_mean                  =  -2.0549865324846E-05
(PID.TID 0000.0001) %MON vort_a_sd                    =   7.5259723671591E-05
(PID.TID 0000.0001) %MON vort_p_mean                  =  -2.4806276228010E-05
(PID.TID 0000.0001) %MON vort_p_sd                    =   1.2827524284755E-04
(PID.TID 0000.0001) %MON surfExpan_theta_mean         =  -5.6067246235369E-08
(PID.TID 0000.0001) %MON surfExpan_salt_mean          =   1.8353077342186E-08
(PID.TID 0000.0001) // =======================================================
(PID.TID 0000.0001) // End MONITOR dynamic field statistics
(PID.TID 0000.0001) // =======================================================
(PID.TID 0000.0001) // =======================================================
(PID.TID 0000.0001) // Begin MONITOR SEAICE statistics
(PID.TID 0000.0001) // =======================================================
(PID.TID 0000.0001) %MON seaice_tsnumber              =                 72005
(PID.TID 0000.0001) %MON seaice_time_sec              =   6.2212320000000E+09
(PID.TID 0000.0001) %MON seaice_uice_max              =   4.0000000000000E-01
(PID.TID 0000.0001) %MON seaice_uice_min              =  -4.0000000000000E-01
(PID.TID 0000.0001) %MON seaice_uice_mean             =  -1.4378950952487E-02
(PID.TID 0000.0001) %MON seaice_uice_sd               =   1.4219181743892E-01
(PID.TID 0000.0001) %MON seaice_uice_del2             =   7.2851174366343E-04
(PID.TID 0000.0001) %MON seaice_vice_max              =   3.6805967264387E-01
(PID.TID 0000.0001) %MON seaice_vice_min              =  -4.0000000000000E-01
(PID.TID 0000.0001) %MON seaice_vice_mean             =  -3.7569686948708E-02
(PID.TID 0000.0001) %MON seaice_vice_sd               =   1.5710653819073E-01
(PID.TID 0000.0001) %MON seaice_vice_del2             =   7.0873741495581E-04
(PID.TID 0000.0001) %MON seaice_area_max              =   1.0000000000000E+00
(PID.TID 0000.0001) %MON seaice_area_min              =   0.0000000000000E+00
(PID.TID 0000.0001) %MON seaice_area_mean             =   4.0876013786854E-02
(PID.TID 0000.0001) %MON seaice_area_sd               =   1.9035002332211E-01
(PID.TID 0000.0001) %MON seaice_area_del2             =   1.6190371692128E-03
(PID.TID 0000.0001) %MON seaice_heff_max              =   5.2035660101348E+00
(PID.TID 0000.0001) %MON seaice_heff_min              =   0.0000000000000E+00
(PID.TID 0000.0001) %MON seaice_heff_mean             =   7.5361594227124E-02
(PID.TID 0000.0001) %MON seaice_heff_sd               =   3.9435501252682E-01
(PID.TID 0000.0001) %MON seaice_heff_del2             =   2.2811265513646E-03
(PID.TID 0000.0001) %MON seaice_hsnow_max             =   2.4817149407700E-02
(PID.TID 0000.0001) %MON seaice_hsnow_min             =  -1.5557538194653E-61
(PID.TID 0000.0001) %MON seaice_hsnow_mean            =   4.2241491589212E-04
(PID.TID 0000.0001) %MON seaice_hsnow_sd              =   2.3861515506064E-03
(PID.TID 0000.0001) %MON seaice_hsnow_del2            =   2.7990347690010E-05
(PID.TID 0000.0001) // =======================================================
(PID.TID 0000.0001) // End MONITOR SEAICE statistics
(PID.TID 0000.0001) // =======================================================
(PID.TID 0000.0001) %CHECKPOINT     72005 ckptA
(PID.TID 0000.0001)   early fc =  0.000000000000000D+00
 --> objf_test(bi,bj)        =  0.971419703498213D+04
 --> objf_test(bi,bj)        =  0.743444248308128D+04
 --> objf_test(bi,bj)        =  0.916061123356617D+04
 --> objf_test(bi,bj)        =  0.776111598381540D+04
 --> objf_test(bi,bj)        =  0.645188367644602D+04
 --> objf_test(bi,bj)        =  0.121082955236163D+05
 --> objf_test(bi,bj)        =  0.130205818145043D+05
 --> objf_test(bi,bj)        =  0.134004371116465D+05
 --> objf_test(bi,bj)        =  0.704975745890971D+04
 --> objf_test(bi,bj)        =  0.654290140608656D+04
 --> objf_test(bi,bj)        =  0.974952502807785D+04
 --> objf_test(bi,bj)        =  0.845212298455327D+04
(PID.TID 0000.0001)   local fc =  0.110845871739285D+06
(PID.TID 0000.0001)  global fc =  0.110845871739285D+06
(PID.TID 0000.0001) whio : write lev 2 rec   1
(PID.TID 0000.0001) SOLVE_FOR_PRESSURE: putPmEinXvector =    F
 cg2d: Sum(rhs),rhsMax =   1.09891466460499E+02  2.01372754051185E+01
 cg2d: Sum(rhs),rhsMax =   1.07767549210785E+02  2.05338889005634E+01
(PID.TID 0000.0001) whio : write lev 2 rec   2
 cg2d: Sum(rhs),rhsMax =   1.06880725800578E+02  2.07023142075238E+01
 cg2d: Sum(rhs),rhsMax =   1.06077230712686E+02  2.08570979434791E+01
(PID.TID 0000.0001) whio : write lev 2 rec   3
 cg2d: Sum(rhs),rhsMax =   1.05455463559465E+02  2.09779533170759E+01
(PID.TID 0000.0001) Did not write pickup because writePickupAtEnd = FALSE
 cg2d: Sum(rhs),rhsMax =   1.05455463559465E+02  2.09779533170759E+01
(PID.TID 0000.0001) Did not write pickup because writePickupAtEnd = FALSE
(PID.TID 0000.0001) Did not write pickup because writePickupAtEnd = FALSE
(PID.TID 0000.0001) // =======================================================
(PID.TID 0000.0001) // Begin AD_MONITOR dynamic field statistics
(PID.TID 0000.0001) // =======================================================
(PID.TID 0000.0001) %MON ad_time_tsnumber             =                 72005
(PID.TID 0000.0001) %MON ad_time_secondsf             =   6.2212320000000E+09
(PID.TID 0000.0001) %MON ad_dynstat_adeta_max         =   0.0000000000000E+00
(PID.TID 0000.0001) %MON ad_dynstat_adeta_min         =   0.0000000000000E+00
(PID.TID 0000.0001) %MON ad_dynstat_adeta_mean        =   0.0000000000000E+00
(PID.TID 0000.0001) %MON ad_dynstat_adeta_sd          =   0.0000000000000E+00
(PID.TID 0000.0001) %MON ad_dynstat_adeta_del2        =   0.0000000000000E+00
(PID.TID 0000.0001) %MON ad_dynstat_aduvel_max        =   0.0000000000000E+00
(PID.TID 0000.0001) %MON ad_dynstat_aduvel_min        =   0.0000000000000E+00
(PID.TID 0000.0001) %MON ad_dynstat_aduvel_mean       =   0.0000000000000E+00
(PID.TID 0000.0001) %MON ad_dynstat_aduvel_sd         =   0.0000000000000E+00
(PID.TID 0000.0001) %MON ad_dynstat_aduvel_del2       =   0.0000000000000E+00
(PID.TID 0000.0001) %MON ad_dynstat_advvel_max        =   0.0000000000000E+00
(PID.TID 0000.0001) %MON ad_dynstat_advvel_min        =   0.0000000000000E+00
(PID.TID 0000.0001) %MON ad_dynstat_advvel_mean       =   0.0000000000000E+00
(PID.TID 0000.0001) %MON ad_dynstat_advvel_sd         =   0.0000000000000E+00
(PID.TID 0000.0001) %MON ad_dynstat_advvel_del2       =   0.0000000000000E+00
(PID.TID 0000.0001) %MON ad_dynstat_adwvel_max        =   0.0000000000000E+00
(PID.TID 0000.0001) %MON ad_dynstat_adwvel_min        =   0.0000000000000E+00
(PID.TID 0000.0001) %MON ad_dynstat_adwvel_mean       =   0.0000000000000E+00
(PID.TID 0000.0001) %MON ad_dynstat_adwvel_sd         =   0.0000000000000E+00
(PID.TID 0000.0001) %MON ad_dynstat_adwvel_del2       =   0.0000000000000E+00
(PID.TID 0000.0001) %MON ad_dynstat_adtheta_max       =   2.3858768415322E+01
(PID.TID 0000.0001) %MON ad_dynstat_adtheta_min       =  -1.8534790050269E+01
(PID.TID 0000.0001) %MON ad_dynstat_adtheta_mean      =  -1.0977915836464E+00
(PID.TID 0000.0001) %MON ad_dynstat_adtheta_sd        =   2.3096152559216E+00
(PID.TID 0000.0001) %MON ad_dynstat_adtheta_del2      =   8.4958915639882E-03
(PID.TID 0000.0001) %MON ad_dynstat_adsalt_max        =   0.0000000000000E+00
(PID.TID 0000.0001) %MON ad_dynstat_adsalt_min        =   0.0000000000000E+00
(PID.TID 0000.0001) %MON ad_dynstat_adsalt_mean       =   0.0000000000000E+00
(PID.TID 0000.0001) %MON ad_dynstat_adsalt_sd         =   0.0000000000000E+00
(PID.TID 0000.0001) %MON ad_dynstat_adsalt_del2       =   0.0000000000000E+00
(PID.TID 0000.0001) // =======================================================
(PID.TID 0000.0001) // End AD_MONITOR dynamic field statistics
(PID.TID 0000.0001) // =======================================================
(PID.TID 0000.0001) // =======================================================
(PID.TID 0000.0001) // Begin AD_MONITOR SEAICE statistics
(PID.TID 0000.0001) // =======================================================
(PID.TID 0000.0001) %MON ad_seaice_tsnumber           =                 72005
(PID.TID 0000.0001) %MON ad_seaice_time_sec           =   6.2212320000000E+09
(PID.TID 0000.0001) %MON ad_seaice_aduice_max         =   0.0000000000000E+00
(PID.TID 0000.0001) %MON ad_seaice_aduice_min         =   0.0000000000000E+00
(PID.TID 0000.0001) %MON ad_seaice_aduice_mean        =   0.0000000000000E+00
(PID.TID 0000.0001) %MON ad_seaice_aduice_sd          =   0.0000000000000E+00
(PID.TID 0000.0001) %MON ad_seaice_aduice_del2        =   0.0000000000000E+00
(PID.TID 0000.0001) %MON ad_seaice_advice_max         =   0.0000000000000E+00
(PID.TID 0000.0001) %MON ad_seaice_advice_min         =   0.0000000000000E+00
(PID.TID 0000.0001) %MON ad_seaice_advice_mean        =   0.0000000000000E+00
(PID.TID 0000.0001) %MON ad_seaice_advice_sd          =   0.0000000000000E+00
(PID.TID 0000.0001) %MON ad_seaice_advice_del2        =   0.0000000000000E+00
(PID.TID 0000.0001) %MON ad_seaice_adarea_max         =   0.0000000000000E+00
(PID.TID 0000.0001) %MON ad_seaice_adarea_min         =   0.0000000000000E+00
(PID.TID 0000.0001) %MON ad_seaice_adarea_mean        =   0.0000000000000E+00
(PID.TID 0000.0001) %MON ad_seaice_adarea_sd          =   0.0000000000000E+00
(PID.TID 0000.0001) %MON ad_seaice_adarea_del2        =   0.0000000000000E+00
(PID.TID 0000.0001) %MON ad_seaice_adheff_max         =   0.0000000000000E+00
(PID.TID 0000.0001) %MON ad_seaice_adheff_min         =   0.0000000000000E+00
(PID.TID 0000.0001) %MON ad_seaice_adheff_mean        =   0.0000000000000E+00
(PID.TID 0000.0001) %MON ad_seaice_adheff_sd          =   0.0000000000000E+00
(PID.TID 0000.0001) %MON ad_seaice_adheff_del2        =   0.0000000000000E+00
(PID.TID 0000.0001) %MON ad_seaice_adhsnow_max        =   0.0000000000000E+00
(PID.TID 0000.0001) %MON ad_seaice_adhsnow_min        =   0.0000000000000E+00
(PID.TID 0000.0001) %MON ad_seaice_adhsnow_mean       =   0.0000000000000E+00
(PID.TID 0000.0001) %MON ad_seaice_adhsnow_sd         =   0.0000000000000E+00
(PID.TID 0000.0001) %MON ad_seaice_adhsnow_del2       =   0.0000000000000E+00
(PID.TID 0000.0001) // =======================================================
(PID.TID 0000.0001) // End AD_MONITOR SEAICE statistics
(PID.TID 0000.0001) // =======================================================
 Calling cg2d from S/R CG2D_MAD
 cg2d: Sum(rhs),rhsMax =  -1.77635683940025E-15  1.97379518418378E-04
(PID.TID 0000.0001) // =======================================================
(PID.TID 0000.0001) // Begin AD_MONITOR EXF statistics for iwhen =  3
(PID.TID 0000.0001) // =======================================================
(PID.TID 0000.0001) %MON ad_exf_tsnumber              =                 72004
(PID.TID 0000.0001) %MON ad_exf_time_sec              =   6.2211456000000E+09
(PID.TID 0000.0001) %MON ad_exf_adfu_max              =   6.5810319686480E-01
(PID.TID 0000.0001) %MON ad_exf_adfu_min              =  -7.3696426915441E-01
(PID.TID 0000.0001) %MON ad_exf_adfu_mean             =   3.4626276465401E-03
(PID.TID 0000.0001) %MON ad_exf_adfu_sd               =   6.5592641237072E-02
(PID.TID 0000.0001) %MON ad_exf_adfu_del2             =   2.1286473724239E-03
(PID.TID 0000.0001) %MON ad_exf_adfv_max              =   5.0750991879254E-01
(PID.TID 0000.0001) %MON ad_exf_adfv_min              =  -4.0863167866968E-01
(PID.TID 0000.0001) %MON ad_exf_adfv_mean             =   4.4752919219153E-03
(PID.TID 0000.0001) %MON ad_exf_adfv_sd               =   6.1352344437501E-02
(PID.TID 0000.0001) %MON ad_exf_adfv_del2             =   2.1185902172121E-03
(PID.TID 0000.0001) %MON ad_exf_adqnet_max            =   6.6762195805142E-03
(PID.TID 0000.0001) %MON ad_exf_adqnet_min            =  -6.5823678356273E-03
(PID.TID 0000.0001) %MON ad_exf_adqnet_mean           =  -4.5240724999363E-04
(PID.TID 0000.0001) %MON ad_exf_adqnet_sd             =   1.1429149066635E-03
(PID.TID 0000.0001) %MON ad_exf_adqnet_del2           =   1.8146424853508E-05
(PID.TID 0000.0001) %MON ad_exf_adempmr_max           =   9.8089222780938E+01
(PID.TID 0000.0001) %MON ad_exf_adempmr_min           =  -1.6318401189505E+02
(PID.TID 0000.0001) %MON ad_exf_adempmr_mean          =  -1.0526727334398E+01
(PID.TID 0000.0001) %MON ad_exf_adempmr_sd            =   2.9599025999478E+01
(PID.TID 0000.0001) %MON ad_exf_adempmr_del2          =   4.0321110137920E-01
(PID.TID 0000.0001) %MON ad_exf_adqsw_max             =   2.2353418864332E-04
(PID.TID 0000.0001) %MON ad_exf_adqsw_min             =  -3.8644447519008E-04
(PID.TID 0000.0001) %MON ad_exf_adqsw_mean            =   4.5363929855899E-06
(PID.TID 0000.0001) %MON ad_exf_adqsw_sd              =   4.4301750298655E-05
(PID.TID 0000.0001) %MON ad_exf_adqsw_del2            =   7.3261176748421E-07
(PID.TID 0000.0001) // =======================================================
(PID.TID 0000.0001) // End AD_MONITOR EXF statistics for iwhen =  3
(PID.TID 0000.0001) // =======================================================
 cg2d: Sum(rhs),rhsMax =   1.06880725800578E+02  2.07023142075238E+01
 cg2d: Sum(rhs),rhsMax =   1.06077230712686E+02  2.08570979434791E+01
(PID.TID 0000.0001) // =======================================================
(PID.TID 0000.0001) // Begin AD_MONITOR dynamic field statistics
(PID.TID 0000.0001) // =======================================================
(PID.TID 0000.0001) %MON ad_time_tsnumber             =                 72004
(PID.TID 0000.0001) %MON ad_time_secondsf             =   6.2211456000000E+09
(PID.TID 0000.0001) %MON ad_dynstat_adeta_max         =   4.1243924900099E-02
(PID.TID 0000.0001) %MON ad_dynstat_adeta_min         =  -6.3867501014308E-02
(PID.TID 0000.0001) %MON ad_dynstat_adeta_mean        =  -1.3678982216468E-05
(PID.TID 0000.0001) %MON ad_dynstat_adeta_sd          =   2.2424274911883E-03
(PID.TID 0000.0001) %MON ad_dynstat_adeta_del2        =   9.8445126396384E-05
(PID.TID 0000.0001) %MON ad_dynstat_aduvel_max        =   2.4125029092353E+01
(PID.TID 0000.0001) %MON ad_dynstat_aduvel_min        =  -3.2468987341088E+01
(PID.TID 0000.0001) %MON ad_dynstat_aduvel_mean       =   1.5823415280082E-02
(PID.TID 0000.0001) %MON ad_dynstat_aduvel_sd         =   1.2022535863173E+00
(PID.TID 0000.0001) %MON ad_dynstat_aduvel_del2       =   1.1113601106410E-02
(PID.TID 0000.0001) %MON ad_dynstat_advvel_max        =   2.1644868287781E+01
(PID.TID 0000.0001) %MON ad_dynstat_advvel_min        =  -1.7204455711452E+01
(PID.TID 0000.0001) %MON ad_dynstat_advvel_mean       =  -4.8385303519719E-02
(PID.TID 0000.0001) %MON ad_dynstat_advvel_sd         =   1.1107804533817E+00
(PID.TID 0000.0001) %MON ad_dynstat_advvel_del2       =   9.3337588952972E-03
(PID.TID 0000.0001) %MON ad_dynstat_adwvel_max        =   5.3124260478256E+01
(PID.TID 0000.0001) %MON ad_dynstat_adwvel_min        =  -2.7072075911534E+01
(PID.TID 0000.0001) %MON ad_dynstat_adwvel_mean       =   9.2881521558869E-03
(PID.TID 0000.0001) %MON ad_dynstat_adwvel_sd         =   5.3697062135497E-01
(PID.TID 0000.0001) %MON ad_dynstat_adwvel_del2       =   7.3261020543831E-03
(PID.TID 0000.0001) %MON ad_dynstat_adtheta_max       =   9.3251534926194E+01
(PID.TID 0000.0001) %MON ad_dynstat_adtheta_min       =  -9.7017764734837E+01
(PID.TID 0000.0001) %MON ad_dynstat_adtheta_mean      =  -1.0984111899719E+00
(PID.TID 0000.0001) %MON ad_dynstat_adtheta_sd        =   2.3202572440812E+00
(PID.TID 0000.0001) %MON ad_dynstat_adtheta_del2      =   9.0301312209660E-03
(PID.TID 0000.0001) %MON ad_dynstat_adsalt_max        =   2.2227389170517E+02
(PID.TID 0000.0001) %MON ad_dynstat_adsalt_min        =  -2.1651864238428E+02
(PID.TID 0000.0001) %MON ad_dynstat_adsalt_mean       =  -8.4667573875207E-04
(PID.TID 0000.0001) %MON ad_dynstat_adsalt_sd         =   6.6985048847245E-01
(PID.TID 0000.0001) %MON ad_dynstat_adsalt_del2       =   9.6564922407353E-03
(PID.TID 0000.0001) // =======================================================
(PID.TID 0000.0001) // End AD_MONITOR dynamic field statistics
(PID.TID 0000.0001) // =======================================================
(PID.TID 0000.0001) // =======================================================
(PID.TID 0000.0001) // Begin AD_MONITOR SEAICE statistics
(PID.TID 0000.0001) // =======================================================
(PID.TID 0000.0001) %MON ad_seaice_tsnumber           =                 72004
(PID.TID 0000.0001) %MON ad_seaice_time_sec           =   6.2211456000000E+09
(PID.TID 0000.0001) %MON ad_seaice_aduice_max         =   0.0000000000000E+00
(PID.TID 0000.0001) %MON ad_seaice_aduice_min         =   0.0000000000000E+00
(PID.TID 0000.0001) %MON ad_seaice_aduice_mean        =   0.0000000000000E+00
(PID.TID 0000.0001) %MON ad_seaice_aduice_sd          =   0.0000000000000E+00
(PID.TID 0000.0001) %MON ad_seaice_aduice_del2        =   0.0000000000000E+00
(PID.TID 0000.0001) %MON ad_seaice_advice_max         =   0.0000000000000E+00
(PID.TID 0000.0001) %MON ad_seaice_advice_min         =   0.0000000000000E+00
(PID.TID 0000.0001) %MON ad_seaice_advice_mean        =   0.0000000000000E+00
(PID.TID 0000.0001) %MON ad_seaice_advice_sd          =   0.0000000000000E+00
(PID.TID 0000.0001) %MON ad_seaice_advice_del2        =   0.0000000000000E+00
(PID.TID 0000.0001) %MON ad_seaice_adarea_max         =   8.0146226033167E-01
(PID.TID 0000.0001) %MON ad_seaice_adarea_min         =  -5.3435111914929E-01
(PID.TID 0000.0001) %MON ad_seaice_adarea_mean        =  -5.5382975798967E-04
(PID.TID 0000.0001) %MON ad_seaice_adarea_sd          =   3.1903745946023E-02
(PID.TID 0000.0001) %MON ad_seaice_adarea_del2        =   1.1353537421584E-03
(PID.TID 0000.0001) %MON ad_seaice_adheff_max         =   2.2486256768526E+01
(PID.TID 0000.0001) %MON ad_seaice_adheff_min         =  -2.2983142408815E+01
(PID.TID 0000.0001) %MON ad_seaice_adheff_mean        =  -1.6116345069338E+00
(PID.TID 0000.0001) %MON ad_seaice_adheff_sd          =   3.8238465924541E+00
(PID.TID 0000.0001) %MON ad_seaice_adheff_del2        =   6.0399234443348E-02
(PID.TID 0000.0001) %MON ad_seaice_adhsnow_max        =   8.1543568501248E+00
(PID.TID 0000.0001) %MON ad_seaice_adhsnow_min        =  -8.3345461482517E+00
(PID.TID 0000.0001) %MON ad_seaice_adhsnow_mean       =  -5.8567565154115E-01
(PID.TID 0000.0001) %MON ad_seaice_adhsnow_sd         =   1.3843282811481E+00
(PID.TID 0000.0001) %MON ad_seaice_adhsnow_del2       =   2.1849345724603E-02
(PID.TID 0000.0001) // =======================================================
(PID.TID 0000.0001) // End AD_MONITOR SEAICE statistics
(PID.TID 0000.0001) // =======================================================
 Calling cg2d from S/R CG2D_MAD
 cg2d: Sum(rhs),rhsMax =  -3.55271367880050E-15  1.07300138302732E-04
(PID.TID 0000.0001) // =======================================================
(PID.TID 0000.0001) // Begin AD_MONITOR EXF statistics for iwhen =  3
(PID.TID 0000.0001) // =======================================================
(PID.TID 0000.0001) %MON ad_exf_tsnumber              =                 72003
(PID.TID 0000.0001) %MON ad_exf_time_sec              =   6.2210592000000E+09
(PID.TID 0000.0001) %MON ad_exf_adfu_max              =   7.7159673313032E-01
(PID.TID 0000.0001) %MON ad_exf_adfu_min              =  -1.4708956000901E+00
(PID.TID 0000.0001) %MON ad_exf_adfu_mean             =   4.9510347183464E-03
(PID.TID 0000.0001) %MON ad_exf_adfu_sd               =   1.2469456741412E-01
(PID.TID 0000.0001) %MON ad_exf_adfu_del2             =   3.7735084909241E-03
(PID.TID 0000.0001) %MON ad_exf_adfv_max              =   9.8820675552809E-01
(PID.TID 0000.0001) %MON ad_exf_adfv_min              =  -7.6743226252395E-01
(PID.TID 0000.0001) %MON ad_exf_adfv_mean             =   3.7006547139850E-03
(PID.TID 0000.0001) %MON ad_exf_adfv_sd               =   1.0683316618735E-01
(PID.TID 0000.0001) %MON ad_exf_adfv_del2             =   3.3504990067476E-03
(PID.TID 0000.0001) %MON ad_exf_adqnet_max            =   3.5178303611178E-02
(PID.TID 0000.0001) %MON ad_exf_adqnet_min            =  -6.5225718824292E-03
(PID.TID 0000.0001) %MON ad_exf_adqnet_mean           =  -4.7955116499980E-04
(PID.TID 0000.0001) %MON ad_exf_adqnet_sd             =   1.2088058815099E-03
(PID.TID 0000.0001) %MON ad_exf_adqnet_del2           =   1.9000172705764E-05
(PID.TID 0000.0001) %MON ad_exf_adempmr_max           =   1.1701565670553E+04
(PID.TID 0000.0001) %MON ad_exf_adempmr_min           =  -1.7430693201786E+03
(PID.TID 0000.0001) %MON ad_exf_adempmr_mean          =  -8.7266059436980E+00
(PID.TID 0000.0001) %MON ad_exf_adempmr_sd            =   1.9061698112623E+02
(PID.TID 0000.0001) %MON ad_exf_adempmr_del2          =   3.3795922731253E+00
(PID.TID 0000.0001) %MON ad_exf_adqsw_max             =   2.2012376607205E-04
(PID.TID 0000.0001) %MON ad_exf_adqsw_min             =  -1.8242915624770E-03
(PID.TID 0000.0001) %MON ad_exf_adqsw_mean            =   5.0852804965884E-06
(PID.TID 0000.0001) %MON ad_exf_adqsw_sd              =   5.1107405796954E-05
(PID.TID 0000.0001) %MON ad_exf_adqsw_del2            =   7.8742609191809E-07
(PID.TID 0000.0001) // =======================================================
(PID.TID 0000.0001) // End AD_MONITOR EXF statistics for iwhen =  3
(PID.TID 0000.0001) // =======================================================
(PID.TID 0000.0001) // =======================================================
(PID.TID 0000.0001) // Begin AD_MONITOR dynamic field statistics
(PID.TID 0000.0001) // =======================================================
(PID.TID 0000.0001) %MON ad_time_tsnumber             =                 72003
(PID.TID 0000.0001) %MON ad_time_secondsf             =   6.2210592000000E+09
(PID.TID 0000.0001) %MON ad_dynstat_adeta_max         =   4.3803306856767E-02
(PID.TID 0000.0001) %MON ad_dynstat_adeta_min         =  -6.0368906473803E-02
(PID.TID 0000.0001) %MON ad_dynstat_adeta_mean        =  -1.2809329506419E-05
(PID.TID 0000.0001) %MON ad_dynstat_adeta_sd          =   2.2063910889109E-03
(PID.TID 0000.0001) %MON ad_dynstat_adeta_del2        =   9.6743985343792E-05
(PID.TID 0000.0001) %MON ad_dynstat_aduvel_max        =   4.7074140205822E+01
(PID.TID 0000.0001) %MON ad_dynstat_aduvel_min        =  -6.4185580534574E+01
(PID.TID 0000.0001) %MON ad_dynstat_aduvel_mean       =   5.6519251500347E-02
(PID.TID 0000.0001) %MON ad_dynstat_aduvel_sd         =   2.3876247993923E+00
(PID.TID 0000.0001) %MON ad_dynstat_aduvel_del2       =   2.1583823604875E-02
(PID.TID 0000.0001) %MON ad_dynstat_advvel_max        =   4.5093563436304E+01
(PID.TID 0000.0001) %MON ad_dynstat_advvel_min        =  -3.1187013302978E+01
(PID.TID 0000.0001) %MON ad_dynstat_advvel_mean       =  -7.2517303040199E-02
(PID.TID 0000.0001) %MON ad_dynstat_advvel_sd         =   2.1909753840163E+00
(PID.TID 0000.0001) %MON ad_dynstat_advvel_del2       =   1.8014545607220E-02
(PID.TID 0000.0001) %MON ad_dynstat_adwvel_max        =   8.5139756307856E+01
(PID.TID 0000.0001) %MON ad_dynstat_adwvel_min        =  -4.4355110834311E+01
(PID.TID 0000.0001) %MON ad_dynstat_adwvel_mean       =   1.5332921259827E-02
(PID.TID 0000.0001) %MON ad_dynstat_adwvel_sd         =   8.5994275322740E-01
(PID.TID 0000.0001) %MON ad_dynstat_adwvel_del2       =   1.1624102382038E-02
(PID.TID 0000.0001) %MON ad_dynstat_adtheta_max       =   4.1678389789462E+01
(PID.TID 0000.0001) %MON ad_dynstat_adtheta_min       =  -3.9846380223188E+01
(PID.TID 0000.0001) %MON ad_dynstat_adtheta_mean      =  -1.0990192226733E+00
(PID.TID 0000.0001) %MON ad_dynstat_adtheta_sd        =   2.3078285034007E+00
(PID.TID 0000.0001) %MON ad_dynstat_adtheta_del2      =   9.5435543062592E-03
(PID.TID 0000.0001) %MON ad_dynstat_adsalt_max        =   9.0893833739014E+01
(PID.TID 0000.0001) %MON ad_dynstat_adsalt_min        =  -9.3962096933404E+01
(PID.TID 0000.0001) %MON ad_dynstat_adsalt_mean       =  -1.6112632018257E-03
(PID.TID 0000.0001) %MON ad_dynstat_adsalt_sd         =   6.1876479263798E-01
(PID.TID 0000.0001) %MON ad_dynstat_adsalt_del2       =   1.6325638951650E-02
(PID.TID 0000.0001) // =======================================================
(PID.TID 0000.0001) // End AD_MONITOR dynamic field statistics
(PID.TID 0000.0001) // =======================================================
(PID.TID 0000.0001) // =======================================================
(PID.TID 0000.0001) // Begin AD_MONITOR SEAICE statistics
(PID.TID 0000.0001) // =======================================================
(PID.TID 0000.0001) %MON ad_seaice_tsnumber           =                 72003
(PID.TID 0000.0001) %MON ad_seaice_time_sec           =   6.2210592000000E+09
(PID.TID 0000.0001) %MON ad_seaice_aduice_max         =   0.0000000000000E+00
(PID.TID 0000.0001) %MON ad_seaice_aduice_min         =   0.0000000000000E+00
(PID.TID 0000.0001) %MON ad_seaice_aduice_mean        =   0.0000000000000E+00
(PID.TID 0000.0001) %MON ad_seaice_aduice_sd          =   0.0000000000000E+00
(PID.TID 0000.0001) %MON ad_seaice_aduice_del2        =   0.0000000000000E+00
(PID.TID 0000.0001) %MON ad_seaice_advice_max         =   0.0000000000000E+00
(PID.TID 0000.0001) %MON ad_seaice_advice_min         =   0.0000000000000E+00
(PID.TID 0000.0001) %MON ad_seaice_advice_mean        =   0.0000000000000E+00
(PID.TID 0000.0001) %MON ad_seaice_advice_sd          =   0.0000000000000E+00
(PID.TID 0000.0001) %MON ad_seaice_advice_del2        =   0.0000000000000E+00
(PID.TID 0000.0001) %MON ad_seaice_adarea_max         =   8.0071575390022E-01
(PID.TID 0000.0001) %MON ad_seaice_adarea_min         =  -5.2131515130253E-01
(PID.TID 0000.0001) %MON ad_seaice_adarea_mean        =  -7.7324630204562E-04
(PID.TID 0000.0001) %MON ad_seaice_adarea_sd          =   3.4148290467166E-02
(PID.TID 0000.0001) %MON ad_seaice_adarea_del2        =   1.1404763788013E-03
(PID.TID 0000.0001) %MON ad_seaice_adheff_max         =   2.2202551288045E+01
(PID.TID 0000.0001) %MON ad_seaice_adheff_min         =  -2.2557465857644E+01
(PID.TID 0000.0001) %MON ad_seaice_adheff_mean        =  -1.5855822684277E+00
(PID.TID 0000.0001) %MON ad_seaice_adheff_sd          =   3.7704650819933E+00
(PID.TID 0000.0001) %MON ad_seaice_adheff_del2        =   5.9311540884232E-02
(PID.TID 0000.0001) %MON ad_seaice_adhsnow_max        =   8.0513565238244E+00
(PID.TID 0000.0001) %MON ad_seaice_adhsnow_min        =  -8.1803322293373E+00
(PID.TID 0000.0001) %MON ad_seaice_adhsnow_mean       =  -5.7670048431349E-01
(PID.TID 0000.0001) %MON ad_seaice_adhsnow_sd         =   1.3644093409643E+00
(PID.TID 0000.0001) %MON ad_seaice_adhsnow_del2       =   2.1628227171160E-02
(PID.TID 0000.0001) // =======================================================
(PID.TID 0000.0001) // End AD_MONITOR SEAICE statistics
(PID.TID 0000.0001) // =======================================================
 Calling cg2d from S/R CG2D_MAD
 cg2d: Sum(rhs),rhsMax =   8.88178419700125E-16  1.08217577496370E-04
(PID.TID 0000.0001) // =======================================================
(PID.TID 0000.0001) // Begin AD_MONITOR EXF statistics for iwhen =  3
(PID.TID 0000.0001) // =======================================================
(PID.TID 0000.0001) %MON ad_exf_tsnumber              =                 72002
(PID.TID 0000.0001) %MON ad_exf_time_sec              =   6.2209728000000E+09
(PID.TID 0000.0001) %MON ad_exf_adfu_max              =   8.8385063785142E-01
(PID.TID 0000.0001) %MON ad_exf_adfu_min              =  -2.1098198314009E+00
(PID.TID 0000.0001) %MON ad_exf_adfu_mean             =   6.2059416550118E-03
(PID.TID 0000.0001) %MON ad_exf_adfu_sd               =   1.8247366480623E-01
(PID.TID 0000.0001) %MON ad_exf_adfu_del2             =   5.3891222308539E-03
(PID.TID 0000.0001) %MON ad_exf_adfv_max              =   1.4317930594277E+00
(PID.TID 0000.0001) %MON ad_exf_adfv_min              =  -1.0851423733582E+00
(PID.TID 0000.0001) %MON ad_exf_adfv_mean             =   2.7779172316823E-03
(PID.TID 0000.0001) %MON ad_exf_adfv_sd               =   1.5446652831879E-01
(PID.TID 0000.0001) %MON ad_exf_adfv_del2             =   4.6759206704093E-03
(PID.TID 0000.0001) %MON ad_exf_adqnet_max            =   1.6047557563423E-02
(PID.TID 0000.0001) %MON ad_exf_adqnet_min            =  -7.3121513389841E-03
(PID.TID 0000.0001) %MON ad_exf_adqnet_mean           =  -4.7838522817116E-04
(PID.TID 0000.0001) %MON ad_exf_adqnet_sd             =   1.1135482474373E-03
(PID.TID 0000.0001) %MON ad_exf_adqnet_del2           =   2.1574985222105E-05
(PID.TID 0000.0001) %MON ad_exf_adempmr_max           =   5.1299613092145E+03
(PID.TID 0000.0001) %MON ad_exf_adempmr_min           =  -2.9426194239782E+03
(PID.TID 0000.0001) %MON ad_exf_adempmr_mean          =  -1.2078648892985E+01
(PID.TID 0000.0001) %MON ad_exf_adempmr_sd            =   1.5123238026383E+02
(PID.TID 0000.0001) %MON ad_exf_adempmr_del2          =   6.2805353331268E+00
(PID.TID 0000.0001) %MON ad_exf_adqsw_max             =   3.7162621054429E-04
(PID.TID 0000.0001) %MON ad_exf_adqsw_min             =  -8.6575340248739E-04
(PID.TID 0000.0001) %MON ad_exf_adqsw_mean            =   5.2650351586154E-06
(PID.TID 0000.0001) %MON ad_exf_adqsw_sd              =   4.5724590791614E-05
(PID.TID 0000.0001) %MON ad_exf_adqsw_del2            =   9.6092169521360E-07
(PID.TID 0000.0001) // =======================================================
(PID.TID 0000.0001) // End AD_MONITOR EXF statistics for iwhen =  3
(PID.TID 0000.0001) // =======================================================
(PID.TID 0000.0001) SOLVE_FOR_PRESSURE: putPmEinXvector =    F
 cg2d: Sum(rhs),rhsMax =   1.09891466460499E+02  2.01372754051185E+01
 cg2d: Sum(rhs),rhsMax =   1.07767549210785E+02  2.05338889005634E+01
(PID.TID 0000.0001) // =======================================================
(PID.TID 0000.0001) // Begin AD_MONITOR dynamic field statistics
(PID.TID 0000.0001) // =======================================================
(PID.TID 0000.0001) %MON ad_time_tsnumber             =                 72002
(PID.TID 0000.0001) %MON ad_time_secondsf             =   6.2209728000000E+09
(PID.TID 0000.0001) %MON ad_dynstat_adeta_max         =   4.4816100722151E-02
(PID.TID 0000.0001) %MON ad_dynstat_adeta_min         =  -5.7150012996583E-02
(PID.TID 0000.0001) %MON ad_dynstat_adeta_mean        =  -1.1692156422603E-05
(PID.TID 0000.0001) %MON ad_dynstat_adeta_sd          =   2.1772316546060E-03
(PID.TID 0000.0001) %MON ad_dynstat_adeta_del2        =   9.5342856937911E-05
(PID.TID 0000.0001) %MON ad_dynstat_aduvel_max        =   6.8720590729624E+01
(PID.TID 0000.0001) %MON ad_dynstat_aduvel_min        =  -8.9236754824276E+01
(PID.TID 0000.0001) %MON ad_dynstat_aduvel_mean       =   1.0533745269166E-01
(PID.TID 0000.0001) %MON ad_dynstat_aduvel_sd         =   3.5272755408500E+00
(PID.TID 0000.0001) %MON ad_dynstat_aduvel_del2       =   3.1417489749619E-02
(PID.TID 0000.0001) %MON ad_dynstat_advvel_max        =   6.4964059284120E+01
(PID.TID 0000.0001) %MON ad_dynstat_advvel_min        =  -4.2994592855363E+01
(PID.TID 0000.0001) %MON ad_dynstat_advvel_mean       =  -5.7828538712539E-02
(PID.TID 0000.0001) %MON ad_dynstat_advvel_sd         =   3.2303526444869E+00
(PID.TID 0000.0001) %MON ad_dynstat_advvel_del2       =   2.6247167325069E-02
(PID.TID 0000.0001) %MON ad_dynstat_adwvel_max        =   1.1611925377703E+02
(PID.TID 0000.0001) %MON ad_dynstat_adwvel_min        =  -6.2601814976828E+01
(PID.TID 0000.0001) %MON ad_dynstat_adwvel_mean       =   2.1240693823098E-02
(PID.TID 0000.0001) %MON ad_dynstat_adwvel_sd         =   1.1770226839291E+00
(PID.TID 0000.0001) %MON ad_dynstat_adwvel_del2       =   1.5825790935226E-02
(PID.TID 0000.0001) %MON ad_dynstat_adtheta_max       =   3.5251987902821E+01
(PID.TID 0000.0001) %MON ad_dynstat_adtheta_min       =  -3.1896021948954E+01
(PID.TID 0000.0001) %MON ad_dynstat_adtheta_mean      =  -1.0993509170701E+00
(PID.TID 0000.0001) %MON ad_dynstat_adtheta_sd        =   2.3052050454697E+00
(PID.TID 0000.0001) %MON ad_dynstat_adtheta_del2      =   9.6842431908652E-03
(PID.TID 0000.0001) %MON ad_dynstat_adsalt_max        =   1.1054842194628E+02
(PID.TID 0000.0001) %MON ad_dynstat_adsalt_min        =  -1.0718129146789E+02
(PID.TID 0000.0001) %MON ad_dynstat_adsalt_mean       =  -2.9877455397243E-03
(PID.TID 0000.0001) %MON ad_dynstat_adsalt_sd         =   8.0762609901055E-01
(PID.TID 0000.0001) %MON ad_dynstat_adsalt_del2       =   1.9992016191352E-02
(PID.TID 0000.0001) // =======================================================
(PID.TID 0000.0001) // End AD_MONITOR dynamic field statistics
(PID.TID 0000.0001) // =======================================================
(PID.TID 0000.0001) // =======================================================
(PID.TID 0000.0001) // Begin AD_MONITOR SEAICE statistics
(PID.TID 0000.0001) // =======================================================
(PID.TID 0000.0001) %MON ad_seaice_tsnumber           =                 72002
(PID.TID 0000.0001) %MON ad_seaice_time_sec           =   6.2209728000000E+09
(PID.TID 0000.0001) %MON ad_seaice_aduice_max         =   0.0000000000000E+00
(PID.TID 0000.0001) %MON ad_seaice_aduice_min         =   0.0000000000000E+00
(PID.TID 0000.0001) %MON ad_seaice_aduice_mean        =   0.0000000000000E+00
(PID.TID 0000.0001) %MON ad_seaice_aduice_sd          =   0.0000000000000E+00
(PID.TID 0000.0001) %MON ad_seaice_aduice_del2        =   0.0000000000000E+00
(PID.TID 0000.0001) %MON ad_seaice_advice_max         =   0.0000000000000E+00
(PID.TID 0000.0001) %MON ad_seaice_advice_min         =   0.0000000000000E+00
(PID.TID 0000.0001) %MON ad_seaice_advice_mean        =   0.0000000000000E+00
(PID.TID 0000.0001) %MON ad_seaice_advice_sd          =   0.0000000000000E+00
(PID.TID 0000.0001) %MON ad_seaice_advice_del2        =   0.0000000000000E+00
(PID.TID 0000.0001) %MON ad_seaice_adarea_max         =   8.1666676838918E-01
(PID.TID 0000.0001) %MON ad_seaice_adarea_min         =  -4.6462704890420E-01
(PID.TID 0000.0001) %MON ad_seaice_adarea_mean        =  -6.5138667198954E-04
(PID.TID 0000.0001) %MON ad_seaice_adarea_sd          =   3.6318742547024E-02
(PID.TID 0000.0001) %MON ad_seaice_adarea_del2        =   1.2014673365581E-03
(PID.TID 0000.0001) %MON ad_seaice_adheff_max         =   2.1686787122907E+01
(PID.TID 0000.0001) %MON ad_seaice_adheff_min         =  -2.2269032805599E+01
(PID.TID 0000.0001) %MON ad_seaice_adheff_mean        =  -1.5600210193265E+00
(PID.TID 0000.0001) %MON ad_seaice_adheff_sd          =   3.7211801991189E+00
(PID.TID 0000.0001) %MON ad_seaice_adheff_del2        =   5.9437740984418E-02
(PID.TID 0000.0001) %MON ad_seaice_adhsnow_max        =   7.8644748935974E+00
(PID.TID 0000.0001) %MON ad_seaice_adhsnow_min        =  -8.0758998038620E+00
(PID.TID 0000.0001) %MON ad_seaice_adhsnow_mean       =  -5.6686326322686E-01
(PID.TID 0000.0001) %MON ad_seaice_adhsnow_sd         =   1.3526140992402E+00
(PID.TID 0000.0001) %MON ad_seaice_adhsnow_del2       =   2.2241667749920E-02
(PID.TID 0000.0001) // =======================================================
(PID.TID 0000.0001) // End AD_MONITOR SEAICE statistics
(PID.TID 0000.0001) // =======================================================
 Calling cg2d from S/R CG2D_MAD
 cg2d: Sum(rhs),rhsMax =   1.16573417585641E-15  9.90953151305418E-05
(PID.TID 0000.0001) // =======================================================
(PID.TID 0000.0001) // Begin AD_MONITOR EXF statistics for iwhen =  3
(PID.TID 0000.0001) // =======================================================
(PID.TID 0000.0001) %MON ad_exf_tsnumber              =                 72001
(PID.TID 0000.0001) %MON ad_exf_time_sec              =   6.2208864000000E+09
(PID.TID 0000.0001) %MON ad_exf_adfu_max              =   1.2503221386584E+00
(PID.TID 0000.0001) %MON ad_exf_adfu_min              =  -2.7384083260973E+00
(PID.TID 0000.0001) %MON ad_exf_adfu_mean             =   7.1789445576102E-03
(PID.TID 0000.0001) %MON ad_exf_adfu_sd               =   2.3851630355773E-01
(PID.TID 0000.0001) %MON ad_exf_adfu_del2             =   6.9444477498072E-03
(PID.TID 0000.0001) %MON ad_exf_adfv_max              =   1.8339959031142E+00
(PID.TID 0000.0001) %MON ad_exf_adfv_min              =  -1.3597135553040E+00
(PID.TID 0000.0001) %MON ad_exf_adfv_mean             =   1.3574850400225E-03
(PID.TID 0000.0001) %MON ad_exf_adfv_sd               =   2.0154014971105E-01
(PID.TID 0000.0001) %MON ad_exf_adfv_del2             =   5.9824397717783E-03
(PID.TID 0000.0001) %MON ad_exf_adqnet_max            =   1.3198860385521E-02
(PID.TID 0000.0001) %MON ad_exf_adqnet_min            =  -6.4058405839734E-03
(PID.TID 0000.0001) %MON ad_exf_adqnet_mean           =  -4.7262487351495E-04
(PID.TID 0000.0001) %MON ad_exf_adqnet_sd             =   1.0978263449775E-03
(PID.TID 0000.0001) %MON ad_exf_adqnet_del2           =   2.2198358005498E-05
(PID.TID 0000.0001) %MON ad_exf_adempmr_max           =   4.2959949292155E+03
(PID.TID 0000.0001) %MON ad_exf_adempmr_min           =  -3.8289257922090E+03
(PID.TID 0000.0001) %MON ad_exf_adempmr_mean          =  -1.2474701407057E+01
(PID.TID 0000.0001) %MON ad_exf_adempmr_sd            =   1.7422162598461E+02
(PID.TID 0000.0001) %MON ad_exf_adempmr_del2          =   7.6828453164007E+00
(PID.TID 0000.0001) %MON ad_exf_adqsw_max             =   3.2658892971888E-04
(PID.TID 0000.0001) %MON ad_exf_adqsw_min             =  -7.2935511217498E-04
(PID.TID 0000.0001) %MON ad_exf_adqsw_mean            =   5.1147554269924E-06
(PID.TID 0000.0001) %MON ad_exf_adqsw_sd              =   4.5372354355619E-05
(PID.TID 0000.0001) %MON ad_exf_adqsw_del2            =   1.0126769502091E-06
(PID.TID 0000.0001) // =======================================================
(PID.TID 0000.0001) // End AD_MONITOR EXF statistics for iwhen =  3
(PID.TID 0000.0001) // =======================================================
(PID.TID 0000.0001) // =======================================================
(PID.TID 0000.0001) // Begin AD_MONITOR dynamic field statistics
(PID.TID 0000.0001) // =======================================================
(PID.TID 0000.0001) %MON ad_time_tsnumber             =                 72001
(PID.TID 0000.0001) %MON ad_time_secondsf             =   6.2208864000000E+09
(PID.TID 0000.0001) %MON ad_dynstat_adeta_max         =   4.4801524975764E-02
(PID.TID 0000.0001) %MON ad_dynstat_adeta_min         =  -5.3945742260145E-02
(PID.TID 0000.0001) %MON ad_dynstat_adeta_mean        =  -1.0559259308860E-05
(PID.TID 0000.0001) %MON ad_dynstat_adeta_sd          =   2.1542094526703E-03
(PID.TID 0000.0001) %MON ad_dynstat_adeta_del2        =   9.3987353582662E-05
(PID.TID 0000.0001) %MON ad_dynstat_aduvel_max        =   8.8888814977675E+01
(PID.TID 0000.0001) %MON ad_dynstat_aduvel_min        =  -1.1548464103583E+02
(PID.TID 0000.0001) %MON ad_dynstat_aduvel_mean       =   1.4808173930601E-01
(PID.TID 0000.0001) %MON ad_dynstat_aduvel_sd         =   4.6017612001044E+00
(PID.TID 0000.0001) %MON ad_dynstat_aduvel_del2       =   4.0585790891983E-02
(PID.TID 0000.0001) %MON ad_dynstat_advvel_max        =   8.1533508656778E+01
(PID.TID 0000.0001) %MON ad_dynstat_advvel_min        =  -5.4305540483047E+01
(PID.TID 0000.0001) %MON ad_dynstat_advvel_mean       =  -1.4544753772493E-02
(PID.TID 0000.0001) %MON ad_dynstat_advvel_sd         =   4.2219219720542E+00
(PID.TID 0000.0001) %MON ad_dynstat_advvel_del2       =   3.3942516215171E-02
(PID.TID 0000.0001) %MON ad_dynstat_adwvel_max        =   1.4573608649080E+02
(PID.TID 0000.0001) %MON ad_dynstat_adwvel_min        =  -7.9783437743967E+01
(PID.TID 0000.0001) %MON ad_dynstat_adwvel_mean       =   2.7220814277190E-02
(PID.TID 0000.0001) %MON ad_dynstat_adwvel_sd         =   1.4822063378862E+00
(PID.TID 0000.0001) %MON ad_dynstat_adwvel_del2       =   1.9882100854069E-02
(PID.TID 0000.0001) %MON ad_dynstat_adtheta_max       =   3.3164570524057E+01
(PID.TID 0000.0001) %MON ad_dynstat_adtheta_min       =  -2.8991926521624E+01
(PID.TID 0000.0001) %MON ad_dynstat_adtheta_mean      =  -1.0995591600373E+00
(PID.TID 0000.0001) %MON ad_dynstat_adtheta_sd        =   2.3038737027156E+00
(PID.TID 0000.0001) %MON ad_dynstat_adtheta_del2      =   9.8898709717764E-03
(PID.TID 0000.0001) %MON ad_dynstat_adsalt_max        =   1.3305190477752E+02
(PID.TID 0000.0001) %MON ad_dynstat_adsalt_min        =  -1.3172277325645E+02
(PID.TID 0000.0001) %MON ad_dynstat_adsalt_mean       =  -4.5892861789916E-03
(PID.TID 0000.0001) %MON ad_dynstat_adsalt_sd         =   1.0549196023287E+00
(PID.TID 0000.0001) %MON ad_dynstat_adsalt_del2       =   2.3322439372278E-02
(PID.TID 0000.0001) // =======================================================
(PID.TID 0000.0001) // End AD_MONITOR dynamic field statistics
(PID.TID 0000.0001) // =======================================================
(PID.TID 0000.0001) // =======================================================
(PID.TID 0000.0001) // Begin AD_MONITOR SEAICE statistics
(PID.TID 0000.0001) // =======================================================
(PID.TID 0000.0001) %MON ad_seaice_tsnumber           =                 72001
(PID.TID 0000.0001) %MON ad_seaice_time_sec           =   6.2208864000000E+09
(PID.TID 0000.0001) %MON ad_seaice_aduice_max         =   0.0000000000000E+00
(PID.TID 0000.0001) %MON ad_seaice_aduice_min         =   0.0000000000000E+00
(PID.TID 0000.0001) %MON ad_seaice_aduice_mean        =   0.0000000000000E+00
(PID.TID 0000.0001) %MON ad_seaice_aduice_sd          =   0.0000000000000E+00
(PID.TID 0000.0001) %MON ad_seaice_aduice_del2        =   0.0000000000000E+00
(PID.TID 0000.0001) %MON ad_seaice_advice_max         =   0.0000000000000E+00
(PID.TID 0000.0001) %MON ad_seaice_advice_min         =   0.0000000000000E+00
(PID.TID 0000.0001) %MON ad_seaice_advice_mean        =   0.0000000000000E+00
(PID.TID 0000.0001) %MON ad_seaice_advice_sd          =   0.0000000000000E+00
(PID.TID 0000.0001) %MON ad_seaice_advice_del2        =   0.0000000000000E+00
(PID.TID 0000.0001) %MON ad_seaice_adarea_max         =   1.1988557204020E+00
(PID.TID 0000.0001) %MON ad_seaice_adarea_min         =  -4.6543416944289E-01
(PID.TID 0000.0001) %MON ad_seaice_adarea_mean        =  -7.5950771529245E-04
(PID.TID 0000.0001) %MON ad_seaice_adarea_sd          =   4.2139529648008E-02
(PID.TID 0000.0001) %MON ad_seaice_adarea_del2        =   1.3483584312224E-03
(PID.TID 0000.0001) %MON ad_seaice_adheff_max         =   2.1054618760306E+01
(PID.TID 0000.0001) %MON ad_seaice_adheff_min         =  -2.2127731381784E+01
(PID.TID 0000.0001) %MON ad_seaice_adheff_mean        =  -1.5348125359329E+00
(PID.TID 0000.0001) %MON ad_seaice_adheff_sd          =   3.6813798420952E+00
(PID.TID 0000.0001) %MON ad_seaice_adheff_del2        =   6.0509520354149E-02
(PID.TID 0000.0001) %MON ad_seaice_adhsnow_max        =   7.6357050887718E+00
(PID.TID 0000.0001) %MON ad_seaice_adhsnow_min        =  -9.1022975432189E+00
(PID.TID 0000.0001) %MON ad_seaice_adhsnow_mean       =  -5.5785390222115E-01
(PID.TID 0000.0001) %MON ad_seaice_adhsnow_sd         =   1.3449285069127E+00
(PID.TID 0000.0001) %MON ad_seaice_adhsnow_del2       =   2.3335204392358E-02
(PID.TID 0000.0001) // =======================================================
(PID.TID 0000.0001) // End AD_MONITOR SEAICE statistics
(PID.TID 0000.0001) // =======================================================
 Calling cg2d from S/R CG2D_MAD
 cg2d: Sum(rhs),rhsMax =  -7.77156117237610E-16  9.33104250328552E-05
(PID.TID 0000.0001) // =======================================================
(PID.TID 0000.0001) // Begin AD_MONITOR EXF statistics for iwhen =  3
(PID.TID 0000.0001) // =======================================================
(PID.TID 0000.0001) %MON ad_exf_tsnumber              =                 72000
(PID.TID 0000.0001) %MON ad_exf_time_sec              =   6.2208000000000E+09
(PID.TID 0000.0001) %MON ad_exf_adfu_max              =   1.6525250294657E+00
(PID.TID 0000.0001) %MON ad_exf_adfu_min              =  -3.3208431444499E+00
(PID.TID 0000.0001) %MON ad_exf_adfu_mean             =   7.8762740949590E-03
(PID.TID 0000.0001) %MON ad_exf_adfu_sd               =   2.9242448563741E-01
(PID.TID 0000.0001) %MON ad_exf_adfu_del2             =   8.4210176116721E-03
(PID.TID 0000.0001) %MON ad_exf_adfv_max              =   2.1905852899236E+00
(PID.TID 0000.0001) %MON ad_exf_adfv_min              =  -1.5887526741461E+00
(PID.TID 0000.0001) %MON ad_exf_adfv_mean             =  -5.7411487961688E-04
(PID.TID 0000.0001) %MON ad_exf_adfv_sd               =   2.4725712730752E-01
(PID.TID 0000.0001) %MON ad_exf_adfv_del2             =   7.2235650810120E-03
(PID.TID 0000.0001) %MON ad_exf_adqnet_max            =   1.2122529710296E-02
(PID.TID 0000.0001) %MON ad_exf_adqnet_min            =  -7.3090887691313E-03
(PID.TID 0000.0001) %MON ad_exf_adqnet_mean           =  -4.6816915003410E-04
(PID.TID 0000.0001) %MON ad_exf_adqnet_sd             =   1.0884289325881E-03
(PID.TID 0000.0001) %MON ad_exf_adqnet_del2           =   2.3042932667735E-05
(PID.TID 0000.0001) %MON ad_exf_adempmr_max           =   5.3286786444333E+03
(PID.TID 0000.0001) %MON ad_exf_adempmr_min           =  -4.5473769455595E+03
(PID.TID 0000.0001) %MON ad_exf_adempmr_mean          =  -1.3263717915167E+01
(PID.TID 0000.0001) %MON ad_exf_adempmr_sd            =   1.9736115658358E+02
(PID.TID 0000.0001) %MON ad_exf_adempmr_del2          =   8.8398523676251E+00
(PID.TID 0000.0001) %MON ad_exf_adqsw_max             =   3.8879169773032E-04
(PID.TID 0000.0001) %MON ad_exf_adqsw_min             =  -6.8002673592917E-04
(PID.TID 0000.0001) %MON ad_exf_adqsw_mean            =   5.0560104198318E-06
(PID.TID 0000.0001) %MON ad_exf_adqsw_sd              =   4.5419145341522E-05
(PID.TID 0000.0001) %MON ad_exf_adqsw_del2            =   1.0772666483058E-06
(PID.TID 0000.0001) // =======================================================
(PID.TID 0000.0001) // End AD_MONITOR EXF statistics for iwhen =  3
(PID.TID 0000.0001) // =======================================================
(PID.TID 0000.0001)  nRecords = 123 ; filePrec =  64 ; fileIter =     72000
(PID.TID 0000.0001)     nDims =   2 , dims:
(PID.TID 0000.0001)    1: 192   1 192
(PID.TID 0000.0001)    2:  32   1  32
(PID.TID 0000.0001)     nFlds =  11 , nFl3D =   8 , fields:
(PID.TID 0000.0001)  >Uvel    < >GuNm1   < >Vvel    < >GvNm1   < >Theta   < >GtNm1   < >Salt    < >GsNm1   < >EtaN    < >dEtaHdt < >EtaH    <
(PID.TID 0000.0001) missingVal=  1.00000000000000E+00 ; nTimRec =   0 , timeList:
(PID.TID 0000.0001) READ_MFLDS_3D_RL: read field: "Uvel    ", #   1 in fldList, rec=   1
(PID.TID 0000.0001) READ_MFLDS_3D_RL: read field: "Vvel    ", #   3 in fldList, rec=   3
(PID.TID 0000.0001) READ_MFLDS_3D_RL: read field: "Theta   ", #   5 in fldList, rec=   5
(PID.TID 0000.0001) READ_MFLDS_3D_RL: read field: "Salt    ", #   7 in fldList, rec=   7
(PID.TID 0000.0001) READ_MFLDS_3D_RL: read field: "GuNm1   ", #   2 in fldList, rec=   2
(PID.TID 0000.0001) READ_MFLDS_3D_RL: read field: "GvNm1   ", #   4 in fldList, rec=   4
(PID.TID 0000.0001) READ_MFLDS_3D_RL: read field: "EtaN    ", #   9 in fldList, rec= 121
(PID.TID 0000.0001) READ_MFLDS_3D_RL: read field: "dEtaHdt ", #  10 in fldList, rec= 122
(PID.TID 0000.0001) READ_MFLDS_3D_RL: read field: "EtaH    ", #  11 in fldList, rec= 123
(PID.TID 0000.0001) READ_MFLDS_CHECK: - normal end ; reset MFLDS file-name: pickup.0000072000
(PID.TID 0000.0001)  nRecords =  15 ; filePrec =  64 ; fileIter =     72000
(PID.TID 0000.0001)     nDims =   2 , dims:
(PID.TID 0000.0001)    1: 192   1 192
(PID.TID 0000.0001)    2:  32   1  32
(PID.TID 0000.0001)     nFlds =  15 , nFl3D =   0 , fields:
(PID.TID 0000.0001)  >siTICE  < >siYNEG  < >siHSNOW < >siUICE  < >siUICE_2< >siUICE_3< >siVICE  < >siVICE_2< >siVICE_3< >siHEFF  < >siHEFF_2< >siHEFF_3< >siAREA  < >siAREA_2< >siAREA_3<
(PID.TID 0000.0001) missingVal=  1.00000000000000E+00 ; nTimRec =   0 , timeList:
(PID.TID 0000.0001) READ_MFLDS_LEV_RL: read field: "siTICE  ", #   1 in fldList, rec=   1
(PID.TID 0000.0001) READ_MFLDS_3D_RL: read field: "siAREA  ", #  13 in fldList, rec=  13
(PID.TID 0000.0001) READ_MFLDS_3D_RL: read field: "siHEFF  ", #  10 in fldList, rec=  10
(PID.TID 0000.0001) READ_MFLDS_3D_RL: read field: "siHSNOW ", #   3 in fldList, rec=   3
(PID.TID 0000.0001) READ_MFLDS_3D_RL: read field: "siUICE  ", #   4 in fldList, rec=   4
(PID.TID 0000.0001) READ_MFLDS_3D_RL: read field: "siVICE  ", #   7 in fldList, rec=   7
(PID.TID 0000.0001) READ_MFLDS_CHECK: - normal end ; reset MFLDS file-name: pickup_seaice.0000072000
(PID.TID 0000.0001) // =======================================================
(PID.TID 0000.0001) // Begin AD_MONITOR dynamic field statistics
(PID.TID 0000.0001) // =======================================================
(PID.TID 0000.0001) %MON ad_time_tsnumber             =                 72000
(PID.TID 0000.0001) %MON ad_time_secondsf             =   6.2208000000000E+09
(PID.TID 0000.0001) %MON ad_dynstat_adeta_max         =   4.4190737603404E-02
(PID.TID 0000.0001) %MON ad_dynstat_adeta_min         =  -5.7730053858415E-02
(PID.TID 0000.0001) %MON ad_dynstat_adeta_mean        =  -8.7066205994443E-06
(PID.TID 0000.0001) %MON ad_dynstat_adeta_sd          =   2.8170285796744E-03
(PID.TID 0000.0001) %MON ad_dynstat_adeta_del2        =   1.2356287108065E-04
(PID.TID 0000.0001) %MON ad_dynstat_aduvel_max        =   1.0875265003212E+02
(PID.TID 0000.0001) %MON ad_dynstat_aduvel_min        =  -1.3965707875369E+02
(PID.TID 0000.0001) %MON ad_dynstat_aduvel_mean       =   1.8107516282457E-01
(PID.TID 0000.0001) %MON ad_dynstat_aduvel_sd         =   5.6028542401644E+00
(PID.TID 0000.0001) %MON ad_dynstat_aduvel_del2       =   4.9105812682764E-02
(PID.TID 0000.0001) %MON ad_dynstat_advvel_max        =   9.7306445721041E+01
(PID.TID 0000.0001) %MON ad_dynstat_advvel_min        =  -6.4106020953142E+01
(PID.TID 0000.0001) %MON ad_dynstat_advvel_mean       =   4.0634053934101E-02
(PID.TID 0000.0001) %MON ad_dynstat_advvel_sd         =   5.1625861468310E+00
(PID.TID 0000.0001) %MON ad_dynstat_advvel_del2       =   4.1075930203281E-02
(PID.TID 0000.0001) %MON ad_dynstat_adwvel_max        =   1.7383875681485E+02
(PID.TID 0000.0001) %MON ad_dynstat_adwvel_min        =  -9.6563919212679E+01
(PID.TID 0000.0001) %MON ad_dynstat_adwvel_mean       =   3.3088534365863E-02
(PID.TID 0000.0001) %MON ad_dynstat_adwvel_sd         =   1.7815738234025E+00
(PID.TID 0000.0001) %MON ad_dynstat_adwvel_del2       =   2.3670547720482E-02
(PID.TID 0000.0001) %MON ad_dynstat_adtheta_max       =   3.5491389458171E+01
(PID.TID 0000.0001) %MON ad_dynstat_adtheta_min       =  -3.2056082837285E+01
(PID.TID 0000.0001) %MON ad_dynstat_adtheta_mean      =  -1.0997745954861E+00
(PID.TID 0000.0001) %MON ad_dynstat_adtheta_sd        =   2.3045102078604E+00
(PID.TID 0000.0001) %MON ad_dynstat_adtheta_del2      =   1.0161045639969E-02
(PID.TID 0000.0001) %MON ad_dynstat_adsalt_max        =   1.7137001651697E+02
(PID.TID 0000.0001) %MON ad_dynstat_adsalt_min        =  -1.6885244757139E+02
(PID.TID 0000.0001) %MON ad_dynstat_adsalt_mean       =  -6.4461917392350E-03
(PID.TID 0000.0001) %MON ad_dynstat_adsalt_sd         =   1.3697452976794E+00
(PID.TID 0000.0001) %MON ad_dynstat_adsalt_del2       =   2.7153038408816E-02
(PID.TID 0000.0001) // =======================================================
(PID.TID 0000.0001) // End AD_MONITOR dynamic field statistics
(PID.TID 0000.0001) // =======================================================
(PID.TID 0000.0001) // =======================================================
(PID.TID 0000.0001) // Begin AD_MONITOR SEAICE statistics
(PID.TID 0000.0001) // =======================================================
(PID.TID 0000.0001) %MON ad_seaice_tsnumber           =                 72000
(PID.TID 0000.0001) %MON ad_seaice_time_sec           =   6.2208000000000E+09
(PID.TID 0000.0001) %MON ad_seaice_aduice_max         =   0.0000000000000E+00
(PID.TID 0000.0001) %MON ad_seaice_aduice_min         =   0.0000000000000E+00
(PID.TID 0000.0001) %MON ad_seaice_aduice_mean        =   0.0000000000000E+00
(PID.TID 0000.0001) %MON ad_seaice_aduice_sd          =   0.0000000000000E+00
(PID.TID 0000.0001) %MON ad_seaice_aduice_del2        =   0.0000000000000E+00
(PID.TID 0000.0001) %MON ad_seaice_advice_max         =   0.0000000000000E+00
(PID.TID 0000.0001) %MON ad_seaice_advice_min         =   0.0000000000000E+00
(PID.TID 0000.0001) %MON ad_seaice_advice_mean        =   0.0000000000000E+00
(PID.TID 0000.0001) %MON ad_seaice_advice_sd          =   0.0000000000000E+00
(PID.TID 0000.0001) %MON ad_seaice_advice_del2        =   0.0000000000000E+00
(PID.TID 0000.0001) %MON ad_seaice_adarea_max         =   1.5307064957730E+00
(PID.TID 0000.0001) %MON ad_seaice_adarea_min         =  -6.1091517841805E-01
(PID.TID 0000.0001) %MON ad_seaice_adarea_mean        =  -3.8261707950576E-03
(PID.TID 0000.0001) %MON ad_seaice_adarea_sd          =   5.1186736722578E-02
(PID.TID 0000.0001) %MON ad_seaice_adarea_del2        =   1.5087149685727E-03
(PID.TID 0000.0001) %MON ad_seaice_adheff_max         =   2.0416826406834E+01
(PID.TID 0000.0001) %MON ad_seaice_adheff_min         =  -2.3579275623876E+01
(PID.TID 0000.0001) %MON ad_seaice_adheff_mean        =  -1.5118546538901E+00
(PID.TID 0000.0001) %MON ad_seaice_adheff_sd          =   3.6428234318943E+00
(PID.TID 0000.0001) %MON ad_seaice_adheff_del2        =   6.1839656287768E-02
(PID.TID 0000.0001) %MON ad_seaice_adhsnow_max        =   7.5754967322774E+00
(PID.TID 0000.0001) %MON ad_seaice_adhsnow_min        =  -1.0774252851048E+01
(PID.TID 0000.0001) %MON ad_seaice_adhsnow_mean       =  -5.5326962259286E-01
(PID.TID 0000.0001) %MON ad_seaice_adhsnow_sd         =   1.3397071303412E+00
(PID.TID 0000.0001) %MON ad_seaice_adhsnow_del2       =   2.4478019496342E-02
(PID.TID 0000.0001) // =======================================================
(PID.TID 0000.0001) // End AD_MONITOR SEAICE statistics
(PID.TID 0000.0001) // =======================================================
(PID.TID 0000.0001)  nRecords =  15 ; filePrec =  64 ; fileIter =     72000
(PID.TID 0000.0001)     nDims =   2 , dims:
(PID.TID 0000.0001)    1: 192   1 192
(PID.TID 0000.0001)    2:  32   1  32
(PID.TID 0000.0001)     nFlds =  15 , nFl3D =   0 , fields:
(PID.TID 0000.0001)  >siTICE  < >siYNEG  < >siHSNOW < >siUICE  < >siUICE_2< >siUICE_3< >siVICE  < >siVICE_2< >siVICE_3< >siHEFF  < >siHEFF_2< >siHEFF_3< >siAREA  < >siAREA_2< >siAREA_3<
(PID.TID 0000.0001) missingVal=  1.00000000000000E+00 ; nTimRec =   0 , timeList:
(PID.TID 0000.0001) READ_MFLDS_LEV_RL: read field: "siTICE  ", #   1 in fldList, rec=   1
(PID.TID 0000.0001) READ_MFLDS_3D_RL: read field: "siAREA  ", #  13 in fldList, rec=  13
(PID.TID 0000.0001) READ_MFLDS_3D_RL: read field: "siHEFF  ", #  10 in fldList, rec=  10
(PID.TID 0000.0001) READ_MFLDS_3D_RL: read field: "siHSNOW ", #   3 in fldList, rec=   3
(PID.TID 0000.0001) READ_MFLDS_3D_RL: read field: "siUICE  ", #   4 in fldList, rec=   4
(PID.TID 0000.0001) READ_MFLDS_3D_RL: read field: "siVICE  ", #   7 in fldList, rec=   7
(PID.TID 0000.0001) READ_MFLDS_CHECK: - normal end ; reset MFLDS file-name: pickup_seaice.0000072000
 ph-pack: packing ecco_cost
 ph-pack: packing ecco_ctrl
(PID.TID 0000.0001) // =======================================================
(PID.TID 0000.0001) // Gradient-check starts (grdchk_main)
(PID.TID 0000.0001) // =======================================================
(PID.TID 0000.0001) grdchk reference fc: fcref       =  1.10845871739285E+05
grad-res -------------------------------
 grad-res  proc    #    i    j    k   bi   bj iobc       fc ref            fc + eps           fc - eps
 grad-res  proc    #    i    j    k   bi   bj iobc      adj grad            fd grad          1 - fd/adj
(PID.TID 0000.0001) ====== Starts gradient-check number   1 (=ichknum) =======
 ph-test icomp, ncvarcomp, ichknum            1       55522           1
 ph-grd _loc: bi, bj, icomptest, ichknum            1           1           0           1
 ph-grd -->hit<--            1           1           1           1
(PID.TID 0000.0001) grdchk pos: i,j,k=    1    1    1 ; bi,bj=   1   1 ; iobc=  1 ; rec=   1
(PID.TID 0000.0001)  nRecords = 123 ; filePrec =  64 ; fileIter =     72000
(PID.TID 0000.0001)     nDims =   2 , dims:
(PID.TID 0000.0001)    1: 192   1 192
(PID.TID 0000.0001)    2:  32   1  32
(PID.TID 0000.0001)     nFlds =  11 , nFl3D =   8 , fields:
(PID.TID 0000.0001)  >Uvel    < >GuNm1   < >Vvel    < >GvNm1   < >Theta   < >GtNm1   < >Salt    < >GsNm1   < >EtaN    < >dEtaHdt < >EtaH    <
(PID.TID 0000.0001) missingVal=  1.00000000000000E+00 ; nTimRec =   0 , timeList:
(PID.TID 0000.0001) READ_MFLDS_3D_RL: read field: "Uvel    ", #   1 in fldList, rec=   1
(PID.TID 0000.0001) READ_MFLDS_3D_RL: read field: "Vvel    ", #   3 in fldList, rec=   3
(PID.TID 0000.0001) READ_MFLDS_3D_RL: read field: "Theta   ", #   5 in fldList, rec=   5
(PID.TID 0000.0001) READ_MFLDS_3D_RL: read field: "Salt    ", #   7 in fldList, rec=   7
(PID.TID 0000.0001) READ_MFLDS_3D_RL: read field: "GuNm1   ", #   2 in fldList, rec=   2
(PID.TID 0000.0001) READ_MFLDS_3D_RL: read field: "GvNm1   ", #   4 in fldList, rec=   4
(PID.TID 0000.0001) READ_MFLDS_3D_RL: read field: "EtaN    ", #   9 in fldList, rec= 121
(PID.TID 0000.0001) READ_MFLDS_3D_RL: read field: "dEtaHdt ", #  10 in fldList, rec= 122
(PID.TID 0000.0001) READ_MFLDS_3D_RL: read field: "EtaH    ", #  11 in fldList, rec= 123
(PID.TID 0000.0001) READ_MFLDS_CHECK: - normal end ; reset MFLDS file-name: pickup.0000072000
(PID.TID 0000.0001)  nRecords =  15 ; filePrec =  64 ; fileIter =     72000
(PID.TID 0000.0001)     nDims =   2 , dims:
(PID.TID 0000.0001)    1: 192   1 192
(PID.TID 0000.0001)    2:  32   1  32
(PID.TID 0000.0001)     nFlds =  15 , nFl3D =   0 , fields:
(PID.TID 0000.0001)  >siTICE  < >siYNEG  < >siHSNOW < >siUICE  < >siUICE_2< >siUICE_3< >siVICE  < >siVICE_2< >siVICE_3< >siHEFF  < >siHEFF_2< >siHEFF_3< >siAREA  < >siAREA_2< >siAREA_3<
(PID.TID 0000.0001) missingVal=  1.00000000000000E+00 ; nTimRec =   0 , timeList:
(PID.TID 0000.0001) READ_MFLDS_LEV_RL: read field: "siTICE  ", #   1 in fldList, rec=   1
(PID.TID 0000.0001) READ_MFLDS_3D_RL: read field: "siAREA  ", #  13 in fldList, rec=  13
(PID.TID 0000.0001) READ_MFLDS_3D_RL: read field: "siHEFF  ", #  10 in fldList, rec=  10
(PID.TID 0000.0001) READ_MFLDS_3D_RL: read field: "siHSNOW ", #   3 in fldList, rec=   3
(PID.TID 0000.0001) READ_MFLDS_3D_RL: read field: "siUICE  ", #   4 in fldList, rec=   4
(PID.TID 0000.0001) READ_MFLDS_3D_RL: read field: "siVICE  ", #   7 in fldList, rec=   7
(PID.TID 0000.0001) READ_MFLDS_CHECK: - normal end ; reset MFLDS file-name: pickup_seaice.0000072000
(PID.TID 0000.0001) // =======================================================
(PID.TID 0000.0001) // Model current state
(PID.TID 0000.0001) // =======================================================
(PID.TID 0000.0001) 
(PID.TID 0000.0001) SOLVE_FOR_PRESSURE: putPmEinXvector =    F
 cg2d: Sum(rhs),rhsMax =   1.09891466467009E+02  2.01372754051185E+01
 cg2d: Sum(rhs),rhsMax =   1.07767549169493E+02  2.05338889108550E+01
 cg2d: Sum(rhs),rhsMax =   1.06880725754221E+02  2.07023142201562E+01
 cg2d: Sum(rhs),rhsMax =   1.06077230703270E+02  2.08570979509613E+01
 cg2d: Sum(rhs),rhsMax =   1.05455463628046E+02  2.09779533211956E+01
(PID.TID 0000.0001) Did not write pickup because writePickupAtEnd = FALSE
(PID.TID 0000.0001)   early fc =  0.000000000000000D+00
 --> objf_test(bi,bj)        =  0.971423646581551D+04
 --> objf_test(bi,bj)        =  0.743444248305196D+04
 --> objf_test(bi,bj)        =  0.916061123360907D+04
 --> objf_test(bi,bj)        =  0.776111598387547D+04
 --> objf_test(bi,bj)        =  0.645188367644784D+04
 --> objf_test(bi,bj)        =  0.121082955235123D+05
 --> objf_test(bi,bj)        =  0.130205818144724D+05
 --> objf_test(bi,bj)        =  0.134004371116670D+05
 --> objf_test(bi,bj)        =  0.704975745893237D+04
 --> objf_test(bi,bj)        =  0.654290310216852D+04
 --> objf_test(bi,bj)        =  0.974952434984568D+04
 --> objf_test(bi,bj)        =  0.845212527963040D+04
(PID.TID 0000.0001)   local fc =  0.110845914483028D+06
(PID.TID 0000.0001)  global fc =  0.110845914483028D+06
(PID.TID 0000.0001) grdchk perturb(+)fc: fcpertplus  =  1.10845914483028E+05
(PID.TID 0000.0001)  nRecords = 123 ; filePrec =  64 ; fileIter =     72000
(PID.TID 0000.0001)     nDims =   2 , dims:
(PID.TID 0000.0001)    1: 192   1 192
(PID.TID 0000.0001)    2:  32   1  32
(PID.TID 0000.0001)     nFlds =  11 , nFl3D =   8 , fields:
(PID.TID 0000.0001)  >Uvel    < >GuNm1   < >Vvel    < >GvNm1   < >Theta   < >GtNm1   < >Salt    < >GsNm1   < >EtaN    < >dEtaHdt < >EtaH    <
(PID.TID 0000.0001) missingVal=  1.00000000000000E+00 ; nTimRec =   0 , timeList:
(PID.TID 0000.0001) READ_MFLDS_3D_RL: read field: "Uvel    ", #   1 in fldList, rec=   1
(PID.TID 0000.0001) READ_MFLDS_3D_RL: read field: "Vvel    ", #   3 in fldList, rec=   3
(PID.TID 0000.0001) READ_MFLDS_3D_RL: read field: "Theta   ", #   5 in fldList, rec=   5
(PID.TID 0000.0001) READ_MFLDS_3D_RL: read field: "Salt    ", #   7 in fldList, rec=   7
(PID.TID 0000.0001) READ_MFLDS_3D_RL: read field: "GuNm1   ", #   2 in fldList, rec=   2
(PID.TID 0000.0001) READ_MFLDS_3D_RL: read field: "GvNm1   ", #   4 in fldList, rec=   4
(PID.TID 0000.0001) READ_MFLDS_3D_RL: read field: "EtaN    ", #   9 in fldList, rec= 121
(PID.TID 0000.0001) READ_MFLDS_3D_RL: read field: "dEtaHdt ", #  10 in fldList, rec= 122
(PID.TID 0000.0001) READ_MFLDS_3D_RL: read field: "EtaH    ", #  11 in fldList, rec= 123
(PID.TID 0000.0001) READ_MFLDS_CHECK: - normal end ; reset MFLDS file-name: pickup.0000072000
(PID.TID 0000.0001)  nRecords =  15 ; filePrec =  64 ; fileIter =     72000
(PID.TID 0000.0001)     nDims =   2 , dims:
(PID.TID 0000.0001)    1: 192   1 192
(PID.TID 0000.0001)    2:  32   1  32
(PID.TID 0000.0001)     nFlds =  15 , nFl3D =   0 , fields:
(PID.TID 0000.0001)  >siTICE  < >siYNEG  < >siHSNOW < >siUICE  < >siUICE_2< >siUICE_3< >siVICE  < >siVICE_2< >siVICE_3< >siHEFF  < >siHEFF_2< >siHEFF_3< >siAREA  < >siAREA_2< >siAREA_3<
(PID.TID 0000.0001) missingVal=  1.00000000000000E+00 ; nTimRec =   0 , timeList:
(PID.TID 0000.0001) READ_MFLDS_LEV_RL: read field: "siTICE  ", #   1 in fldList, rec=   1
(PID.TID 0000.0001) READ_MFLDS_3D_RL: read field: "siAREA  ", #  13 in fldList, rec=  13
(PID.TID 0000.0001) READ_MFLDS_3D_RL: read field: "siHEFF  ", #  10 in fldList, rec=  10
(PID.TID 0000.0001) READ_MFLDS_3D_RL: read field: "siHSNOW ", #   3 in fldList, rec=   3
(PID.TID 0000.0001) READ_MFLDS_3D_RL: read field: "siUICE  ", #   4 in fldList, rec=   4
(PID.TID 0000.0001) READ_MFLDS_3D_RL: read field: "siVICE  ", #   7 in fldList, rec=   7
(PID.TID 0000.0001) READ_MFLDS_CHECK: - normal end ; reset MFLDS file-name: pickup_seaice.0000072000
(PID.TID 0000.0001) // =======================================================
(PID.TID 0000.0001) // Model current state
(PID.TID 0000.0001) // =======================================================
(PID.TID 0000.0001) 
(PID.TID 0000.0001) SOLVE_FOR_PRESSURE: putPmEinXvector =    F
 cg2d: Sum(rhs),rhsMax =   1.09891466453993E+02  2.01372754051185E+01
 cg2d: Sum(rhs),rhsMax =   1.07767549252150E+02  2.05338888902591E+01
 cg2d: Sum(rhs),rhsMax =   1.06880725841534E+02  2.07023141948977E+01
 cg2d: Sum(rhs),rhsMax =   1.06077230724344E+02  2.08570979359818E+01
 cg2d: Sum(rhs),rhsMax =   1.05455463603642E+02  2.09779533129351E+01
(PID.TID 0000.0001) Did not write pickup because writePickupAtEnd = FALSE
(PID.TID 0000.0001)   early fc =  0.000000000000000D+00
 --> objf_test(bi,bj)        =  0.971415771884805D+04
 --> objf_test(bi,bj)        =  0.743444248311072D+04
 --> objf_test(bi,bj)        =  0.916061123352867D+04
 --> objf_test(bi,bj)        =  0.776111598375534D+04
 --> objf_test(bi,bj)        =  0.645188367644419D+04
 --> objf_test(bi,bj)        =  0.121082955237203D+05
 --> objf_test(bi,bj)        =  0.130205818145203D+05
 --> objf_test(bi,bj)        =  0.134004371116336D+05
 --> objf_test(bi,bj)        =  0.704975745888855D+04
 --> objf_test(bi,bj)        =  0.654289971213818D+04
 --> objf_test(bi,bj)        =  0.974952435820992D+04
 --> objf_test(bi,bj)        =  0.845212069119599D+04
(PID.TID 0000.0001)   local fc =  0.110845827765994D+06
(PID.TID 0000.0001)  global fc =  0.110845827765994D+06
(PID.TID 0000.0001) grdchk perturb(-)fc: fcpertminus =  1.10845827765994E+05
grad-res -------------------------------
 grad-res     0    1    1    1    1    1    1    1   1.10845871739E+05  1.10845914483E+05  1.10845827766E+05
 grad-res     0    1    1    1    0    1    1    1   4.33606568651E+00  4.33585173159E+00  4.93430987306E-05
(PID.TID 0000.0001)  ADM  ref_cost_function      =  1.10845871739285E+05
(PID.TID 0000.0001)  ADM  adjoint_gradient       =  4.33606568651099E+00
(PID.TID 0000.0001)  ADM  finite-diff_grad       =  4.33585173159372E+00
(PID.TID 0000.0001) ====== End of gradient-check number   1 (ierr=  0) =======
(PID.TID 0000.0001) ====== Starts gradient-check number   2 (=ichknum) =======
 ph-test icomp, ncvarcomp, ichknum            2       55522           2
 ph-grd _loc: bi, bj, icomptest, ichknum            1           1           1           2
 ph-grd -->hit<--            2           1           1           1
(PID.TID 0000.0001) grdchk pos: i,j,k=    2    1    1 ; bi,bj=   1   1 ; iobc=  1 ; rec=   1
(PID.TID 0000.0001)  nRecords = 123 ; filePrec =  64 ; fileIter =     72000
(PID.TID 0000.0001)     nDims =   2 , dims:
(PID.TID 0000.0001)    1: 192   1 192
(PID.TID 0000.0001)    2:  32   1  32
(PID.TID 0000.0001)     nFlds =  11 , nFl3D =   8 , fields:
(PID.TID 0000.0001)  >Uvel    < >GuNm1   < >Vvel    < >GvNm1   < >Theta   < >GtNm1   < >Salt    < >GsNm1   < >EtaN    < >dEtaHdt < >EtaH    <
(PID.TID 0000.0001) missingVal=  1.00000000000000E+00 ; nTimRec =   0 , timeList:
(PID.TID 0000.0001) READ_MFLDS_3D_RL: read field: "Uvel    ", #   1 in fldList, rec=   1
(PID.TID 0000.0001) READ_MFLDS_3D_RL: read field: "Vvel    ", #   3 in fldList, rec=   3
(PID.TID 0000.0001) READ_MFLDS_3D_RL: read field: "Theta   ", #   5 in fldList, rec=   5
(PID.TID 0000.0001) READ_MFLDS_3D_RL: read field: "Salt    ", #   7 in fldList, rec=   7
(PID.TID 0000.0001) READ_MFLDS_3D_RL: read field: "GuNm1   ", #   2 in fldList, rec=   2
(PID.TID 0000.0001) READ_MFLDS_3D_RL: read field: "GvNm1   ", #   4 in fldList, rec=   4
(PID.TID 0000.0001) READ_MFLDS_3D_RL: read field: "EtaN    ", #   9 in fldList, rec= 121
(PID.TID 0000.0001) READ_MFLDS_3D_RL: read field: "dEtaHdt ", #  10 in fldList, rec= 122
(PID.TID 0000.0001) READ_MFLDS_3D_RL: read field: "EtaH    ", #  11 in fldList, rec= 123
(PID.TID 0000.0001) READ_MFLDS_CHECK: - normal end ; reset MFLDS file-name: pickup.0000072000
(PID.TID 0000.0001)  nRecords =  15 ; filePrec =  64 ; fileIter =     72000
(PID.TID 0000.0001)     nDims =   2 , dims:
(PID.TID 0000.0001)    1: 192   1 192
(PID.TID 0000.0001)    2:  32   1  32
(PID.TID 0000.0001)     nFlds =  15 , nFl3D =   0 , fields:
(PID.TID 0000.0001)  >siTICE  < >siYNEG  < >siHSNOW < >siUICE  < >siUICE_2< >siUICE_3< >siVICE  < >siVICE_2< >siVICE_3< >siHEFF  < >siHEFF_2< >siHEFF_3< >siAREA  < >siAREA_2< >siAREA_3<
(PID.TID 0000.0001) missingVal=  1.00000000000000E+00 ; nTimRec =   0 , timeList:
(PID.TID 0000.0001) READ_MFLDS_LEV_RL: read field: "siTICE  ", #   1 in fldList, rec=   1
(PID.TID 0000.0001) READ_MFLDS_3D_RL: read field: "siAREA  ", #  13 in fldList, rec=  13
(PID.TID 0000.0001) READ_MFLDS_3D_RL: read field: "siHEFF  ", #  10 in fldList, rec=  10
(PID.TID 0000.0001) READ_MFLDS_3D_RL: read field: "siHSNOW ", #   3 in fldList, rec=   3
(PID.TID 0000.0001) READ_MFLDS_3D_RL: read field: "siUICE  ", #   4 in fldList, rec=   4
(PID.TID 0000.0001) READ_MFLDS_3D_RL: read field: "siVICE  ", #   7 in fldList, rec=   7
(PID.TID 0000.0001) READ_MFLDS_CHECK: - normal end ; reset MFLDS file-name: pickup_seaice.0000072000
(PID.TID 0000.0001) // =======================================================
(PID.TID 0000.0001) // Model current state
(PID.TID 0000.0001) // =======================================================
(PID.TID 0000.0001) 
(PID.TID 0000.0001) SOLVE_FOR_PRESSURE: putPmEinXvector =    F
 cg2d: Sum(rhs),rhsMax =   1.09891466471288E+02  2.01372754051185E+01
 cg2d: Sum(rhs),rhsMax =   1.07767549138914E+02  2.05338889182769E+01
 cg2d: Sum(rhs),rhsMax =   1.06880725721631E+02  2.07023142288749E+01
 cg2d: Sum(rhs),rhsMax =   1.06077230693800E+02  2.08570979560461E+01
 cg2d: Sum(rhs),rhsMax =   1.05455463633623E+02  2.09779533241257E+01
(PID.TID 0000.0001) Did not write pickup because writePickupAtEnd = FALSE
(PID.TID 0000.0001)   early fc =  0.000000000000000D+00
 --> objf_test(bi,bj)        =  0.971423709569939D+04
 --> objf_test(bi,bj)        =  0.743444248302980D+04
 --> objf_test(bi,bj)        =  0.916061123363705D+04
 --> objf_test(bi,bj)        =  0.776111598391867D+04
 --> objf_test(bi,bj)        =  0.645188367644914D+04
 --> objf_test(bi,bj)        =  0.121082955234370D+05
 --> objf_test(bi,bj)        =  0.130205818144567D+05
 --> objf_test(bi,bj)        =  0.134004371116779D+05
 --> objf_test(bi,bj)        =  0.704975745894782D+04
 --> objf_test(bi,bj)        =  0.654290153416541D+04
 --> objf_test(bi,bj)        =  0.974952434989456D+04
 --> objf_test(bi,bj)        =  0.845212416258725D+04
(PID.TID 0000.0001)   local fc =  0.110845912427901D+06
(PID.TID 0000.0001)  global fc =  0.110845912427901D+06
(PID.TID 0000.0001) grdchk perturb(+)fc: fcpertplus  =  1.10845912427901E+05
(PID.TID 0000.0001)  nRecords = 123 ; filePrec =  64 ; fileIter =     72000
(PID.TID 0000.0001)     nDims =   2 , dims:
(PID.TID 0000.0001)    1: 192   1 192
(PID.TID 0000.0001)    2:  32   1  32
(PID.TID 0000.0001)     nFlds =  11 , nFl3D =   8 , fields:
(PID.TID 0000.0001)  >Uvel    < >GuNm1   < >Vvel    < >GvNm1   < >Theta   < >GtNm1   < >Salt    < >GsNm1   < >EtaN    < >dEtaHdt < >EtaH    <
(PID.TID 0000.0001) missingVal=  1.00000000000000E+00 ; nTimRec =   0 , timeList:
(PID.TID 0000.0001) READ_MFLDS_3D_RL: read field: "Uvel    ", #   1 in fldList, rec=   1
(PID.TID 0000.0001) READ_MFLDS_3D_RL: read field: "Vvel    ", #   3 in fldList, rec=   3
(PID.TID 0000.0001) READ_MFLDS_3D_RL: read field: "Theta   ", #   5 in fldList, rec=   5
(PID.TID 0000.0001) READ_MFLDS_3D_RL: read field: "Salt    ", #   7 in fldList, rec=   7
(PID.TID 0000.0001) READ_MFLDS_3D_RL: read field: "GuNm1   ", #   2 in fldList, rec=   2
(PID.TID 0000.0001) READ_MFLDS_3D_RL: read field: "GvNm1   ", #   4 in fldList, rec=   4
(PID.TID 0000.0001) READ_MFLDS_3D_RL: read field: "EtaN    ", #   9 in fldList, rec= 121
(PID.TID 0000.0001) READ_MFLDS_3D_RL: read field: "dEtaHdt ", #  10 in fldList, rec= 122
(PID.TID 0000.0001) READ_MFLDS_3D_RL: read field: "EtaH    ", #  11 in fldList, rec= 123
(PID.TID 0000.0001) READ_MFLDS_CHECK: - normal end ; reset MFLDS file-name: pickup.0000072000
(PID.TID 0000.0001)  nRecords =  15 ; filePrec =  64 ; fileIter =     72000
(PID.TID 0000.0001)     nDims =   2 , dims:
(PID.TID 0000.0001)    1: 192   1 192
(PID.TID 0000.0001)    2:  32   1  32
(PID.TID 0000.0001)     nFlds =  15 , nFl3D =   0 , fields:
(PID.TID 0000.0001)  >siTICE  < >siYNEG  < >siHSNOW < >siUICE  < >siUICE_2< >siUICE_3< >siVICE  < >siVICE_2< >siVICE_3< >siHEFF  < >siHEFF_2< >siHEFF_3< >siAREA  < >siAREA_2< >siAREA_3<
(PID.TID 0000.0001) missingVal=  1.00000000000000E+00 ; nTimRec =   0 , timeList:
(PID.TID 0000.0001) READ_MFLDS_LEV_RL: read field: "siTICE  ", #   1 in fldList, rec=   1
(PID.TID 0000.0001) READ_MFLDS_3D_RL: read field: "siAREA  ", #  13 in fldList, rec=  13
(PID.TID 0000.0001) READ_MFLDS_3D_RL: read field: "siHEFF  ", #  10 in fldList, rec=  10
(PID.TID 0000.0001) READ_MFLDS_3D_RL: read field: "siHSNOW ", #   3 in fldList, rec=   3
(PID.TID 0000.0001) READ_MFLDS_3D_RL: read field: "siUICE  ", #   4 in fldList, rec=   4
(PID.TID 0000.0001) READ_MFLDS_3D_RL: read field: "siVICE  ", #   7 in fldList, rec=   7
(PID.TID 0000.0001) READ_MFLDS_CHECK: - normal end ; reset MFLDS file-name: pickup_seaice.0000072000
(PID.TID 0000.0001) // =======================================================
(PID.TID 0000.0001) // Model current state
(PID.TID 0000.0001) // =======================================================
(PID.TID 0000.0001) 
(PID.TID 0000.0001) SOLVE_FOR_PRESSURE: putPmEinXvector =    F
 cg2d: Sum(rhs),rhsMax =   1.09891466449713E+02  2.01372754051185E+01
 cg2d: Sum(rhs),rhsMax =   1.07767549282744E+02  2.05338888828345E+01
 cg2d: Sum(rhs),rhsMax =   1.06880725879532E+02  2.07023141861734E+01
 cg2d: Sum(rhs),rhsMax =   1.06077230735415E+02  2.08570979308990E+01
 cg2d: Sum(rhs),rhsMax =   1.05455463599562E+02  2.09779533100242E+01
(PID.TID 0000.0001) Did not write pickup because writePickupAtEnd = FALSE
(PID.TID 0000.0001)   early fc =  0.000000000000000D+00
 --> objf_test(bi,bj)        =  0.971415711196871D+04
 --> objf_test(bi,bj)        =  0.743444248313277D+04
 --> objf_test(bi,bj)        =  0.916061123350230D+04
 --> objf_test(bi,bj)        =  0.776111598371222D+04
 --> objf_test(bi,bj)        =  0.645188367644279D+04
 --> objf_test(bi,bj)        =  0.121082955237956D+05
 --> objf_test(bi,bj)        =  0.130205818145339D+05
 --> objf_test(bi,bj)        =  0.134004371116242D+05
 --> objf_test(bi,bj)        =  0.704975745887338D+04
 --> objf_test(bi,bj)        =  0.654290127805236D+04
 --> objf_test(bi,bj)        =  0.974952434178962D+04
 --> objf_test(bi,bj)        =  0.845212180795913D+04
(PID.TID 0000.0001)   local fc =  0.110845829825387D+06
(PID.TID 0000.0001)  global fc =  0.110845829825387D+06
(PID.TID 0000.0001) grdchk perturb(-)fc: fcpertminus =  1.10845829825387E+05
grad-res -------------------------------
 grad-res     0    2    2    1    1    1    1    1   1.10845871739E+05  1.10845912428E+05  1.10845829825E+05
 grad-res     0    2    2    2    0    1    1    1   4.12973208297E+00  4.13012568242E+00 -9.53087145961E-05
(PID.TID 0000.0001)  ADM  ref_cost_function      =  1.10845871739285E+05
(PID.TID 0000.0001)  ADM  adjoint_gradient       =  4.12973208296621E+00
(PID.TID 0000.0001)  ADM  finite-diff_grad       =  4.13012568242266E+00
(PID.TID 0000.0001) ====== End of gradient-check number   2 (ierr=  0) =======
(PID.TID 0000.0001) ====== Starts gradient-check number   3 (=ichknum) =======
 ph-test icomp, ncvarcomp, ichknum            3       55522           3
 ph-grd _loc: bi, bj, icomptest, ichknum            1           1           2           3
 ph-grd -->hit<--            3           1           1           1
(PID.TID 0000.0001) grdchk pos: i,j,k=    3    1    1 ; bi,bj=   1   1 ; iobc=  1 ; rec=   1
(PID.TID 0000.0001)  nRecords = 123 ; filePrec =  64 ; fileIter =     72000
(PID.TID 0000.0001)     nDims =   2 , dims:
(PID.TID 0000.0001)    1: 192   1 192
(PID.TID 0000.0001)    2:  32   1  32
(PID.TID 0000.0001)     nFlds =  11 , nFl3D =   8 , fields:
(PID.TID 0000.0001)  >Uvel    < >GuNm1   < >Vvel    < >GvNm1   < >Theta   < >GtNm1   < >Salt    < >GsNm1   < >EtaN    < >dEtaHdt < >EtaH    <
(PID.TID 0000.0001) missingVal=  1.00000000000000E+00 ; nTimRec =   0 , timeList:
(PID.TID 0000.0001) READ_MFLDS_3D_RL: read field: "Uvel    ", #   1 in fldList, rec=   1
(PID.TID 0000.0001) READ_MFLDS_3D_RL: read field: "Vvel    ", #   3 in fldList, rec=   3
(PID.TID 0000.0001) READ_MFLDS_3D_RL: read field: "Theta   ", #   5 in fldList, rec=   5
(PID.TID 0000.0001) READ_MFLDS_3D_RL: read field: "Salt    ", #   7 in fldList, rec=   7
(PID.TID 0000.0001) READ_MFLDS_3D_RL: read field: "GuNm1   ", #   2 in fldList, rec=   2
(PID.TID 0000.0001) READ_MFLDS_3D_RL: read field: "GvNm1   ", #   4 in fldList, rec=   4
(PID.TID 0000.0001) READ_MFLDS_3D_RL: read field: "EtaN    ", #   9 in fldList, rec= 121
(PID.TID 0000.0001) READ_MFLDS_3D_RL: read field: "dEtaHdt ", #  10 in fldList, rec= 122
(PID.TID 0000.0001) READ_MFLDS_3D_RL: read field: "EtaH    ", #  11 in fldList, rec= 123
(PID.TID 0000.0001) READ_MFLDS_CHECK: - normal end ; reset MFLDS file-name: pickup.0000072000
(PID.TID 0000.0001)  nRecords =  15 ; filePrec =  64 ; fileIter =     72000
(PID.TID 0000.0001)     nDims =   2 , dims:
(PID.TID 0000.0001)    1: 192   1 192
(PID.TID 0000.0001)    2:  32   1  32
(PID.TID 0000.0001)     nFlds =  15 , nFl3D =   0 , fields:
(PID.TID 0000.0001)  >siTICE  < >siYNEG  < >siHSNOW < >siUICE  < >siUICE_2< >siUICE_3< >siVICE  < >siVICE_2< >siVICE_3< >siHEFF  < >siHEFF_2< >siHEFF_3< >siAREA  < >siAREA_2< >siAREA_3<
(PID.TID 0000.0001) missingVal=  1.00000000000000E+00 ; nTimRec =   0 , timeList:
(PID.TID 0000.0001) READ_MFLDS_LEV_RL: read field: "siTICE  ", #   1 in fldList, rec=   1
(PID.TID 0000.0001) READ_MFLDS_3D_RL: read field: "siAREA  ", #  13 in fldList, rec=  13
(PID.TID 0000.0001) READ_MFLDS_3D_RL: read field: "siHEFF  ", #  10 in fldList, rec=  10
(PID.TID 0000.0001) READ_MFLDS_3D_RL: read field: "siHSNOW ", #   3 in fldList, rec=   3
(PID.TID 0000.0001) READ_MFLDS_3D_RL: read field: "siUICE  ", #   4 in fldList, rec=   4
(PID.TID 0000.0001) READ_MFLDS_3D_RL: read field: "siVICE  ", #   7 in fldList, rec=   7
(PID.TID 0000.0001) READ_MFLDS_CHECK: - normal end ; reset MFLDS file-name: pickup_seaice.0000072000
(PID.TID 0000.0001) // =======================================================
(PID.TID 0000.0001) // Model current state
(PID.TID 0000.0001) // =======================================================
(PID.TID 0000.0001) 
(PID.TID 0000.0001) SOLVE_FOR_PRESSURE: putPmEinXvector =    F
 cg2d: Sum(rhs),rhsMax =   1.09891466475948E+02  2.01372754051185E+01
 cg2d: Sum(rhs),rhsMax =   1.07767549114744E+02  2.05338889246048E+01
 cg2d: Sum(rhs),rhsMax =   1.06880725693940E+02  2.07023142357741E+01
 cg2d: Sum(rhs),rhsMax =   1.06077230686035E+02  2.08570979599426E+01
 cg2d: Sum(rhs),rhsMax =   1.05455463638741E+02  2.09779533265111E+01
(PID.TID 0000.0001) Did not write pickup because writePickupAtEnd = FALSE
(PID.TID 0000.0001)   early fc =  0.000000000000000D+00
 --> objf_test(bi,bj)        =  0.971423050283850D+04
 --> objf_test(bi,bj)        =  0.743444248301133D+04
 --> objf_test(bi,bj)        =  0.916061123365808D+04
 --> objf_test(bi,bj)        =  0.776111598395476D+04
 --> objf_test(bi,bj)        =  0.645188367645034D+04
 --> objf_test(bi,bj)        =  0.121082955233749D+05
 --> objf_test(bi,bj)        =  0.130205818144474D+05
 --> objf_test(bi,bj)        =  0.134004371116842D+05
 --> objf_test(bi,bj)        =  0.704975745895997D+04
 --> objf_test(bi,bj)        =  0.654290141149726D+04
 --> objf_test(bi,bj)        =  0.974952435843709D+04
 --> objf_test(bi,bj)        =  0.845212329188060D+04
(PID.TID 0000.0001)   local fc =  0.110845904850194D+06
(PID.TID 0000.0001)  global fc =  0.110845904850194D+06
(PID.TID 0000.0001) grdchk perturb(+)fc: fcpertplus  =  1.10845904850194E+05
(PID.TID 0000.0001)  nRecords = 123 ; filePrec =  64 ; fileIter =     72000
(PID.TID 0000.0001)     nDims =   2 , dims:
(PID.TID 0000.0001)    1: 192   1 192
(PID.TID 0000.0001)    2:  32   1  32
(PID.TID 0000.0001)     nFlds =  11 , nFl3D =   8 , fields:
(PID.TID 0000.0001)  >Uvel    < >GuNm1   < >Vvel    < >GvNm1   < >Theta   < >GtNm1   < >Salt    < >GsNm1   < >EtaN    < >dEtaHdt < >EtaH    <
(PID.TID 0000.0001) missingVal=  1.00000000000000E+00 ; nTimRec =   0 , timeList:
(PID.TID 0000.0001) READ_MFLDS_3D_RL: read field: "Uvel    ", #   1 in fldList, rec=   1
(PID.TID 0000.0001) READ_MFLDS_3D_RL: read field: "Vvel    ", #   3 in fldList, rec=   3
(PID.TID 0000.0001) READ_MFLDS_3D_RL: read field: "Theta   ", #   5 in fldList, rec=   5
(PID.TID 0000.0001) READ_MFLDS_3D_RL: read field: "Salt    ", #   7 in fldList, rec=   7
(PID.TID 0000.0001) READ_MFLDS_3D_RL: read field: "GuNm1   ", #   2 in fldList, rec=   2
(PID.TID 0000.0001) READ_MFLDS_3D_RL: read field: "GvNm1   ", #   4 in fldList, rec=   4
(PID.TID 0000.0001) READ_MFLDS_3D_RL: read field: "EtaN    ", #   9 in fldList, rec= 121
(PID.TID 0000.0001) READ_MFLDS_3D_RL: read field: "dEtaHdt ", #  10 in fldList, rec= 122
(PID.TID 0000.0001) READ_MFLDS_3D_RL: read field: "EtaH    ", #  11 in fldList, rec= 123
(PID.TID 0000.0001) READ_MFLDS_CHECK: - normal end ; reset MFLDS file-name: pickup.0000072000
(PID.TID 0000.0001)  nRecords =  15 ; filePrec =  64 ; fileIter =     72000
(PID.TID 0000.0001)     nDims =   2 , dims:
(PID.TID 0000.0001)    1: 192   1 192
(PID.TID 0000.0001)    2:  32   1  32
(PID.TID 0000.0001)     nFlds =  15 , nFl3D =   0 , fields:
(PID.TID 0000.0001)  >siTICE  < >siYNEG  < >siHSNOW < >siUICE  < >siUICE_2< >siUICE_3< >siVICE  < >siVICE_2< >siVICE_3< >siHEFF  < >siHEFF_2< >siHEFF_3< >siAREA  < >siAREA_2< >siAREA_3<
(PID.TID 0000.0001) missingVal=  1.00000000000000E+00 ; nTimRec =   0 , timeList:
(PID.TID 0000.0001) READ_MFLDS_LEV_RL: read field: "siTICE  ", #   1 in fldList, rec=   1
(PID.TID 0000.0001) READ_MFLDS_3D_RL: read field: "siAREA  ", #  13 in fldList, rec=  13
(PID.TID 0000.0001) READ_MFLDS_3D_RL: read field: "siHEFF  ", #  10 in fldList, rec=  10
(PID.TID 0000.0001) READ_MFLDS_3D_RL: read field: "siHSNOW ", #   3 in fldList, rec=   3
(PID.TID 0000.0001) READ_MFLDS_3D_RL: read field: "siUICE  ", #   4 in fldList, rec=   4
(PID.TID 0000.0001) READ_MFLDS_3D_RL: read field: "siVICE  ", #   7 in fldList, rec=   7
(PID.TID 0000.0001) READ_MFLDS_CHECK: - normal end ; reset MFLDS file-name: pickup_seaice.0000072000
(PID.TID 0000.0001) // =======================================================
(PID.TID 0000.0001) // Model current state
(PID.TID 0000.0001) // =======================================================
(PID.TID 0000.0001) 
(PID.TID 0000.0001) SOLVE_FOR_PRESSURE: putPmEinXvector =    F
 cg2d: Sum(rhs),rhsMax =   1.09891466445054E+02  2.01372754051185E+01
 cg2d: Sum(rhs),rhsMax =   1.07767549306890E+02  2.05338888765111E+01
 cg2d: Sum(rhs),rhsMax =   1.06880725901849E+02  2.07023141792731E+01
 cg2d: Sum(rhs),rhsMax =   1.06077230737821E+02  2.08570979269999E+01
 cg2d: Sum(rhs),rhsMax =   1.05455463534461E+02  2.09779533076222E+01
(PID.TID 0000.0001) Did not write pickup because writePickupAtEnd = FALSE
(PID.TID 0000.0001)   early fc =  0.000000000000000D+00
 --> objf_test(bi,bj)        =  0.971416370503345D+04
 --> objf_test(bi,bj)        =  0.743444248315128D+04
 --> objf_test(bi,bj)        =  0.916061123347579D+04
 --> objf_test(bi,bj)        =  0.776111598367599D+04
 --> objf_test(bi,bj)        =  0.645188367644180D+04
 --> objf_test(bi,bj)        =  0.121082955238577D+05
 --> objf_test(bi,bj)        =  0.130205818145552D+05
 --> objf_test(bi,bj)        =  0.134004371116115D+05
 --> objf_test(bi,bj)        =  0.704975745886001D+04
 --> objf_test(bi,bj)        =  0.654290140067782D+04
 --> objf_test(bi,bj)        =  0.974952502792003D+04
 --> objf_test(bi,bj)        =  0.845212267808375D+04
(PID.TID 0000.0001)   local fc =  0.110845838097344D+06
(PID.TID 0000.0001)  global fc =  0.110845838097344D+06
(PID.TID 0000.0001) grdchk perturb(-)fc: fcpertminus =  1.10845838097344E+05
grad-res -------------------------------
 grad-res     0    3    3    1    1    1    1    1   1.10845871739E+05  1.10845904850E+05  1.10845838097E+05
 grad-res     0    3    3    3    0    1    1    1   3.37114436207E+00  3.33764250754E+00  9.93782850434E-03
(PID.TID 0000.0001)  ADM  ref_cost_function      =  1.10845871739285E+05
(PID.TID 0000.0001)  ADM  adjoint_gradient       =  3.37114436207396E+00
(PID.TID 0000.0001)  ADM  finite-diff_grad       =  3.33764250754029E+00
(PID.TID 0000.0001) ====== End of gradient-check number   3 (ierr=  0) =======
(PID.TID 0000.0001) ====== Starts gradient-check number   4 (=ichknum) =======
 ph-test icomp, ncvarcomp, ichknum            4       55522           4
 ph-grd _loc: bi, bj, icomptest, ichknum            1           1           3           4
 ph-grd -->hit<--            4           1           1           1
(PID.TID 0000.0001) grdchk pos: i,j,k=    4    1    1 ; bi,bj=   1   1 ; iobc=  1 ; rec=   1
(PID.TID 0000.0001)  nRecords = 123 ; filePrec =  64 ; fileIter =     72000
(PID.TID 0000.0001)     nDims =   2 , dims:
(PID.TID 0000.0001)    1: 192   1 192
(PID.TID 0000.0001)    2:  32   1  32
(PID.TID 0000.0001)     nFlds =  11 , nFl3D =   8 , fields:
(PID.TID 0000.0001)  >Uvel    < >GuNm1   < >Vvel    < >GvNm1   < >Theta   < >GtNm1   < >Salt    < >GsNm1   < >EtaN    < >dEtaHdt < >EtaH    <
(PID.TID 0000.0001) missingVal=  1.00000000000000E+00 ; nTimRec =   0 , timeList:
(PID.TID 0000.0001) READ_MFLDS_3D_RL: read field: "Uvel    ", #   1 in fldList, rec=   1
(PID.TID 0000.0001) READ_MFLDS_3D_RL: read field: "Vvel    ", #   3 in fldList, rec=   3
(PID.TID 0000.0001) READ_MFLDS_3D_RL: read field: "Theta   ", #   5 in fldList, rec=   5
(PID.TID 0000.0001) READ_MFLDS_3D_RL: read field: "Salt    ", #   7 in fldList, rec=   7
(PID.TID 0000.0001) READ_MFLDS_3D_RL: read field: "GuNm1   ", #   2 in fldList, rec=   2
(PID.TID 0000.0001) READ_MFLDS_3D_RL: read field: "GvNm1   ", #   4 in fldList, rec=   4
(PID.TID 0000.0001) READ_MFLDS_3D_RL: read field: "EtaN    ", #   9 in fldList, rec= 121
(PID.TID 0000.0001) READ_MFLDS_3D_RL: read field: "dEtaHdt ", #  10 in fldList, rec= 122
(PID.TID 0000.0001) READ_MFLDS_3D_RL: read field: "EtaH    ", #  11 in fldList, rec= 123
(PID.TID 0000.0001) READ_MFLDS_CHECK: - normal end ; reset MFLDS file-name: pickup.0000072000
(PID.TID 0000.0001)  nRecords =  15 ; filePrec =  64 ; fileIter =     72000
(PID.TID 0000.0001)     nDims =   2 , dims:
(PID.TID 0000.0001)    1: 192   1 192
(PID.TID 0000.0001)    2:  32   1  32
(PID.TID 0000.0001)     nFlds =  15 , nFl3D =   0 , fields:
(PID.TID 0000.0001)  >siTICE  < >siYNEG  < >siHSNOW < >siUICE  < >siUICE_2< >siUICE_3< >siVICE  < >siVICE_2< >siVICE_3< >siHEFF  < >siHEFF_2< >siHEFF_3< >siAREA  < >siAREA_2< >siAREA_3<
(PID.TID 0000.0001) missingVal=  1.00000000000000E+00 ; nTimRec =   0 , timeList:
(PID.TID 0000.0001) READ_MFLDS_LEV_RL: read field: "siTICE  ", #   1 in fldList, rec=   1
(PID.TID 0000.0001) READ_MFLDS_3D_RL: read field: "siAREA  ", #  13 in fldList, rec=  13
(PID.TID 0000.0001) READ_MFLDS_3D_RL: read field: "siHEFF  ", #  10 in fldList, rec=  10
(PID.TID 0000.0001) READ_MFLDS_3D_RL: read field: "siHSNOW ", #   3 in fldList, rec=   3
(PID.TID 0000.0001) READ_MFLDS_3D_RL: read field: "siUICE  ", #   4 in fldList, rec=   4
(PID.TID 0000.0001) READ_MFLDS_3D_RL: read field: "siVICE  ", #   7 in fldList, rec=   7
(PID.TID 0000.0001) READ_MFLDS_CHECK: - normal end ; reset MFLDS file-name: pickup_seaice.0000072000
(PID.TID 0000.0001) // =======================================================
(PID.TID 0000.0001) // Model current state
(PID.TID 0000.0001) // =======================================================
(PID.TID 0000.0001) 
(PID.TID 0000.0001) SOLVE_FOR_PRESSURE: putPmEinXvector =    F
 cg2d: Sum(rhs),rhsMax =   1.09891466481506E+02  2.01372754051185E+01
 cg2d: Sum(rhs),rhsMax =   1.07767549094620E+02  2.05338889304977E+01
 cg2d: Sum(rhs),rhsMax =   1.06880725685116E+02  2.07023142416110E+01
 cg2d: Sum(rhs),rhsMax =   1.06077230691662E+02  2.08570979632609E+01
 cg2d: Sum(rhs),rhsMax =   1.05455463597212E+02  2.09779533289062E+01
(PID.TID 0000.0001) Did not write pickup because writePickupAtEnd = FALSE
(PID.TID 0000.0001)   early fc =  0.000000000000000D+00
 --> objf_test(bi,bj)        =  0.971422725264376D+04
 --> objf_test(bi,bj)        =  0.743444248299640D+04
 --> objf_test(bi,bj)        =  0.916061123367811D+04
 --> objf_test(bi,bj)        =  0.776111598398747D+04
 --> objf_test(bi,bj)        =  0.645188367645110D+04
 --> objf_test(bi,bj)        =  0.121082955233240D+05
 --> objf_test(bi,bj)        =  0.130205818144418D+05
 --> objf_test(bi,bj)        =  0.134004371116889D+05
 --> objf_test(bi,bj)        =  0.704975745897005D+04
 --> objf_test(bi,bj)        =  0.654290140600229D+04
 --> objf_test(bi,bj)        =  0.974952496395444D+04
 --> objf_test(bi,bj)        =  0.845212285232291D+04
(PID.TID 0000.0001)   local fc =  0.110845901760461D+06
(PID.TID 0000.0001)  global fc =  0.110845901760461D+06
(PID.TID 0000.0001) grdchk perturb(+)fc: fcpertplus  =  1.10845901760461E+05
(PID.TID 0000.0001)  nRecords = 123 ; filePrec =  64 ; fileIter =     72000
(PID.TID 0000.0001)     nDims =   2 , dims:
(PID.TID 0000.0001)    1: 192   1 192
(PID.TID 0000.0001)    2:  32   1  32
(PID.TID 0000.0001)     nFlds =  11 , nFl3D =   8 , fields:
(PID.TID 0000.0001)  >Uvel    < >GuNm1   < >Vvel    < >GvNm1   < >Theta   < >GtNm1   < >Salt    < >GsNm1   < >EtaN    < >dEtaHdt < >EtaH    <
(PID.TID 0000.0001) missingVal=  1.00000000000000E+00 ; nTimRec =   0 , timeList:
(PID.TID 0000.0001) READ_MFLDS_3D_RL: read field: "Uvel    ", #   1 in fldList, rec=   1
(PID.TID 0000.0001) READ_MFLDS_3D_RL: read field: "Vvel    ", #   3 in fldList, rec=   3
(PID.TID 0000.0001) READ_MFLDS_3D_RL: read field: "Theta   ", #   5 in fldList, rec=   5
(PID.TID 0000.0001) READ_MFLDS_3D_RL: read field: "Salt    ", #   7 in fldList, rec=   7
(PID.TID 0000.0001) READ_MFLDS_3D_RL: read field: "GuNm1   ", #   2 in fldList, rec=   2
(PID.TID 0000.0001) READ_MFLDS_3D_RL: read field: "GvNm1   ", #   4 in fldList, rec=   4
(PID.TID 0000.0001) READ_MFLDS_3D_RL: read field: "EtaN    ", #   9 in fldList, rec= 121
(PID.TID 0000.0001) READ_MFLDS_3D_RL: read field: "dEtaHdt ", #  10 in fldList, rec= 122
(PID.TID 0000.0001) READ_MFLDS_3D_RL: read field: "EtaH    ", #  11 in fldList, rec= 123
(PID.TID 0000.0001) READ_MFLDS_CHECK: - normal end ; reset MFLDS file-name: pickup.0000072000
(PID.TID 0000.0001)  nRecords =  15 ; filePrec =  64 ; fileIter =     72000
(PID.TID 0000.0001)     nDims =   2 , dims:
(PID.TID 0000.0001)    1: 192   1 192
(PID.TID 0000.0001)    2:  32   1  32
(PID.TID 0000.0001)     nFlds =  15 , nFl3D =   0 , fields:
(PID.TID 0000.0001)  >siTICE  < >siYNEG  < >siHSNOW < >siUICE  < >siUICE_2< >siUICE_3< >siVICE  < >siVICE_2< >siVICE_3< >siHEFF  < >siHEFF_2< >siHEFF_3< >siAREA  < >siAREA_2< >siAREA_3<
(PID.TID 0000.0001) missingVal=  1.00000000000000E+00 ; nTimRec =   0 , timeList:
(PID.TID 0000.0001) READ_MFLDS_LEV_RL: read field: "siTICE  ", #   1 in fldList, rec=   1
(PID.TID 0000.0001) READ_MFLDS_3D_RL: read field: "siAREA  ", #  13 in fldList, rec=  13
(PID.TID 0000.0001) READ_MFLDS_3D_RL: read field: "siHEFF  ", #  10 in fldList, rec=  10
(PID.TID 0000.0001) READ_MFLDS_3D_RL: read field: "siHSNOW ", #   3 in fldList, rec=   3
(PID.TID 0000.0001) READ_MFLDS_3D_RL: read field: "siUICE  ", #   4 in fldList, rec=   4
(PID.TID 0000.0001) READ_MFLDS_3D_RL: read field: "siVICE  ", #   7 in fldList, rec=   7
(PID.TID 0000.0001) READ_MFLDS_CHECK: - normal end ; reset MFLDS file-name: pickup_seaice.0000072000
(PID.TID 0000.0001) // =======================================================
(PID.TID 0000.0001) // Model current state
(PID.TID 0000.0001) // =======================================================
(PID.TID 0000.0001) 
(PID.TID 0000.0001) SOLVE_FOR_PRESSURE: putPmEinXvector =    F
 cg2d: Sum(rhs),rhsMax =   1.09891466439497E+02  2.01372754051185E+01
 cg2d: Sum(rhs),rhsMax =   1.07767549327004E+02  2.05338888706204E+01
 cg2d: Sum(rhs),rhsMax =   1.06880725916018E+02  2.07023141734433E+01
 cg2d: Sum(rhs),rhsMax =   1.06077230737503E+02  2.08570979236944E+01
 cg2d: Sum(rhs),rhsMax =   1.05455463580229E+02  2.09779533052424E+01
(PID.TID 0000.0001) Did not write pickup because writePickupAtEnd = FALSE
(PID.TID 0000.0001)   early fc =  0.000000000000000D+00
 --> objf_test(bi,bj)        =  0.971416695272481D+04
 --> objf_test(bi,bj)        =  0.743444248316626D+04
 --> objf_test(bi,bj)        =  0.916061123345814D+04
 --> objf_test(bi,bj)        =  0.776111598364336D+04
 --> objf_test(bi,bj)        =  0.645188367644077D+04
 --> objf_test(bi,bj)        =  0.121082955239086D+05
 --> objf_test(bi,bj)        =  0.130205818145568D+05
 --> objf_test(bi,bj)        =  0.134004371116090D+05
 --> objf_test(bi,bj)        =  0.704975745885030D+04
 --> objf_test(bi,bj)        =  0.654290140617190D+04
 --> objf_test(bi,bj)        =  0.974952441390138D+04
 --> objf_test(bi,bj)        =  0.845212311739741D+04
(PID.TID 0000.0001)   local fc =  0.110845841175829D+06
(PID.TID 0000.0001)  global fc =  0.110845841175829D+06
(PID.TID 0000.0001) grdchk perturb(-)fc: fcpertminus =  1.10845841175829E+05
grad-res -------------------------------
 grad-res     0    4    4    1    1    1    1    1   1.10845871739E+05  1.10845901760E+05  1.10845841176E+05
 grad-res     0    4    4    4    0    1    1    1   3.00174853053E+00  3.02923162744E+00 -9.15569596659E-03
(PID.TID 0000.0001)  ADM  ref_cost_function      =  1.10845871739285E+05
(PID.TID 0000.0001)  ADM  adjoint_gradient       =  3.00174853052895E+00
(PID.TID 0000.0001)  ADM  finite-diff_grad       =  3.02923162744264E+00
(PID.TID 0000.0001) ====== End of gradient-check number   4 (ierr=  0) =======
(PID.TID 0000.0001) 
(PID.TID 0000.0001) // =======================================================
(PID.TID 0000.0001) // Gradient check results  >>> START <<<
(PID.TID 0000.0001) // =======================================================
(PID.TID 0000.0001) 
(PID.TID 0000.0001)  EPS = 1.000000E-02 ; grdchk CTRL var/file name: "xx_theta"
(PID.TID 0000.0001) 
(PID.TID 0000.0001) grdchk output h.p:  Id Itile Jtile LAYER   bi   bj   X(Id)           X(Id)+/-EPS
(PID.TID 0000.0001) grdchk output h.c:  Id  FC                   FC1                  FC2
(PID.TID 0000.0001) grdchk output h.g:  Id     FC1-FC2/(2*EPS)      ADJ GRAD(FC)         1-FDGRD/ADGRD
(PID.TID 0000.0001) 
(PID.TID 0000.0001) grdchk output (p):   1     1     1     1    1    1   0.000000000E+00 -1.000000000E-02
(PID.TID 0000.0001) grdchk output (c):   1  1.1084587173929E+05  1.1084591448303E+05  1.1084582776599E+05
(PID.TID 0000.0001) grdchk output (g):   1     4.3358517315937E+00  4.3360656865110E+00  4.9343098730614E-05
(PID.TID 0000.0001) 
(PID.TID 0000.0001) grdchk output (p):   2     2     1     1    1    1   0.000000000E+00 -1.000000000E-02
(PID.TID 0000.0001) grdchk output (c):   2  1.1084587173929E+05  1.1084591242790E+05  1.1084582982539E+05
(PID.TID 0000.0001) grdchk output (g):   2     4.1301256824227E+00  4.1297320829662E+00 -9.5308714596065E-05
(PID.TID 0000.0001) 
(PID.TID 0000.0001) grdchk output (p):   3     3     1     1    1    1   0.000000000E+00 -1.000000000E-02
(PID.TID 0000.0001) grdchk output (c):   3  1.1084587173929E+05  1.1084590485019E+05  1.1084583809734E+05
(PID.TID 0000.0001) grdchk output (g):   3     3.3376425075403E+00  3.3711443620740E+00  9.9378285043398E-03
(PID.TID 0000.0001) 
(PID.TID 0000.0001) grdchk output (p):   4     4     1     1    1    1   0.000000000E+00 -1.000000000E-02
(PID.TID 0000.0001) grdchk output (c):   4  1.1084587173929E+05  1.1084590176046E+05  1.1084584117583E+05
(PID.TID 0000.0001) grdchk output (g):   4     3.0292316274426E+00  3.0017485305289E+00 -9.1556959665942E-03
(PID.TID 0000.0001) 
(PID.TID 0000.0001) grdchk  summary  :  RMS of    4 ratios =  6.7564547380051E-03
(PID.TID 0000.0001) 
(PID.TID 0000.0001) // =======================================================
(PID.TID 0000.0001) // Gradient check results  >>> END <<<
(PID.TID 0000.0001) // =======================================================
(PID.TID 0000.0001) 
(PID.TID 0000.0001)   Seconds in section "ALL                    [THE_MODEL_MAIN]":
(PID.TID 0000.0001)           User time:   105.78154372889549
(PID.TID 0000.0001)         System time:  0.59191101789474487
(PID.TID 0000.0001)     Wall clock time:   106.56925797462463
(PID.TID 0000.0001)          No. starts:           1
(PID.TID 0000.0001)           No. stops:           1
(PID.TID 0000.0001)   Seconds in section "INITIALISE_FIXED       [THE_MODEL_MAIN]":
(PID.TID 0000.0001)           User time:  0.16038699727505445
(PID.TID 0000.0001)         System time:   7.7568002045154572E-002
(PID.TID 0000.0001)     Wall clock time:  0.31654000282287598
(PID.TID 0000.0001)          No. starts:           1
(PID.TID 0000.0001)           No. stops:           1
(PID.TID 0000.0001)   Seconds in section "ADTHE_MAIN_LOOP          [ADJOINT RUN]":
(PID.TID 0000.0001)           User time:   44.666297748684883
(PID.TID 0000.0001)         System time:  0.39827200770378113
(PID.TID 0000.0001)     Wall clock time:   45.171540975570679
(PID.TID 0000.0001)          No. starts:           1
(PID.TID 0000.0001)           No. stops:           1
(PID.TID 0000.0001)   Seconds in section "FORWARD_STEP        [MAIN_DO_LOOP]":
(PID.TID 0000.0001)           User time:   74.717071115970612
(PID.TID 0000.0001)         System time:   3.2374009490013123E-002
(PID.TID 0000.0001)     Wall clock time:   74.773606061935425
(PID.TID 0000.0001)          No. starts:          50
(PID.TID 0000.0001)           No. stops:          50
(PID.TID 0000.0001)   Seconds in section "UPDATE_R_STAR       [FORWARD_STEP]":
(PID.TID 0000.0001)           User time:   1.2069247364997864
(PID.TID 0000.0001)         System time:   1.7112493515014648E-004
(PID.TID 0000.0001)     Wall clock time:   1.2072885036468506
(PID.TID 0000.0001)          No. starts:         100
(PID.TID 0000.0001)           No. stops:         100
(PID.TID 0000.0001)   Seconds in section "LOAD_FIELDS_DRIVER  [FORWARD_STEP]":
(PID.TID 0000.0001)           User time:  0.64874893426895142
(PID.TID 0000.0001)         System time:   8.1739723682403564E-003
(PID.TID 0000.0001)     Wall clock time:  0.65701484680175781
(PID.TID 0000.0001)          No. starts:          50
(PID.TID 0000.0001)           No. stops:          50
(PID.TID 0000.0001)   Seconds in section "EXF_GETFORCING     [LOAD_FLDS_DRIVER]":
(PID.TID 0000.0001)           User time:  0.54703372716903687
(PID.TID 0000.0001)         System time:   8.0259442329406738E-003
(PID.TID 0000.0001)     Wall clock time:  0.55514574050903320
(PID.TID 0000.0001)          No. starts:          50
(PID.TID 0000.0001)           No. stops:          50
(PID.TID 0000.0001)   Seconds in section "EXTERNAL_FLDS_LOAD [LOAD_FLDS_DRIVER]":
(PID.TID 0000.0001)           User time:   2.6243925094604492E-004
(PID.TID 0000.0001)         System time:   1.0132789611816406E-006
(PID.TID 0000.0001)     Wall clock time:   2.5081634521484375E-004
(PID.TID 0000.0001)          No. starts:          50
(PID.TID 0000.0001)           No. stops:          50
(PID.TID 0000.0001)   Seconds in section "CTRL_MAP_FORCING  [FORWARD_STEP]":
(PID.TID 0000.0001)           User time:  0.25183749198913574
(PID.TID 0000.0001)         System time:   6.1914324760437012E-005
(PID.TID 0000.0001)     Wall clock time:  0.25195097923278809
(PID.TID 0000.0001)          No. starts:          50
(PID.TID 0000.0001)           No. stops:          50
(PID.TID 0000.0001)   Seconds in section "DO_ATMOSPHERIC_PHYS [FORWARD_STEP]":
(PID.TID 0000.0001)           User time:   3.5965681076049805E-002
(PID.TID 0000.0001)         System time:   3.4987926483154297E-005
(PID.TID 0000.0001)     Wall clock time:   3.6041259765625000E-002
(PID.TID 0000.0001)          No. starts:          50
(PID.TID 0000.0001)           No. stops:          50
(PID.TID 0000.0001)   Seconds in section "DO_OCEANIC_PHYS     [FORWARD_STEP]":
(PID.TID 0000.0001)           User time:   35.653828203678131
(PID.TID 0000.0001)         System time:   1.5575945377349854E-002
(PID.TID 0000.0001)     Wall clock time:   35.671892404556274
(PID.TID 0000.0001)          No. starts:          50
(PID.TID 0000.0001)           No. stops:          50
(PID.TID 0000.0001)   Seconds in section "SEAICE_MODEL    [DO_OCEANIC_PHYS]":
(PID.TID 0000.0001)           User time:   29.954955756664276
(PID.TID 0000.0001)         System time:   7.6339989900588989E-003
(PID.TID 0000.0001)     Wall clock time:   29.964795112609863
(PID.TID 0000.0001)          No. starts:          50
(PID.TID 0000.0001)           No. stops:          50
(PID.TID 0000.0001)   Seconds in section "SEAICE_DYNSOLVER   [SEAICE_MODEL]":
(PID.TID 0000.0001)           User time:   29.102639079093933
(PID.TID 0000.0001)         System time:   3.4670233726501465E-003
(PID.TID 0000.0001)     Wall clock time:   29.108249902725220
(PID.TID 0000.0001)          No. starts:          50
(PID.TID 0000.0001)           No. stops:          50
(PID.TID 0000.0001)   Seconds in section "DYNAMICS            [FORWARD_STEP]":
(PID.TID 0000.0001)           User time:   12.643676400184631
(PID.TID 0000.0001)         System time:   2.6898086071014404E-004
(PID.TID 0000.0001)     Wall clock time:   12.644899606704712
(PID.TID 0000.0001)          No. starts:          50
(PID.TID 0000.0001)           No. stops:          50
(PID.TID 0000.0001)   Seconds in section "SOLVE_FOR_PRESSURE  [FORWARD_STEP]":
(PID.TID 0000.0001)           User time:   5.2941759824752808
(PID.TID 0000.0001)         System time:   6.9737434387207031E-006
(PID.TID 0000.0001)     Wall clock time:   5.2946219444274902
(PID.TID 0000.0001)          No. starts:          50
(PID.TID 0000.0001)           No. stops:          50
(PID.TID 0000.0001)   Seconds in section "MOM_CORRECTION_STEP [FORWARD_STEP]":
(PID.TID 0000.0001)           User time:  0.38846266269683838
(PID.TID 0000.0001)         System time:   3.0398368835449219E-006
(PID.TID 0000.0001)     Wall clock time:  0.38857650756835938
(PID.TID 0000.0001)          No. starts:          50
(PID.TID 0000.0001)           No. stops:          50
(PID.TID 0000.0001)   Seconds in section "INTEGR_CONTINUITY   [FORWARD_STEP]":
(PID.TID 0000.0001)           User time:  0.66810810565948486
(PID.TID 0000.0001)         System time:   8.0019235610961914E-006
(PID.TID 0000.0001)     Wall clock time:  0.66819262504577637
(PID.TID 0000.0001)          No. starts:          50
(PID.TID 0000.0001)           No. stops:          50
(PID.TID 0000.0001)   Seconds in section "CALC_R_STAR         [FORWARD_STEP]":
(PID.TID 0000.0001)           User time:  0.13630640506744385
(PID.TID 0000.0001)         System time:   3.1009316444396973E-005
(PID.TID 0000.0001)     Wall clock time:  0.13636469841003418
(PID.TID 0000.0001)          No. starts:          50
(PID.TID 0000.0001)           No. stops:          50
(PID.TID 0000.0001)   Seconds in section "BLOCKING_EXCHANGES  [FORWARD_STEP]":
(PID.TID 0000.0001)           User time:  0.60373759269714355
(PID.TID 0000.0001)         System time:   3.3989548683166504E-005
(PID.TID 0000.0001)     Wall clock time:  0.60392403602600098
(PID.TID 0000.0001)          No. starts:         100
(PID.TID 0000.0001)           No. stops:         100
(PID.TID 0000.0001)   Seconds in section "THERMODYNAMICS      [FORWARD_STEP]":
(PID.TID 0000.0001)           User time:   16.207029819488525
(PID.TID 0000.0001)         System time:   1.0073184967041016E-005
(PID.TID 0000.0001)     Wall clock time:   16.208193063735962
(PID.TID 0000.0001)          No. starts:          50
(PID.TID 0000.0001)           No. stops:          50
(PID.TID 0000.0001)   Seconds in section "TRC_CORRECTION_STEP [FORWARD_STEP]":
(PID.TID 0000.0001)           User time:   2.9730796813964844E-004
(PID.TID 0000.0001)         System time:   0.0000000000000000
(PID.TID 0000.0001)     Wall clock time:   2.6988983154296875E-004
(PID.TID 0000.0001)          No. starts:          50
(PID.TID 0000.0001)           No. stops:          50
(PID.TID 0000.0001)   Seconds in section "MONITOR             [FORWARD_STEP]":
(PID.TID 0000.0001)           User time:  0.32243919372558594
(PID.TID 0000.0001)         System time:   0.0000000000000000
(PID.TID 0000.0001)     Wall clock time:  0.32253098487854004
(PID.TID 0000.0001)          No. starts:          50
(PID.TID 0000.0001)           No. stops:          50
(PID.TID 0000.0001)   Seconds in section "COST_TILE           [FORWARD_STEP]":
(PID.TID 0000.0001)           User time:  0.59244561195373535
(PID.TID 0000.0001)         System time:   2.9802322387695312E-006
(PID.TID 0000.0001)     Wall clock time:  0.59260463714599609
(PID.TID 0000.0001)          No. starts:          50
(PID.TID 0000.0001)           No. stops:          50
(PID.TID 0000.0001)   Seconds in section "DO_THE_MODEL_IO     [FORWARD_STEP]":
(PID.TID 0000.0001)           User time:   3.1574487686157227E-002
(PID.TID 0000.0001)         System time:   7.9530030488967896E-003
(PID.TID 0000.0001)     Wall clock time:   5.5826425552368164E-002
(PID.TID 0000.0001)          No. starts:          50
(PID.TID 0000.0001)           No. stops:          50
(PID.TID 0000.0001)   Seconds in section "DO_WRITE_PICKUP     [FORWARD_STEP]":
(PID.TID 0000.0001)           User time:   2.3115158081054688E-002
(PID.TID 0000.0001)         System time:   0.0000000000000000
(PID.TID 0000.0001)     Wall clock time:   2.6009321212768555E-002
(PID.TID 0000.0001)          No. starts:          50
(PID.TID 0000.0001)           No. stops:          50
(PID.TID 0000.0001)   Seconds in section "I/O (WRITE)        [ADJOINT LOOP]":
(PID.TID 0000.0001)           User time:   7.0209503173828125E-002
(PID.TID 0000.0001)         System time:   3.1379997730255127E-002
(PID.TID 0000.0001)     Wall clock time:  0.16674971580505371
(PID.TID 0000.0001)          No. starts:           7
(PID.TID 0000.0001)           No. stops:           7
(PID.TID 0000.0001)   Seconds in section "CTRL_PACK           [THE_MODEL_MAIN]":
(PID.TID 0000.0001)           User time:   4.6115875244140625E-002
(PID.TID 0000.0001)         System time:   8.0199837684631348E-003
(PID.TID 0000.0001)     Wall clock time:   5.4516792297363281E-002
(PID.TID 0000.0001)          No. starts:           1
(PID.TID 0000.0001)           No. stops:           1
(PID.TID 0000.0001)   Seconds in section "CTRL_PACK     [THE_MODEL_MAIN]":
(PID.TID 0000.0001)           User time:   4.8583984375000000E-002
(PID.TID 0000.0001)         System time:   4.0059983730316162E-003
(PID.TID 0000.0001)     Wall clock time:   5.2824974060058594E-002
(PID.TID 0000.0001)          No. starts:           1
(PID.TID 0000.0001)           No. stops:           1
(PID.TID 0000.0001)   Seconds in section "GRDCHK_MAIN         [THE_MODEL_MAIN]":
(PID.TID 0000.0001)           User time:   60.860103607177734
(PID.TID 0000.0001)         System time:  0.10404002666473389
(PID.TID 0000.0001)     Wall clock time:   60.973785161972046
(PID.TID 0000.0001)          No. starts:           1
(PID.TID 0000.0001)           No. stops:           1
(PID.TID 0000.0001)   Seconds in section "INITIALISE_VARIA    [THE_MAIN_LOOP]":
(PID.TID 0000.0001)           User time:   1.4520301818847656
(PID.TID 0000.0001)         System time:   7.5947970151901245E-002
(PID.TID 0000.0001)     Wall clock time:   1.5283002853393555
(PID.TID 0000.0001)          No. starts:           8
(PID.TID 0000.0001)           No. stops:           8
(PID.TID 0000.0001)   Seconds in section "MAIN LOOP           [THE_MAIN_LOOP]":
(PID.TID 0000.0001)           User time:   59.307018280029297
(PID.TID 0000.0001)         System time:   1.2107074260711670E-002
(PID.TID 0000.0001)     Wall clock time:   59.322550296783447
(PID.TID 0000.0001)          No. starts:           8
(PID.TID 0000.0001)           No. stops:           8
(PID.TID 0000.0001)   Seconds in section "MAIN_DO_LOOP        [THE_MAIN_LOOP]":
(PID.TID 0000.0001)           User time:   59.281616210937500
(PID.TID 0000.0001)         System time:   4.1640400886535645E-003
(PID.TID 0000.0001)     Wall clock time:   59.289206743240356
(PID.TID 0000.0001)          No. starts:          40
(PID.TID 0000.0001)           No. stops:          40
(PID.TID 0000.0001)   Seconds in section "COST_FINAL         [ADJOINT SPIN-DOWN]":
(PID.TID 0000.0001)           User time:   2.4600982666015625E-002
(PID.TID 0000.0001)         System time:   7.9329609870910645E-003
(PID.TID 0000.0001)     Wall clock time:   3.2557249069213867E-002
(PID.TID 0000.0001)          No. starts:           8
(PID.TID 0000.0001)           No. stops:           8
(PID.TID 0000.0001) // ======================================================
(PID.TID 0000.0001) // Tile <-> Tile communication statistics
(PID.TID 0000.0001) // ======================================================
(PID.TID 0000.0001) // o Tile number: 000001
(PID.TID 0000.0001) //         No. X exchanges =              0
(PID.TID 0000.0001) //            Max. X spins =              0
(PID.TID 0000.0001) //            Min. X spins =     1000000000
(PID.TID 0000.0001) //          Total. X spins =              0
(PID.TID 0000.0001) //            Avg. X spins =       0.00E+00
(PID.TID 0000.0001) //         No. Y exchanges =              0
(PID.TID 0000.0001) //            Max. Y spins =              0
(PID.TID 0000.0001) //            Min. Y spins =     1000000000
(PID.TID 0000.0001) //          Total. Y spins =              0
(PID.TID 0000.0001) //            Avg. Y spins =       0.00E+00
(PID.TID 0000.0001) // o Tile number: 000002
(PID.TID 0000.0001) //         No. X exchanges =              0
(PID.TID 0000.0001) //            Max. X spins =              0
(PID.TID 0000.0001) //            Min. X spins =     1000000000
(PID.TID 0000.0001) //          Total. X spins =              0
(PID.TID 0000.0001) //            Avg. X spins =       0.00E+00
(PID.TID 0000.0001) //         No. Y exchanges =              0
(PID.TID 0000.0001) //            Max. Y spins =              0
(PID.TID 0000.0001) //            Min. Y spins =     1000000000
(PID.TID 0000.0001) //          Total. Y spins =              0
(PID.TID 0000.0001) //            Avg. Y spins =       0.00E+00
(PID.TID 0000.0001) // o Tile number: 000003
(PID.TID 0000.0001) //         No. X exchanges =              0
(PID.TID 0000.0001) //            Max. X spins =              0
(PID.TID 0000.0001) //            Min. X spins =     1000000000
(PID.TID 0000.0001) //          Total. X spins =              0
(PID.TID 0000.0001) //            Avg. X spins =       0.00E+00
(PID.TID 0000.0001) //         No. Y exchanges =              0
(PID.TID 0000.0001) //            Max. Y spins =              0
(PID.TID 0000.0001) //            Min. Y spins =     1000000000
(PID.TID 0000.0001) //          Total. Y spins =              0
(PID.TID 0000.0001) //            Avg. Y spins =       0.00E+00
(PID.TID 0000.0001) // o Tile number: 000004
(PID.TID 0000.0001) //         No. X exchanges =              0
(PID.TID 0000.0001) //            Max. X spins =              0
(PID.TID 0000.0001) //            Min. X spins =     1000000000
(PID.TID 0000.0001) //          Total. X spins =              0
(PID.TID 0000.0001) //            Avg. X spins =       0.00E+00
(PID.TID 0000.0001) //         No. Y exchanges =              0
(PID.TID 0000.0001) //            Max. Y spins =              0
(PID.TID 0000.0001) //            Min. Y spins =     1000000000
(PID.TID 0000.0001) //          Total. Y spins =              0
(PID.TID 0000.0001) //            Avg. Y spins =       0.00E+00
(PID.TID 0000.0001) // o Tile number: 000005
(PID.TID 0000.0001) //         No. X exchanges =              0
(PID.TID 0000.0001) //            Max. X spins =              0
(PID.TID 0000.0001) //            Min. X spins =     1000000000
(PID.TID 0000.0001) //          Total. X spins =              0
(PID.TID 0000.0001) //            Avg. X spins =       0.00E+00
(PID.TID 0000.0001) //         No. Y exchanges =              0
(PID.TID 0000.0001) //            Max. Y spins =              0
(PID.TID 0000.0001) //            Min. Y spins =     1000000000
(PID.TID 0000.0001) //          Total. Y spins =              0
(PID.TID 0000.0001) //            Avg. Y spins =       0.00E+00
(PID.TID 0000.0001) // o Tile number: 000006
(PID.TID 0000.0001) //         No. X exchanges =              0
(PID.TID 0000.0001) //            Max. X spins =              0
(PID.TID 0000.0001) //            Min. X spins =     1000000000
(PID.TID 0000.0001) //          Total. X spins =              0
(PID.TID 0000.0001) //            Avg. X spins =       0.00E+00
(PID.TID 0000.0001) //         No. Y exchanges =              0
(PID.TID 0000.0001) //            Max. Y spins =              0
(PID.TID 0000.0001) //            Min. Y spins =     1000000000
(PID.TID 0000.0001) //          Total. Y spins =              0
(PID.TID 0000.0001) //            Avg. Y spins =       0.00E+00
(PID.TID 0000.0001) // o Tile number: 000007
(PID.TID 0000.0001) //         No. X exchanges =              0
(PID.TID 0000.0001) //            Max. X spins =              0
(PID.TID 0000.0001) //            Min. X spins =     1000000000
(PID.TID 0000.0001) //          Total. X spins =              0
(PID.TID 0000.0001) //            Avg. X spins =       0.00E+00
(PID.TID 0000.0001) //         No. Y exchanges =              0
(PID.TID 0000.0001) //            Max. Y spins =              0
(PID.TID 0000.0001) //            Min. Y spins =     1000000000
(PID.TID 0000.0001) //          Total. Y spins =              0
(PID.TID 0000.0001) //            Avg. Y spins =       0.00E+00
(PID.TID 0000.0001) // o Tile number: 000008
(PID.TID 0000.0001) //         No. X exchanges =              0
(PID.TID 0000.0001) //            Max. X spins =              0
(PID.TID 0000.0001) //            Min. X spins =     1000000000
(PID.TID 0000.0001) //          Total. X spins =              0
(PID.TID 0000.0001) //            Avg. X spins =       0.00E+00
(PID.TID 0000.0001) //         No. Y exchanges =              0
(PID.TID 0000.0001) //            Max. Y spins =              0
(PID.TID 0000.0001) //            Min. Y spins =     1000000000
(PID.TID 0000.0001) //          Total. Y spins =              0
(PID.TID 0000.0001) //            Avg. Y spins =       0.00E+00
(PID.TID 0000.0001) // o Tile number: 000009
(PID.TID 0000.0001) //         No. X exchanges =              0
(PID.TID 0000.0001) //            Max. X spins =              0
(PID.TID 0000.0001) //            Min. X spins =     1000000000
(PID.TID 0000.0001) //          Total. X spins =              0
(PID.TID 0000.0001) //            Avg. X spins =       0.00E+00
(PID.TID 0000.0001) //         No. Y exchanges =              0
(PID.TID 0000.0001) //            Max. Y spins =              0
(PID.TID 0000.0001) //            Min. Y spins =     1000000000
(PID.TID 0000.0001) //          Total. Y spins =              0
(PID.TID 0000.0001) //            Avg. Y spins =       0.00E+00
(PID.TID 0000.0001) // o Tile number: 000010
(PID.TID 0000.0001) //         No. X exchanges =              0
(PID.TID 0000.0001) //            Max. X spins =              0
(PID.TID 0000.0001) //            Min. X spins =     1000000000
(PID.TID 0000.0001) //          Total. X spins =              0
(PID.TID 0000.0001) //            Avg. X spins =       0.00E+00
(PID.TID 0000.0001) //         No. Y exchanges =              0
(PID.TID 0000.0001) //            Max. Y spins =              0
(PID.TID 0000.0001) //            Min. Y spins =     1000000000
(PID.TID 0000.0001) //          Total. Y spins =              0
(PID.TID 0000.0001) //            Avg. Y spins =       0.00E+00
(PID.TID 0000.0001) // o Tile number: 000011
(PID.TID 0000.0001) //         No. X exchanges =              0
(PID.TID 0000.0001) //            Max. X spins =              0
(PID.TID 0000.0001) //            Min. X spins =     1000000000
(PID.TID 0000.0001) //          Total. X spins =              0
(PID.TID 0000.0001) //            Avg. X spins =       0.00E+00
(PID.TID 0000.0001) //         No. Y exchanges =              0
(PID.TID 0000.0001) //            Max. Y spins =              0
(PID.TID 0000.0001) //            Min. Y spins =     1000000000
(PID.TID 0000.0001) //          Total. Y spins =              0
(PID.TID 0000.0001) //            Avg. Y spins =       0.00E+00
(PID.TID 0000.0001) // o Tile number: 000012
(PID.TID 0000.0001) //         No. X exchanges =              0
(PID.TID 0000.0001) //            Max. X spins =              0
(PID.TID 0000.0001) //            Min. X spins =     1000000000
(PID.TID 0000.0001) //          Total. X spins =              0
(PID.TID 0000.0001) //            Avg. X spins =       0.00E+00
(PID.TID 0000.0001) //         No. Y exchanges =              0
(PID.TID 0000.0001) //            Max. Y spins =              0
(PID.TID 0000.0001) //            Min. Y spins =     1000000000
(PID.TID 0000.0001) //          Total. Y spins =              0
(PID.TID 0000.0001) //            Avg. Y spins =       0.00E+00
(PID.TID 0000.0001) // o Thread number: 000001
(PID.TID 0000.0001) //            No. barriers =         173940
(PID.TID 0000.0001) //      Max. barrier spins =              1
(PID.TID 0000.0001) //      Min. barrier spins =              1
(PID.TID 0000.0001) //     Total barrier spins =         173940
(PID.TID 0000.0001) //      Avg. barrier spins =       1.00E+00
PROGRAM MAIN: Execution ended Normally
