(PID.TID 0000.0001) 
(PID.TID 0000.0001) // ======================================================
(PID.TID 0000.0001) //                      MITgcm UV
(PID.TID 0000.0001) //                      =========
(PID.TID 0000.0001) // ======================================================
(PID.TID 0000.0001) // execution environment starting up...
(PID.TID 0000.0001) 
(PID.TID 0000.0001) // MITgcmUV version:  checkpoint67s
(PID.TID 0000.0001) // Build user:        jm_c
(PID.TID 0000.0001) // Build host:        villon
(PID.TID 0000.0001) // Build date:        Tue Dec  1 13:43:48 EST 2020
(PID.TID 0000.0001) 
(PID.TID 0000.0001) // =======================================================
(PID.TID 0000.0001) // Execution Environment parameter file "eedata"
(PID.TID 0000.0001) // =======================================================
(PID.TID 0000.0001) ># Example "eedata" file
(PID.TID 0000.0001) ># Lines beginning "#" are comments
(PID.TID 0000.0001) ># nTx - No. threads per process in X
(PID.TID 0000.0001) ># nTy - No. threads per process in Y
(PID.TID 0000.0001) > &EEPARMS
(PID.TID 0000.0001) > useCubedSphereExchange=.TRUE.,
(PID.TID 0000.0001) > nTx=1,
(PID.TID 0000.0001) > nTy=1,
(PID.TID 0000.0001) > /
(PID.TID 0000.0001) ># Note: Some systems use & as the
(PID.TID 0000.0001) ># namelist terminator. Other systems
(PID.TID 0000.0001) ># use a / character (as shown here).
(PID.TID 0000.0001) 
(PID.TID 0000.0001) // =======================================================
(PID.TID 0000.0001) // Computational Grid Specification ( see files "SIZE.h" )
(PID.TID 0000.0001) //                                  ( and "eedata"       )
(PID.TID 0000.0001) // =======================================================
(PID.TID 0000.0001)      nPx =    1 ; /* No. processes in X */
(PID.TID 0000.0001)      nPy =    1 ; /* No. processes in Y */
(PID.TID 0000.0001)      nSx =   12 ; /* No. tiles in X per process */
(PID.TID 0000.0001)      nSy =    1 ; /* No. tiles in Y per process */
(PID.TID 0000.0001)      sNx =   32 ; /* Tile size in X */
(PID.TID 0000.0001)      sNy =   16 ; /* Tile size in Y */
(PID.TID 0000.0001)      OLx =    4 ; /* Tile overlap distance in X */
(PID.TID 0000.0001)      OLy =    4 ; /* Tile overlap distance in Y */
(PID.TID 0000.0001)      nTx =    1 ; /* No. threads in X per process */
(PID.TID 0000.0001)      nTy =    1 ; /* No. threads in Y per process */
(PID.TID 0000.0001)       Nr =   15 ; /* No. levels in the vertical   */
(PID.TID 0000.0001)       Nx =  384 ; /* Total domain size in X ( = nPx*nSx*sNx ) */
(PID.TID 0000.0001)       Ny =   16 ; /* Total domain size in Y ( = nPy*nSy*sNy ) */
(PID.TID 0000.0001)   nTiles =   12 ; /* Total no. tiles per process ( = nSx*nSy ) */
(PID.TID 0000.0001)   nProcs =    1 ; /* Total no. processes ( = nPx*nPy ) */
(PID.TID 0000.0001) nThreads =    1 ; /* Total no. threads per process ( = nTx*nTy ) */
(PID.TID 0000.0001) usingMPI =    F ; /* Flag used to control whether MPI is in use */
(PID.TID 0000.0001)                   /*  note: To execute a program with MPI calls */
(PID.TID 0000.0001)                   /*  it must be launched appropriately e.g     */
(PID.TID 0000.0001)                   /*  "mpirun -np 64 ......"                    */
(PID.TID 0000.0001) useCoupler=   F ; /* Flag used to control communications with   */
(PID.TID 0000.0001)                   /*  other model components, through a coupler */
(PID.TID 0000.0001) useNest2W_parent =    F ;/* Control 2-W Nesting comm */
(PID.TID 0000.0001) useNest2W_child  =    F ;/* Control 2-W Nesting comm */
(PID.TID 0000.0001) debugMode =    F ; /* print debug msg. (sequence of S/R calls)  */
(PID.TID 0000.0001) printMapIncludesZeros=    F ; /* print zeros in Std.Output maps */
(PID.TID 0000.0001) maxLengthPrt1D=   65 /* maxLength of 1D array printed to StdOut */
(PID.TID 0000.0001) 
(PID.TID 0000.0001) // ======================================================
(PID.TID 0000.0001) // Mapping of tiles to threads
(PID.TID 0000.0001) // ======================================================
(PID.TID 0000.0001) // -o- Thread   1, tiles (   1:  12,   1:   1)
(PID.TID 0000.0001) 
(PID.TID 0000.0001) W2_READPARMS: file data.exch2 not found
(PID.TID 0000.0001) => use W2_EXCH2 default: regular 6-facets Cube
(PID.TID 0000.0001) W2_useE2ioLayOut=    T ;/* T: use Exch2 glob IO map; F: use model default */
(PID.TID 0000.0001) W2_mapIO        =  -1 ; /* select option for Exch2 global-IO map */
(PID.TID 0000.0001) W2_printMsg     =  -1 ; /* select option for printing information */
(PID.TID 0000.0001) ===== Start setting W2 TOPOLOGY:
(PID.TID 0000.0001)  write to log-file: w2_tile_topology.0000.log
(PID.TID 0000.0001) =====       setting W2 TOPOLOGY: Done
(PID.TID 0000.0001) 
(PID.TID 0000.0001)  INI_PARMS: opening model parameter file "data"
(PID.TID 0000.0001)  OPEN_COPY_DATA_FILE: opening file data
(PID.TID 0000.0001) // =======================================================
(PID.TID 0000.0001) // Parameter file "data"
(PID.TID 0000.0001) // =======================================================
(PID.TID 0000.0001) ># ====================
(PID.TID 0000.0001) ># | Model parameters |
(PID.TID 0000.0001) ># ====================
(PID.TID 0000.0001) >#
(PID.TID 0000.0001) ># Continuous equation parameters
(PID.TID 0000.0001) > &PARM01
(PID.TID 0000.0001) > tRef=15*20.,
(PID.TID 0000.0001) > sRef=15*35.,
(PID.TID 0000.0001) > viscAh =3.E5,
(PID.TID 0000.0001) >#- biharmonic Viscosity: 3.e15 is close to the stability limit with deltaTmom=20mn
(PID.TID 0000.0001) >#viscA4 =3.E15,
(PID.TID 0000.0001) > viscAr =1.E-3,
(PID.TID 0000.0001) > diffKhT=0.,
(PID.TID 0000.0001) > diffK4T=0.,
(PID.TID 0000.0001) >#- diffKrT unused when compiled with ALLOW_3D_DIFFKR
(PID.TID 0000.0001) >#diffKrT=3.E-5,
(PID.TID 0000.0001) > diffKhS=0.,
(PID.TID 0000.0001) > diffK4S=0.,
(PID.TID 0000.0001) > diffKrS=3.E-5,
(PID.TID 0000.0001) > ivdc_kappa=10.,
(PID.TID 0000.0001) > implicitDiffusion=.TRUE.,
(PID.TID 0000.0001) > gravity=9.81,
(PID.TID 0000.0001) > rhoConst=1035.,
(PID.TID 0000.0001) > rhoConstFresh=1000.,
(PID.TID 0000.0001) > eosType='JMD95Z',
(PID.TID 0000.0001) > staggerTimeStep=.TRUE.,
(PID.TID 0000.0001) > vectorInvariantMomentum=.TRUE.,
(PID.TID 0000.0001) > implicitFreeSurface=.TRUE.,
(PID.TID 0000.0001) > tempAdvScheme=30,
(PID.TID 0000.0001) > saltAdvScheme=30,
(PID.TID 0000.0001) > tempVertAdvScheme=30,
(PID.TID 0000.0001) > saltVertAdvScheme=30,
(PID.TID 0000.0001) > tempImplVertAdv=.TRUE.,
(PID.TID 0000.0001) > saltImplVertAdv=.TRUE.,
(PID.TID 0000.0001) > exactConserv=.TRUE.,
(PID.TID 0000.0001) > select_rStar=2,
(PID.TID 0000.0001) > nonlinFreeSurf=4,
(PID.TID 0000.0001) > hFacInf=0.2,
(PID.TID 0000.0001) > hFacSup=2.0,
(PID.TID 0000.0001) > useRealFreshWaterFlux=.TRUE.,
(PID.TID 0000.0001) > allowFreezing=.TRUE.,
(PID.TID 0000.0001) > hFacMin=.1,
(PID.TID 0000.0001) > hFacMinDr=20.,
(PID.TID 0000.0001) > readBinaryPrec=64,
(PID.TID 0000.0001) > /
(PID.TID 0000.0001) >
(PID.TID 0000.0001) ># Elliptic solver parameters
(PID.TID 0000.0001) > &PARM02
(PID.TID 0000.0001) > cg2dMaxIters=200,
(PID.TID 0000.0001) >#cg2dTargetResidual=1.E-9,
(PID.TID 0000.0001) > cg2dTargetResWunit=1.E-14,
(PID.TID 0000.0001) > /
(PID.TID 0000.0001) >
(PID.TID 0000.0001) ># Time stepping parameters
(PID.TID 0000.0001) > &PARM03
(PID.TID 0000.0001) > nIter0=72000,
(PID.TID 0000.0001) > nTimeSteps=5,
(PID.TID 0000.0001) > deltaTMom   =1200.,
(PID.TID 0000.0001) > deltaTtracer=86400.,
(PID.TID 0000.0001) > deltaTFreeSurf=86400.,
(PID.TID 0000.0001) > deltaTClock =86400.,
(PID.TID 0000.0001) > abEps = 0.1,
(PID.TID 0000.0001) > forcing_In_AB=.FALSE.,
(PID.TID 0000.0001) > momDissip_In_AB=.FALSE.,
(PID.TID 0000.0001) > pChkptFreq  =311040000.,
(PID.TID 0000.0001) > chkptFreq   = 31104000.,
(PID.TID 0000.0001) >#taveFreq    =311040000.,
(PID.TID 0000.0001) >#dumpFreq    = 31104000.,
(PID.TID 0000.0001) >#adjDumpFreq = 31104000.,
(PID.TID 0000.0001) >#monitorFreq = 31104000.,
(PID.TID 0000.0001) > periodicExternalForcing=.TRUE.,
(PID.TID 0000.0001) > externForcingPeriod=2592000.,
(PID.TID 0000.0001) > externForcingCycle=31104000.,
(PID.TID 0000.0001) ># 2 months restoring timescale for temperature
(PID.TID 0000.0001) > tauThetaClimRelax = 5184000.,
(PID.TID 0000.0001) ># 2yrs restoring timescale for salinity
(PID.TID 0000.0001) > tauSaltClimRelax = 62208000.,
(PID.TID 0000.0001) > monitorFreq   =1.,
(PID.TID 0000.0001) > adjMonitorFreq=1.,
(PID.TID 0000.0001) > dumpFreq    = 432000.,
(PID.TID 0000.0001) > adjDumpFreq = 432000.,
(PID.TID 0000.0001) > pickupStrictlyMatch=.FALSE.,
(PID.TID 0000.0001) > /
(PID.TID 0000.0001) >
(PID.TID 0000.0001) ># Gridding parameters
(PID.TID 0000.0001) > &PARM04
(PID.TID 0000.0001) > usingCurvilinearGrid=.TRUE.,
(PID.TID 0000.0001) > horizGridFile='grid_cs32',
(PID.TID 0000.0001) > delR= 50., 70., 100., 140., 190.,
(PID.TID 0000.0001) >       240., 290., 340., 390., 440.,
(PID.TID 0000.0001) >       490., 540., 590., 640., 690.,
(PID.TID 0000.0001) > /
(PID.TID 0000.0001) >
(PID.TID 0000.0001) ># Input datasets
(PID.TID 0000.0001) > &PARM05
(PID.TID 0000.0001) > bathyFile      ='bathy_Hmin50.bin',
(PID.TID 0000.0001) > hydrogThetaFile='lev_T_cs_15k.bin',
(PID.TID 0000.0001) > hydrogSaltFile ='lev_S_cs_15k.bin',
(PID.TID 0000.0001) > zonalWindFile  ='trenberth_taux.bin',
(PID.TID 0000.0001) > meridWindFile  ='trenberth_tauy.bin',
(PID.TID 0000.0001) > thetaClimFile  ='lev_surfT_cs_12m.bin',
(PID.TID 0000.0001) > saltClimFile   ='lev_surfS_cs_12m.bin',
(PID.TID 0000.0001) > surfQnetFile   ='shiQnet_cs32.bin',
(PID.TID 0000.0001) > EmPmRFile      ='shiEmPR_cs32.bin',
(PID.TID 0000.0001) > /
(PID.TID 0000.0001) 
(PID.TID 0000.0001)  INI_PARMS ; starts to read PARM01
(PID.TID 0000.0001)  INI_PARMS ; read PARM01 : OK
(PID.TID 0000.0001)  INI_PARMS ; starts to read PARM02
(PID.TID 0000.0001)  INI_PARMS ; read PARM02 : OK
(PID.TID 0000.0001)  INI_PARMS ; starts to read PARM03
(PID.TID 0000.0001)  INI_PARMS ; read PARM03 : OK
(PID.TID 0000.0001)  INI_PARMS ; starts to read PARM04
(PID.TID 0000.0001)  INI_PARMS ; read PARM04 : OK
(PID.TID 0000.0001)  INI_PARMS ; starts to read PARM05
(PID.TID 0000.0001)  INI_PARMS ; read PARM05 : OK
(PID.TID 0000.0001)  INI_PARMS: finished reading file "data"
(PID.TID 0000.0001)  PACKAGES_BOOT: opening data.pkg
(PID.TID 0000.0001)  OPEN_COPY_DATA_FILE: opening file data.pkg
(PID.TID 0000.0001) // =======================================================
(PID.TID 0000.0001) // Parameter file "data.pkg"
(PID.TID 0000.0001) // =======================================================
(PID.TID 0000.0001) ># Packages
(PID.TID 0000.0001) > &PACKAGES
(PID.TID 0000.0001) > useGMRedi = .TRUE.,
(PID.TID 0000.0001) > useEXF    = .FALSE.,
(PID.TID 0000.0001) > useTHSICE = .FALSE.,
(PID.TID 0000.0001) > useDiagnostics=.TRUE.,
(PID.TID 0000.0001) >#useMNC=.TRUE.,
(PID.TID 0000.0001) > useGrdchk=.TRUE.,
(PID.TID 0000.0001) > /
(PID.TID 0000.0001) 
(PID.TID 0000.0001)  PACKAGES_BOOT: finished reading data.pkg
(PID.TID 0000.0001)  PACKAGES_BOOT: On/Off package Summary
 --------  pkgs with a standard "usePKG" On/Off switch in "data.pkg":  --------
 pkg/gmredi               compiled   and   used ( useGMRedi                = T )
 pkg/cal                  compiled but not used ( useCAL                   = F )
 pkg/exf                  compiled but not used ( useEXF                   = F )
 pkg/autodiff             compiled   and   used ( useAUTODIFF              = T )
 pkg/grdchk               compiled   and   used ( useGrdchk                = T )
 pkg/ctrl                 compiled   and   used ( useCTRL                  = T )
 pkg/seaice               compiled but not used ( useSEAICE                = F )
 pkg/thsice               compiled but not used ( useThSIce                = F )
 pkg/diagnostics          compiled   and   used ( useDiagnostics           = T )
 -------- pkgs without standard "usePKG" On/Off switch in "data.pkg":  --------
 pkg/generic_advdiff      compiled   and   used ( useGAD                   = T )
 pkg/mom_common           compiled   and   used ( momStepping              = T )
 pkg/mom_vecinv           compiled   and   used ( +vectorInvariantMomentum = T )
 pkg/monitor              compiled   and   used ( monitorFreq > 0.         = T )
 pkg/debug                compiled but not used ( debugMode                = F )
 pkg/exch2                compiled   and   used
 pkg/rw                   compiled   and   used
 pkg/mdsio                compiled   and   used
 pkg/autodiff             compiled   and   used
 pkg/cost                 compiled   and   used
(PID.TID 0000.0001)  PACKAGES_BOOT: End of package Summary
(PID.TID 0000.0001) 
(PID.TID 0000.0001)  GM_READPARMS: opening data.gmredi
(PID.TID 0000.0001)  OPEN_COPY_DATA_FILE: opening file data.gmredi
(PID.TID 0000.0001) // =======================================================
(PID.TID 0000.0001) // Parameter file "data.gmredi"
(PID.TID 0000.0001) // =======================================================
(PID.TID 0000.0001) ># GM+Redi package parameters:
(PID.TID 0000.0001) >#     GM_Small_Number  :: epsilon used in computing the slope
(PID.TID 0000.0001) >#     GM_slopeSqCutoff :: slope^2 cut-off value
(PID.TID 0000.0001) >
(PID.TID 0000.0001) >#-from MOM :
(PID.TID 0000.0001) ># GM_background_K: 	G & Mc.W  diffusion coefficient
(PID.TID 0000.0001) ># GM_maxSlope    :	max slope of isopycnals
(PID.TID 0000.0001) ># GM_Scrit       :	transition for scaling diffusion coefficient
(PID.TID 0000.0001) ># GM_Sd          :	half width scaling for diffusion coefficient
(PID.TID 0000.0001) ># GM_taper_scheme:	slope clipping or one of the tapering schemes
(PID.TID 0000.0001) ># GM_Kmin_horiz  :	horizontal diffusion minimum value
(PID.TID 0000.0001) >
(PID.TID 0000.0001) >#-Option parameters (needs to "define" options in GMREDI_OPTIONS.h")
(PID.TID 0000.0001) ># GM_isopycK     :	isopycnal diffusion coefficient (default=GM_background_K)
(PID.TID 0000.0001) ># GM_AdvForm     :	turn on GM Advective form       (default=Skew flux form)
(PID.TID 0000.0001) >
(PID.TID 0000.0001) > &GM_PARM01
(PID.TID 0000.0001) >  GM_Small_Number  = 1.D-20,
(PID.TID 0000.0001) >  GM_slopeSqCutoff = 1.D+08,
(PID.TID 0000.0001) >  GM_AdvForm         = .FALSE.,
(PID.TID 0000.0001) >  GM_background_K    = 1.D+3,
(PID.TID 0000.0001) >  GM_taper_scheme    = 'dm95',
(PID.TID 0000.0001) >  GM_maxSlope        = 1.D-2,
(PID.TID 0000.0001) >  GM_Kmin_horiz      = 50.,
(PID.TID 0000.0001) >  GM_Scrit           = 4.D-3,
(PID.TID 0000.0001) >  GM_Sd              = 1.D-3,
(PID.TID 0000.0001) >#  GM_Visbeck_alpha   = 1.5D-2,
(PID.TID 0000.0001) >  GM_Visbeck_alpha   = 0.,
(PID.TID 0000.0001) >  GM_Visbeck_length  = 2.D+5,
(PID.TID 0000.0001) >  GM_Visbeck_depth   = 1.D+3,
(PID.TID 0000.0001) >  GM_Visbeck_maxval_K= 2.5D+3,
(PID.TID 0000.0001) > /
(PID.TID 0000.0001) >
(PID.TID 0000.0001) >
(PID.TID 0000.0001) 
(PID.TID 0000.0001)  GM_READPARMS: finished reading data.gmredi
(PID.TID 0000.0001) AUTODIFF_READPARMS: opening data.autodiff
(PID.TID 0000.0001)  OPEN_COPY_DATA_FILE: opening file data.autodiff
(PID.TID 0000.0001) // =======================================================
(PID.TID 0000.0001) // Parameter file "data.autodiff"
(PID.TID 0000.0001) // =======================================================
(PID.TID 0000.0001) ># =========================
(PID.TID 0000.0001) ># pkg AUTODIFF parameters :
(PID.TID 0000.0001) ># =========================
(PID.TID 0000.0001) >#  inAdExact :: get an exact adjoint (no approximation) (def=.True.)
(PID.TID 0000.0001) >#
(PID.TID 0000.0001) > &AUTODIFF_PARM01
(PID.TID 0000.0001) ># inAdExact = .FALSE.,
(PID.TID 0000.0001) > /
(PID.TID 0000.0001) 
(PID.TID 0000.0001) AUTODIFF_READPARMS: finished reading data.autodiff
(PID.TID 0000.0001) // ===================================
(PID.TID 0000.0001) // AUTODIFF parameters :
(PID.TID 0000.0001) // ===================================
(PID.TID 0000.0001) inAdExact = /* get an exact adjoint (no approximation) */
(PID.TID 0000.0001)                   T
(PID.TID 0000.0001)     ;
(PID.TID 0000.0001) useKPPinAdMode = /* use KPP in adjoint mode */
(PID.TID 0000.0001)                   F
(PID.TID 0000.0001)     ;
(PID.TID 0000.0001) useGMRediInAdMode = /* use GMRedi in adjoint mode */
(PID.TID 0000.0001)                   T
(PID.TID 0000.0001)     ;
(PID.TID 0000.0001) useSEAICEinAdMode = /* use SEAICE in adjoint mode */
(PID.TID 0000.0001)                   F
(PID.TID 0000.0001)     ;
(PID.TID 0000.0001) useGGL90inAdMode = /* use GGL90 in adjoint mode */
(PID.TID 0000.0001)                   F
(PID.TID 0000.0001)     ;
(PID.TID 0000.0001) useSALT_PLUMEinAdMode = /* use SALT_PLUME in adjoint mode */
(PID.TID 0000.0001)                   F
(PID.TID 0000.0001)     ;
(PID.TID 0000.0001) SEAICEuseDYNAMICSswitchInAd = /* switch On/Off SEAICE Dyn in AD mode */
(PID.TID 0000.0001)                   F
(PID.TID 0000.0001)     ;
(PID.TID 0000.0001) SEAICEuseFREEDRIFTswitchInAd= /* switch On/Off Free-Drift in AD mode */
(PID.TID 0000.0001)                   F
(PID.TID 0000.0001)     ;
(PID.TID 0000.0001) SEAICEapproxLevInAd = /* -1:SEAICE_FAKE, >0:other adjoint approximation */
(PID.TID 0000.0001)                       0
(PID.TID 0000.0001)     ;
(PID.TID 0000.0001) dumpAdVarExch = /* control adexch before dumpinp */
(PID.TID 0000.0001)                       2
(PID.TID 0000.0001)     ;
(PID.TID 0000.0001) mon_AdVarExch = /* control adexch before monitor */
(PID.TID 0000.0001)                       2
(PID.TID 0000.0001)     ;
(PID.TID 0000.0001) viscFacInAd = /* viscosity factor for adjoint */
(PID.TID 0000.0001)                 1.000000000000000E+00
(PID.TID 0000.0001)     ;
(PID.TID 0000.0001) 
(PID.TID 0000.0001) OPTIM_READPARMS: opening data.optim
(PID.TID 0000.0001)  OPEN_COPY_DATA_FILE: opening file data.optim
(PID.TID 0000.0001) // =======================================================
(PID.TID 0000.0001) // Parameter file "data.optim"
(PID.TID 0000.0001) // =======================================================
(PID.TID 0000.0001) > &OPTIM
(PID.TID 0000.0001) > optimcycle=0,
(PID.TID 0000.0001) > /
(PID.TID 0000.0001) 
(PID.TID 0000.0001) OPTIM_READPARMS: finished reading data.optim
(PID.TID 0000.0001) CTRL_READPARMS: opening data.ctrl
(PID.TID 0000.0001)  OPEN_COPY_DATA_FILE: opening file data.ctrl
(PID.TID 0000.0001) // =======================================================
(PID.TID 0000.0001) // Parameter file "data.ctrl"
(PID.TID 0000.0001) // =======================================================
(PID.TID 0000.0001) >#
(PID.TID 0000.0001) >#
(PID.TID 0000.0001) ># *********************
(PID.TID 0000.0001) ># ECCO controlvariables
(PID.TID 0000.0001) ># *********************
(PID.TID 0000.0001) > &CTRL_NML
(PID.TID 0000.0001) > xx_theta_file      ='xx_theta',
(PID.TID 0000.0001) > xx_salt_file       ='xx_salt',
(PID.TID 0000.0001) >#
(PID.TID 0000.0001) > xx_hfluxstartdate1 = 19790101,
(PID.TID 0000.0001) > xx_hfluxstartdate2 = 000000,
(PID.TID 0000.0001) > xx_hfluxperiod     = 864000.0,
(PID.TID 0000.0001) > xx_hflux_file      = 'xx_hfl',
(PID.TID 0000.0001) >#
(PID.TID 0000.0001) > xx_sfluxstartdate1 = 19790101,
(PID.TID 0000.0001) > xx_sfluxstartdate2 = 000000,
(PID.TID 0000.0001) > xx_sfluxperiod     = 864000.0,
(PID.TID 0000.0001) > xx_sflux_file      = 'xx_sfl',
(PID.TID 0000.0001) >#
(PID.TID 0000.0001) > xx_tauustartdate1 = 19790101,
(PID.TID 0000.0001) > xx_tauustartdate2 = 000000,
(PID.TID 0000.0001) > xx_tauuperiod     = 864000.0,
(PID.TID 0000.0001) > xx_tauu_file      = 'xx_tauu',
(PID.TID 0000.0001) >#
(PID.TID 0000.0001) > xx_tauvstartdate1 = 19790101,
(PID.TID 0000.0001) > xx_tauvstartdate2 = 000000,
(PID.TID 0000.0001) > xx_tauvperiod     = 864000.0,
(PID.TID 0000.0001) > xx_tauv_file      = 'xx_tauv',
(PID.TID 0000.0001) >#
(PID.TID 0000.0001) > xx_atempstartdate1 = 19790101,
(PID.TID 0000.0001) > xx_atempstartdate2 = 000000,
(PID.TID 0000.0001) > xx_atempperiod     = 864000.0,
(PID.TID 0000.0001) > xx_atemp_file      = 'xx_atemp',
(PID.TID 0000.0001) >#
(PID.TID 0000.0001) > xx_aqhstartdate1 = 19790101,
(PID.TID 0000.0001) > xx_aqhstartdate2 = 000000,
(PID.TID 0000.0001) > xx_aqhperiod     = 864000.0,
(PID.TID 0000.0001) > xx_aqh_file      = 'xx_aqh',
(PID.TID 0000.0001) >#
(PID.TID 0000.0001) > xx_precipstartdate1 = 19790101,
(PID.TID 0000.0001) > xx_precipstartdate2 = 000000,
(PID.TID 0000.0001) > xx_precipperiod     = 864000.0,
(PID.TID 0000.0001) > xx_precip_file      = 'xx_precip',
(PID.TID 0000.0001) >#
(PID.TID 0000.0001) > xx_swdownstartdate1 = 19790101,
(PID.TID 0000.0001) > xx_swdownstartdate2 = 000000,
(PID.TID 0000.0001) > xx_swdownperiod     = 864000.0,
(PID.TID 0000.0001) > xx_swdown_file      = 'xx_swdown',
(PID.TID 0000.0001) >#
(PID.TID 0000.0001) > xx_uwindstartdate1 = 19790101,
(PID.TID 0000.0001) > xx_uwindstartdate2 = 000000,
(PID.TID 0000.0001) > xx_uwindperiod     = 864000.0,
(PID.TID 0000.0001) > xx_uwind_file      = 'xx_uwind',
(PID.TID 0000.0001) >#
(PID.TID 0000.0001) > xx_vwindstartdate1 = 19790101,
(PID.TID 0000.0001) > xx_vwindstartdate2 = 000000,
(PID.TID 0000.0001) > xx_vwindperiod     = 864000.0,
(PID.TID 0000.0001) > xx_vwind_file      = 'xx_vwind',
(PID.TID 0000.0001) >#
(PID.TID 0000.0001) > xx_sststartdate1 = 19790101,
(PID.TID 0000.0001) > xx_sststartdate2 = 000000,
(PID.TID 0000.0001) > xx_sstperiod     = 864000.0,
(PID.TID 0000.0001) > xx_sst_file      = 'xx_sst',
(PID.TID 0000.0001) >#
(PID.TID 0000.0001) > xx_sssstartdate1 = 19790101,
(PID.TID 0000.0001) > xx_sssstartdate2 = 000000,
(PID.TID 0000.0001) > xx_sssperiod     = 864000.0,
(PID.TID 0000.0001) > xx_sss_file      = 'xx_sss',
(PID.TID 0000.0001) > /
(PID.TID 0000.0001) >#
(PID.TID 0000.0001) ># *********************
(PID.TID 0000.0001) ># names for ctrl_pack/unpack
(PID.TID 0000.0001) ># *********************
(PID.TID 0000.0001) > &CTRL_PACKNAMES
(PID.TID 0000.0001) > /
(PID.TID 0000.0001) 
(PID.TID 0000.0001) CTRL_READPARMS: finished reading data.ctrl
(PID.TID 0000.0001) COST_READPARMS: opening data.cost
(PID.TID 0000.0001)  OPEN_COPY_DATA_FILE: opening file data.cost
(PID.TID 0000.0001) // =======================================================
(PID.TID 0000.0001) // Parameter file "data.cost"
(PID.TID 0000.0001) // =======================================================
(PID.TID 0000.0001) >#
(PID.TID 0000.0001) >#
(PID.TID 0000.0001) ># ******************
(PID.TID 0000.0001) ># cost function
(PID.TID 0000.0001) ># ******************
(PID.TID 0000.0001) > &COST_NML
(PID.TID 0000.0001) >#revert to default 1 month
(PID.TID 0000.0001) ># lastinterval=7776000.,
(PID.TID 0000.0001) > mult_test=1.,
(PID.TID 0000.0001) > /
(PID.TID 0000.0001) 
(PID.TID 0000.0001) COST_READPARMS: finished reading data.cost
(PID.TID 0000.0001) GRDCHK_READPARMS: opening data.grdchk
(PID.TID 0000.0001)  OPEN_COPY_DATA_FILE: opening file data.grdchk
(PID.TID 0000.0001) // =======================================================
(PID.TID 0000.0001) // Parameter file "data.grdchk"
(PID.TID 0000.0001) // =======================================================
(PID.TID 0000.0001) ># *******************
(PID.TID 0000.0001) ># ECCO gradient check
(PID.TID 0000.0001) ># *******************
(PID.TID 0000.0001) > &GRDCHK_NML
(PID.TID 0000.0001) > grdchk_eps       = 1.d-2,
(PID.TID 0000.0001) >#  iglopos         = 6,
(PID.TID 0000.0001) >#  jglopos         = 17,
(PID.TID 0000.0001) >#  kglopos         = 1,
(PID.TID 0000.0001) > nbeg             = 1,
(PID.TID 0000.0001) > nstep            = 1,
(PID.TID 0000.0001) > nend             = 4,
(PID.TID 0000.0001) > grdchkvarindex   = 1,
(PID.TID 0000.0001) > /
(PID.TID 0000.0001) 
(PID.TID 0000.0001) GRDCHK_READPARMS: finished reading data.grdchk
(PID.TID 0000.0001) 
(PID.TID 0000.0001) // =======================================================
(PID.TID 0000.0001) // Gradient check configuration  >>> START <<<
(PID.TID 0000.0001) // =======================================================
(PID.TID 0000.0001) 
(PID.TID 0000.0001)   grdchkvarindex :                          1
(PID.TID 0000.0001)   eps:                              0.100E-01
(PID.TID 0000.0001)   First location:                           1
(PID.TID 0000.0001)   Last location:                            4
(PID.TID 0000.0001)   Increment:                                1
(PID.TID 0000.0001)   grdchkWhichProc:                          0
(PID.TID 0000.0001)   iLocTile =       1  ,    jLocTile =       1
(PID.TID 0000.0001) 
(PID.TID 0000.0001) // =======================================================
(PID.TID 0000.0001) // Gradient check configuration  >>> END <<<
(PID.TID 0000.0001) // =======================================================
(PID.TID 0000.0001) 
(PID.TID 0000.0001)  DIAGNOSTICS_READPARMS: opening data.diagnostics
(PID.TID 0000.0001)  OPEN_COPY_DATA_FILE: opening file data.diagnostics
(PID.TID 0000.0001) // =======================================================
(PID.TID 0000.0001) // Parameter file "data.diagnostics"
(PID.TID 0000.0001) // =======================================================
(PID.TID 0000.0001) ># Diagnostic Package Choices
(PID.TID 0000.0001) >#--------------------
(PID.TID 0000.0001) >#  dumpAtLast (logical): always write output at the end of simulation (default=F)
(PID.TID 0000.0001) >#  diag_mnc   (logical): write to NetCDF files (default=useMNC)
(PID.TID 0000.0001) >#--for each output-stream:
(PID.TID 0000.0001) >#  fileName(n) : prefix of the output file name (max 80c long) for outp.stream n
(PID.TID 0000.0001) >#  frequency(n):< 0 : write snap-shot output every |frequency| seconds
(PID.TID 0000.0001) >#               > 0 : write time-average output every frequency seconds
(PID.TID 0000.0001) >#  timePhase(n)     : write at time = timePhase + multiple of |frequency|
(PID.TID 0000.0001) >#    averagingFreq  : frequency (in s) for periodic averaging interval
(PID.TID 0000.0001) >#    averagingPhase : phase     (in s) for periodic averaging interval
(PID.TID 0000.0001) >#    repeatCycle    : number of averaging intervals in 1 cycle
(PID.TID 0000.0001) >#  levels(:,n) : list of levels to write to file (Notes: declared as REAL)
(PID.TID 0000.0001) >#                when this entry is missing, select all common levels of this list
(PID.TID 0000.0001) >#  fields(:,n) : list of selected diagnostics fields (8.c) in outp.stream n
(PID.TID 0000.0001) >#                (see "available_diagnostics.log" file for the full list of diags)
(PID.TID 0000.0001) >#  missing_value(n) : missing value for real-type fields in output file "n"
(PID.TID 0000.0001) >#  fileFlags(n)     : specific code (8c string) for output file "n"
(PID.TID 0000.0001) >#--------------------
(PID.TID 0000.0001) > &DIAGNOSTICS_LIST
(PID.TID 0000.0001) ># diag_mnc     = .FALSE.,
(PID.TID 0000.0001) >#--
(PID.TID 0000.0001) >  fields(1:12,1) = 'ETAN    ','ETANSQ  ','DETADT2 ','PHIBOT  ','PHIBOTSQ',
(PID.TID 0000.0001) >                   'oceTAUX ','oceTAUY ','TFLUX   ','SFLUX   ','oceFreez',
(PID.TID 0000.0001) >                   'TRELAX  ','SRELAX  ',
(PID.TID 0000.0001) >   levels(1,1) = 1.,
(PID.TID 0000.0001) >   fileName(1) = 'surfDiag',
(PID.TID 0000.0001) >  frequency(1) =  432000.,
(PID.TID 0000.0001) >
(PID.TID 0000.0001) >  fields(1:9,2)  = 'UVEL    ','VVEL    ','WVEL    ','PHIHYD  ',
(PID.TID 0000.0001) >                   'VVELMASS','UVELMASS','WVELSQ  ',
(PID.TID 0000.0001) >                   'THETA   ','SALT    ',
(PID.TID 0000.0001) ># do not specify levels => all levels are selected
(PID.TID 0000.0001) >   fileName(2) = 'dynDiag',
(PID.TID 0000.0001) >  frequency(2) = 432000.,
(PID.TID 0000.0001) >
(PID.TID 0000.0001) ># fields(1:6,3) =  'DRHODR  ','RHOAnoma','CONVADJ ',
(PID.TID 0000.0001) >#                  'GM_Kwx  ','GM_Kwy  ','GM_Kwz  ',
(PID.TID 0000.0001) >#  levels(1,3) = 2., 3., 4., 5., 6., 7., 8., 9., 10., 11., 12., 13.,
(PID.TID 0000.0001) >#  fileName(3) = 'oceDiag',
(PID.TID 0000.0001) ># frequency(3) = 864000.,
(PID.TID 0000.0001) >
(PID.TID 0000.0001) >  fields(1:5,3)  = 'ADJuvel ','ADJvvel ','ADJwvel ',
(PID.TID 0000.0001) >                   'ADJtheta','ADJsalt ',
(PID.TID 0000.0001) >   fileName(3) = 'adjDiag',
(PID.TID 0000.0001) ># frequency(3) = 311040000.,
(PID.TID 0000.0001) >  frequency(3) = 432000.,
(PID.TID 0000.0001) > /
(PID.TID 0000.0001) >
(PID.TID 0000.0001) >#--------------------
(PID.TID 0000.0001) ># Parameter for Diagnostics of per level statistics:
(PID.TID 0000.0001) >#--------------------
(PID.TID 0000.0001) >#  diagSt_mnc (logical): write stat-diags to NetCDF files (default=diag_mnc)
(PID.TID 0000.0001) >#  diagSt_regMaskFile : file containing the region-mask to read-in
(PID.TID 0000.0001) >#  nSetRegMskFile   : number of region-mask sets within the region-mask file
(PID.TID 0000.0001) >#  set_regMask(i)   : region-mask set-index that identifies the region "i"
(PID.TID 0000.0001) >#  val_regMask(i)   : region "i" identifier value in the region mask
(PID.TID 0000.0001) >#--for each output-stream:
(PID.TID 0000.0001) >#  stat_fName(n) : prefix of the output file name (max 80c long) for outp.stream n
(PID.TID 0000.0001) >#  stat_freq(n):< 0 : write snap-shot output every |stat_freq| seconds
(PID.TID 0000.0001) >#               > 0 : write time-average output every stat_freq seconds
(PID.TID 0000.0001) >#  stat_phase(n)    : write at time = stat_phase + multiple of |stat_freq|
(PID.TID 0000.0001) >#  stat_region(:,n) : list of "regions" (default: 1 region only=global)
(PID.TID 0000.0001) >#  stat_fields(:,n) : list of selected diagnostics fields (8.c) in outp.stream n
(PID.TID 0000.0001) >#                (see "available_diagnostics.log" file for the full list of diags)
(PID.TID 0000.0001) >#--------------------
(PID.TID 0000.0001) > &DIAG_STATIS_PARMS
(PID.TID 0000.0001) ># an example just to check the agreement with MONITOR output:
(PID.TID 0000.0001) > stat_fields(1:5,1)  = 'ETAN    ','UVEL    ','VVEL    ','WVEL    ', 'THETA   ',
(PID.TID 0000.0001) >  stat_fName(1) = 'dynStDiag',
(PID.TID 0000.0001) >   stat_freq(1) = -172800.,
(PID.TID 0000.0001) >  stat_phase(1) = 0.,
(PID.TID 0000.0001) > /
(PID.TID 0000.0001) >
(PID.TID 0000.0001) 
(PID.TID 0000.0001) S/R DIAGNOSTICS_READPARMS, read namelist "diagnostics_list": start
(PID.TID 0000.0001) S/R DIAGNOSTICS_READPARMS, read namelist "diagnostics_list": OK
(PID.TID 0000.0001) S/R DIAGNOSTICS_READPARMS, read namelist "DIAG_STATIS_PARMS": start
(PID.TID 0000.0001) S/R DIAGNOSTICS_READPARMS, read namelist "DIAG_STATIS_PARMS": OK
(PID.TID 0000.0001)  DIAGNOSTICS_READPARMS: global parameter summary:
(PID.TID 0000.0001)  dumpAtLast = /* always write time-ave diags at the end */
(PID.TID 0000.0001)                   F
(PID.TID 0000.0001)     ;
(PID.TID 0000.0001)  diag_mnc =   /* write NetCDF output files */
(PID.TID 0000.0001)                   F
(PID.TID 0000.0001)     ;
(PID.TID 0000.0001)  useMissingValue = /* put MissingValue where mask = 0 */
(PID.TID 0000.0001)                   F
(PID.TID 0000.0001)     ;
(PID.TID 0000.0001)  diagCG_maxIters = /* max number of iters in diag_cg2d */
(PID.TID 0000.0001)                     200
(PID.TID 0000.0001)     ;
(PID.TID 0000.0001)  diagCG_resTarget = /* residual target for diag_cg2d */
(PID.TID 0000.0001)                 1.000000000000000E-07
(PID.TID 0000.0001)     ;
(PID.TID 0000.0001)  diagCG_pcOffDFac = /* preconditioner off-diagonal factor */
(PID.TID 0000.0001)                 9.611687812379854E-01
(PID.TID 0000.0001)     ;
(PID.TID 0000.0001) -----------------------------------------------------
(PID.TID 0000.0001)  DIAGNOSTICS_READPARMS: active diagnostics summary:
(PID.TID 0000.0001) -----------------------------------------------------
(PID.TID 0000.0001) Creating Output Stream: surfDiag
(PID.TID 0000.0001) Output Frequency:     432000.000000 ; Phase:           0.000000
(PID.TID 0000.0001)  Averaging Freq.:     432000.000000 , Phase:           0.000000 , Cycle:   1
(PID.TID 0000.0001)  missing value: -9.990000000000E+02
(PID.TID 0000.0001)  Levels:       1.
(PID.TID 0000.0001)  Fields:    ETAN     ETANSQ   DETADT2  PHIBOT   PHIBOTSQ oceTAUX  oceTAUY  TFLUX    SFLUX    oceFreez
(PID.TID 0000.0001)  Fields:    TRELAX   SRELAX
(PID.TID 0000.0001) Creating Output Stream: dynDiag
(PID.TID 0000.0001) Output Frequency:     432000.000000 ; Phase:           0.000000
(PID.TID 0000.0001)  Averaging Freq.:     432000.000000 , Phase:           0.000000 , Cycle:   1
(PID.TID 0000.0001)  missing value: -9.990000000000E+02
(PID.TID 0000.0001)  Levels:    will be set later
(PID.TID 0000.0001)  Fields:    UVEL     VVEL     WVEL     PHIHYD   VVELMASS UVELMASS WVELSQ   THETA    SALT
(PID.TID 0000.0001) Creating Output Stream: adjDiag
(PID.TID 0000.0001) Output Frequency:     432000.000000 ; Phase:           0.000000
(PID.TID 0000.0001)  Averaging Freq.:     432000.000000 , Phase:           0.000000 , Cycle:   1
(PID.TID 0000.0001)  missing value: -9.990000000000E+02
(PID.TID 0000.0001)  Levels:    will be set later
(PID.TID 0000.0001)  Fields:    ADJuvel  ADJvvel  ADJwvel  ADJtheta ADJsalt
(PID.TID 0000.0001) -----------------------------------------------------
(PID.TID 0000.0001)  DIAGNOSTICS_READPARMS: statistics diags. summary:
(PID.TID 0000.0001) Creating Stats. Output Stream: dynStDiag
(PID.TID 0000.0001) Output Frequency:    -172800.000000 ; Phase:           0.000000
(PID.TID 0000.0001)  Regions:   0
(PID.TID 0000.0001)  Fields:    ETAN     UVEL     VVEL     WVEL     THETA
(PID.TID 0000.0001) -----------------------------------------------------
(PID.TID 0000.0001) 
(PID.TID 0000.0001) SET_PARMS: done
(PID.TID 0000.0001) Enter INI_VERTICAL_GRID: setInterFDr=    T ; setCenterDr=    F
(PID.TID 0000.0001) tile:   1 ; Read from file grid_cs32.face001.bin
(PID.TID 0000.0001)   => xC yC dxF dyF rA xG yG dxV dyU rAz dxC dyC rAw rAs dxG dyG AngleCS AngleSN
(PID.TID 0000.0001) tile:   2 ; Read from file grid_cs32.face001.bin
(PID.TID 0000.0001)   => xC yC dxF dyF rA xG yG dxV dyU rAz dxC dyC rAw rAs dxG dyG AngleCS AngleSN
(PID.TID 0000.0001) tile:   3 ; Read from file grid_cs32.face002.bin
(PID.TID 0000.0001)   => xC yC dxF dyF rA xG yG dxV dyU rAz dxC dyC rAw rAs dxG dyG AngleCS AngleSN
(PID.TID 0000.0001) tile:   4 ; Read from file grid_cs32.face002.bin
(PID.TID 0000.0001)   => xC yC dxF dyF rA xG yG dxV dyU rAz dxC dyC rAw rAs dxG dyG AngleCS AngleSN
(PID.TID 0000.0001) tile:   5 ; Read from file grid_cs32.face003.bin
(PID.TID 0000.0001)   => xC yC dxF dyF rA xG yG dxV dyU rAz dxC dyC rAw rAs dxG dyG AngleCS AngleSN
(PID.TID 0000.0001) tile:   6 ; Read from file grid_cs32.face003.bin
(PID.TID 0000.0001)   => xC yC dxF dyF rA xG yG dxV dyU rAz dxC dyC rAw rAs dxG dyG AngleCS AngleSN
(PID.TID 0000.0001) tile:   7 ; Read from file grid_cs32.face004.bin
(PID.TID 0000.0001)   => xC yC dxF dyF rA xG yG dxV dyU rAz dxC dyC rAw rAs dxG dyG AngleCS AngleSN
(PID.TID 0000.0001) tile:   8 ; Read from file grid_cs32.face004.bin
(PID.TID 0000.0001)   => xC yC dxF dyF rA xG yG dxV dyU rAz dxC dyC rAw rAs dxG dyG AngleCS AngleSN
(PID.TID 0000.0001) tile:   9 ; Read from file grid_cs32.face005.bin
(PID.TID 0000.0001)   => xC yC dxF dyF rA xG yG dxV dyU rAz dxC dyC rAw rAs dxG dyG AngleCS AngleSN
(PID.TID 0000.0001) tile:  10 ; Read from file grid_cs32.face005.bin
(PID.TID 0000.0001)   => xC yC dxF dyF rA xG yG dxV dyU rAz dxC dyC rAw rAs dxG dyG AngleCS AngleSN
(PID.TID 0000.0001) tile:  11 ; Read from file grid_cs32.face006.bin
(PID.TID 0000.0001)   => xC yC dxF dyF rA xG yG dxV dyU rAz dxC dyC rAw rAs dxG dyG AngleCS AngleSN
(PID.TID 0000.0001) tile:  12 ; Read from file grid_cs32.face006.bin
(PID.TID 0000.0001)   => xC yC dxF dyF rA xG yG dxV dyU rAz dxC dyC rAw rAs dxG dyG AngleCS AngleSN
(PID.TID 0000.0001) %MON XC_max                       =   1.7854351589505E+02
(PID.TID 0000.0001) %MON XC_min                       =  -1.7854351589505E+02
(PID.TID 0000.0001) %MON XC_mean                      =  -1.4199289892029E-14
(PID.TID 0000.0001) %MON XC_sd                        =   1.0355545336287E+02
(PID.TID 0000.0001) %MON XG_max                       =   1.8000000000000E+02
(PID.TID 0000.0001) %MON XG_min                       =  -1.7708797161002E+02
(PID.TID 0000.0001) %MON XG_mean                      =   1.8603515625000E+00
(PID.TID 0000.0001) %MON XG_sd                        =   1.0357130300504E+02
(PID.TID 0000.0001) %MON DXC_max                      =   3.2375185836900E+05
(PID.TID 0000.0001) %MON DXC_min                      =   1.1142031410131E+05
(PID.TID 0000.0001) %MON DXC_mean                     =   2.8605689051214E+05
(PID.TID 0000.0001) %MON DXC_sd                       =   3.4042087138252E+04
(PID.TID 0000.0001) %MON DXF_max                      =   3.2369947500827E+05
(PID.TID 0000.0001) %MON DXF_min                      =   1.2020820513318E+05
(PID.TID 0000.0001) %MON DXF_mean                     =   2.8605437324820E+05
(PID.TID 0000.0001) %MON DXF_sd                       =   3.4050524252539E+04
(PID.TID 0000.0001) %MON DXG_max                      =   3.2375195872773E+05
(PID.TID 0000.0001) %MON DXG_min                      =   1.0098378008791E+05
(PID.TID 0000.0001) %MON DXG_mean                     =   2.8603818508931E+05
(PID.TID 0000.0001) %MON DXG_sd                       =   3.4140406908005E+04
(PID.TID 0000.0001) %MON DXV_max                      =   3.2380418162750E+05
(PID.TID 0000.0001) %MON DXV_min                      =   8.0152299824136E+04
(PID.TID 0000.0001) %MON DXV_mean                     =   2.8603970633619E+05
(PID.TID 0000.0001) %MON DXV_sd                       =   3.4145142117723E+04
(PID.TID 0000.0001) %MON YC_max                       =   8.7940663871962E+01
(PID.TID 0000.0001) %MON YC_min                       =  -8.7940663871962E+01
(PID.TID 0000.0001) %MON YC_mean                      =  -2.3684757858670E-15
(PID.TID 0000.0001) %MON YC_sd                        =   3.8676242969072E+01
(PID.TID 0000.0001) %MON YG_max                       =   9.0000000000000E+01
(PID.TID 0000.0001) %MON YG_min                       =  -9.0000000000000E+01
(PID.TID 0000.0001) %MON YG_mean                      =  -4.1448326252673E-15
(PID.TID 0000.0001) %MON YG_sd                        =   3.8676895860710E+01
(PID.TID 0000.0001) %MON DYC_max                      =   3.2375185836900E+05
(PID.TID 0000.0001) %MON DYC_min                      =   1.1142031410131E+05
(PID.TID 0000.0001) %MON DYC_mean                     =   2.8605689051214E+05
(PID.TID 0000.0001) %MON DYC_sd                       =   3.4042087138252E+04
(PID.TID 0000.0001) %MON DYF_max                      =   3.2369947500827E+05
(PID.TID 0000.0001) %MON DYF_min                      =   1.2020820513318E+05
(PID.TID 0000.0001) %MON DYF_mean                     =   2.8605437324820E+05
(PID.TID 0000.0001) %MON DYF_sd                       =   3.4050524252539E+04
(PID.TID 0000.0001) %MON DYG_max                      =   3.2375195872773E+05
(PID.TID 0000.0001) %MON DYG_min                      =   1.0098378008791E+05
(PID.TID 0000.0001) %MON DYG_mean                     =   2.8603818508931E+05
(PID.TID 0000.0001) %MON DYG_sd                       =   3.4140406908005E+04
(PID.TID 0000.0001) %MON DYU_max                      =   3.2380418162750E+05
(PID.TID 0000.0001) %MON DYU_min                      =   8.0152299824136E+04
(PID.TID 0000.0001) %MON DYU_mean                     =   2.8603970633619E+05
(PID.TID 0000.0001) %MON DYU_sd                       =   3.4145142117723E+04
(PID.TID 0000.0001) %MON RA_max                       =   1.0479260248419E+11
(PID.TID 0000.0001) %MON RA_min                       =   1.4019007022556E+10
(PID.TID 0000.0001) %MON RA_mean                      =   8.2992246709265E+10
(PID.TID 0000.0001) %MON RA_sd                        =   1.7509089299457E+10
(PID.TID 0000.0001) %MON RAW_max                      =   1.0480965274559E+11
(PID.TID 0000.0001) %MON RAW_min                      =   1.2166903467143E+10
(PID.TID 0000.0001) %MON RAW_mean                     =   8.2992246709235E+10
(PID.TID 0000.0001) %MON RAW_sd                       =   1.7481917919656E+10
(PID.TID 0000.0001) %MON RAS_max                      =   1.0480965274559E+11
(PID.TID 0000.0001) %MON RAS_min                      =   1.2166903467143E+10
(PID.TID 0000.0001) %MON RAS_mean                     =   8.2992246709235E+10
(PID.TID 0000.0001) %MON RAS_sd                       =   1.7481917919656E+10
(PID.TID 0000.0001) %MON RAZ_max                      =   1.0484349334619E+11
(PID.TID 0000.0001) %MON RAZ_min                      =   8.8317900612505E+09
(PID.TID 0000.0001) %MON RAZ_mean                     =   8.2992246709235E+10
(PID.TID 0000.0001) %MON RAZ_sd                       =   1.7482297311044E+10
(PID.TID 0000.0001) %MON AngleCS_max                  =   9.9999994756719E-01
(PID.TID 0000.0001) %MON AngleCS_min                  =  -9.9968286884824E-01
(PID.TID 0000.0001) %MON AngleCS_mean                 =   3.3078922539000E-01
(PID.TID 0000.0001) %MON AngleCS_sd                   =   6.2496278958502E-01
(PID.TID 0000.0001) %MON AngleSN_max                  =   9.9968286884824E-01
(PID.TID 0000.0001) %MON AngleSN_min                  =  -9.9999994756719E-01
(PID.TID 0000.0001) %MON AngleSN_mean                 =  -3.3078922539000E-01
(PID.TID 0000.0001) %MON AngleSN_sd                   =   6.2496278958502E-01
(PID.TID 0000.0001) GAD_INIT_FIXED: GAD_OlMinSize=  2  0  2
(PID.TID 0000.0001) 
(PID.TID 0000.0001) // ===================================
(PID.TID 0000.0001) // GAD parameters :
(PID.TID 0000.0001) // ===================================
(PID.TID 0000.0001) tempAdvScheme =   /* Temp. Horiz.Advection scheme selector */
(PID.TID 0000.0001)                      30
(PID.TID 0000.0001)     ;
(PID.TID 0000.0001) tempVertAdvScheme =   /* Temp. Vert. Advection scheme selector */
(PID.TID 0000.0001)                      30
(PID.TID 0000.0001)     ;
(PID.TID 0000.0001) tempMultiDimAdvec =   /* use Muti-Dim Advec method for Temp */
(PID.TID 0000.0001)                   T
(PID.TID 0000.0001)     ;
(PID.TID 0000.0001) tempSOM_Advection = /* use 2nd Order Moment Advection for Temp */
(PID.TID 0000.0001)                   F
(PID.TID 0000.0001)     ;
(PID.TID 0000.0001) AdamsBashforthGt = /* apply Adams-Bashforth extrapolation on Gt */
(PID.TID 0000.0001)                   F
(PID.TID 0000.0001)     ;
(PID.TID 0000.0001) AdamsBashforth_T = /* apply Adams-Bashforth extrapolation on Temp */
(PID.TID 0000.0001)                   F
(PID.TID 0000.0001)     ;
(PID.TID 0000.0001) saltAdvScheme =   /* Salt. Horiz.advection scheme selector */
(PID.TID 0000.0001)                      30
(PID.TID 0000.0001)     ;
(PID.TID 0000.0001) saltVertAdvScheme =   /* Salt. Vert. Advection scheme selector */
(PID.TID 0000.0001)                      30
(PID.TID 0000.0001)     ;
(PID.TID 0000.0001) saltMultiDimAdvec =   /* use Muti-Dim Advec method for Salt */
(PID.TID 0000.0001)                   T
(PID.TID 0000.0001)     ;
(PID.TID 0000.0001) saltSOM_Advection = /* use 2nd Order Moment Advection for Salt */
(PID.TID 0000.0001)                   F
(PID.TID 0000.0001)     ;
(PID.TID 0000.0001) AdamsBashforthGs = /* apply Adams-Bashforth extrapolation on Gs */
(PID.TID 0000.0001)                   F
(PID.TID 0000.0001)     ;
(PID.TID 0000.0001) AdamsBashforth_S = /* apply Adams-Bashforth extrapolation on Salt */
(PID.TID 0000.0001)                   F
(PID.TID 0000.0001)     ;
(PID.TID 0000.0001) // ===================================
(PID.TID 0000.0001) ctrl-wet 1:    nvarlength =       239366
(PID.TID 0000.0001) ctrl-wet 2: surface wet C =          389
(PID.TID 0000.0001) ctrl-wet 3: surface wet W =          367
(PID.TID 0000.0001) ctrl-wet 4: surface wet S =          384
(PID.TID 0000.0001) ctrl-wet 4a:surface wet V =            0
(PID.TID 0000.0001) ctrl-wet 5: 3D wet points =         5204
(PID.TID 0000.0001) ctrl-wet 6: no recs for i =     1           1
(PID.TID 0000.0001) ctrl-wet 6: no recs for i =     2           1
(PID.TID 0000.0001) ctrl-wet 6: no recs for i =     3           1
(PID.TID 0000.0001) ctrl-wet 6: no recs for i =     4           1
(PID.TID 0000.0001) ctrl-wet 6: no recs for i =     5           1
(PID.TID 0000.0001) ctrl-wet 6: no recs for i =     6           1
(PID.TID 0000.0001) ctrl-wet 6: no recs for i =     7           0
(PID.TID 0000.0001) ctrl-wet 6: no recs for i =     8           0
(PID.TID 0000.0001) ctrl-wet 6: no recs for i =     9           0
(PID.TID 0000.0001) ctrl-wet 6: no recs for i =    10           0
(PID.TID 0000.0001) ctrl-wet 6: no recs for i =    11           0
(PID.TID 0000.0001) ctrl-wet 6: no recs for i =    12           0
(PID.TID 0000.0001) ctrl-wet 6: no recs for i =    13           0
(PID.TID 0000.0001) ctrl-wet 6: no recs for i =    14           0
(PID.TID 0000.0001) ctrl-wet 6: no recs for i =    15           1
(PID.TID 0000.0001) ctrl-wet 6: no recs for i =    16           0
(PID.TID 0000.0001) ctrl-wet 6: no recs for i =    17           1
(PID.TID 0000.0001) ctrl-wet 6: no recs for i =    18           0
(PID.TID 0000.0001) ctrl-wet 6: no recs for i =    19           0
(PID.TID 0000.0001) ctrl-wet 6: no recs for i =    20           0
(PID.TID 0000.0001) ctrl-wet 6: no recs for i =    21           0
(PID.TID 0000.0001) ctrl-wet 6: no recs for i =    22           0
(PID.TID 0000.0001) ctrl-wet 6: no recs for i =    23           0
(PID.TID 0000.0001) ctrl-wet 6: no recs for i =    24           0
(PID.TID 0000.0001) ctrl-wet 6: no recs for i =    25           0
(PID.TID 0000.0001) ctrl-wet 6: no recs for i =    26           0
(PID.TID 0000.0001) ctrl-wet 6: no recs for i =    27           0
(PID.TID 0000.0001) ctrl-wet 6: no recs for i =    28           0
(PID.TID 0000.0001) ctrl-wet 6: no recs for i =    29           0
(PID.TID 0000.0001) ctrl-wet 6: no recs for i =    30           0
(PID.TID 0000.0001) ctrl-wet 6: no recs for i =    31           0
(PID.TID 0000.0001) ctrl-wet 6: no recs for i =    32           0
(PID.TID 0000.0001) ctrl-wet 6: no recs for i =    33           0
(PID.TID 0000.0001) ctrl-wet 6: no recs for i =    34           0
(PID.TID 0000.0001) ctrl-wet 6: no recs for i =    35           0
(PID.TID 0000.0001) ctrl-wet 6: no recs for i =    36           0
(PID.TID 0000.0001) ctrl-wet 6: no recs for i =    37           0
(PID.TID 0000.0001) ctrl-wet 6: no recs for i =    38           0
(PID.TID 0000.0001) ctrl-wet 6: no recs for i =    39           0
(PID.TID 0000.0001) ctrl-wet 6: no recs for i =    40           0
(PID.TID 0000.0001) ctrl-wet 6: no recs for i =    41           0
(PID.TID 0000.0001) ctrl-wet 6: no recs for i =    42           0
(PID.TID 0000.0001) ctrl-wet 6: no recs for i =    43           0
(PID.TID 0000.0001) ctrl-wet 6: no recs for i =    44           0
(PID.TID 0000.0001) ctrl-wet 6: no recs for i =    45           0
(PID.TID 0000.0001) ctrl-wet 6: no recs for i =    46           0
(PID.TID 0000.0001) ctrl-wet 6: no recs for i =    47           0
(PID.TID 0000.0001) ctrl-wet 6: no recs for i =    48           0
(PID.TID 0000.0001) ctrl-wet 6: no recs for i =    49           0
(PID.TID 0000.0001) ctrl-wet 6: no recs for i =    50           0
(PID.TID 0000.0001) ctrl-wet 6: no recs for i =    51           0
(PID.TID 0000.0001) ctrl-wet 6: no recs for i =    52           0
(PID.TID 0000.0001) ctrl-wet 6: no recs for i =    53           0
(PID.TID 0000.0001) ctrl-wet 6: no recs for i =    54           0
(PID.TID 0000.0001) ctrl-wet 6: no recs for i =    55           0
(PID.TID 0000.0001) ctrl-wet 6: no recs for i =    56           0
(PID.TID 0000.0001) ctrl-wet 6: no recs for i =    57           0
(PID.TID 0000.0001) ctrl-wet 6: no recs for i =    58           0
(PID.TID 0000.0001) ctrl-wet 6: no recs for i =    59           0
(PID.TID 0000.0001) ctrl-wet 6: no recs for i =    60           0
(PID.TID 0000.0001) ctrl-wet 7: flux         11937
(PID.TID 0000.0001) ctrl-wet 8: atmos        10408
(PID.TID 0000.0001) ctrl-wet -------------------------------------------------
(PID.TID 0000.0001) ctrl-wet 13: global nvarlength for Nr =   15      239366
(PID.TID 0000.0001) ctrl-wet -------------------------------------------------
(PID.TID 0000.0001) ctrl-wet 14: global nWet C/S/W/V k=    1        4420        4232        4206           0
(PID.TID 0000.0001) ctrl-wet 14: global nWet C/S/W/V k=    2        4299        4112        4096           0
(PID.TID 0000.0001) ctrl-wet 14: global nWet C/S/W/V k=    3        4222        4038        4023           0
(PID.TID 0000.0001) ctrl-wet 14: global nWet C/S/W/V k=    4        4140        3960        3939           0
(PID.TID 0000.0001) ctrl-wet 14: global nWet C/S/W/V k=    5        4099        3919        3893           0
(PID.TID 0000.0001) ctrl-wet 14: global nWet C/S/W/V k=    6        4038        3856        3839           0
(PID.TID 0000.0001) ctrl-wet 14: global nWet C/S/W/V k=    7        3995        3814        3795           0
(PID.TID 0000.0001) ctrl-wet 14: global nWet C/S/W/V k=    8        3944        3756        3737           0
(PID.TID 0000.0001) ctrl-wet 14: global nWet C/S/W/V k=    9        3887        3699        3673           0
(PID.TID 0000.0001) ctrl-wet 14: global nWet C/S/W/V k=   10        3799        3605        3585           0
(PID.TID 0000.0001) ctrl-wet 14: global nWet C/S/W/V k=   11        3703        3502        3461           0
(PID.TID 0000.0001) ctrl-wet 14: global nWet C/S/W/V k=   12        3554        3338        3303           0
(PID.TID 0000.0001) ctrl-wet 14: global nWet C/S/W/V k=   13        3202        2910        2911           0
(PID.TID 0000.0001) ctrl-wet 14: global nWet C/S/W/V k=   14        2599        2296        2276           0
(PID.TID 0000.0001) ctrl-wet 14: global nWet C/S/W/V k=   15        1621        1368        1334           0
(PID.TID 0000.0001) ctrl-wet -------------------------------------------------
(PID.TID 0000.0001) ctrl-wet -------------------------------------------------
(PID.TID 0000.0001) ctrl-wet -------------------------------------------------
(PID.TID 0000.0001) ctrl_init: no. of control variables:            8
(PID.TID 0000.0001) ctrl_init: control vector length:          239366
(PID.TID 0000.0001) 
(PID.TID 0000.0001) // =======================================================
(PID.TID 0000.0001) // control vector configuration  >>> START <<<
(PID.TID 0000.0001) // =======================================================
(PID.TID 0000.0001) 
(PID.TID 0000.0001)  Total number of ocean points per tile:
(PID.TID 0000.0001)  --------------------------------------
(PID.TID 0000.0001)  snx*sny*nr =     7680
(PID.TID 0000.0001) 
(PID.TID 0000.0001)  Number of ocean points per tile:
(PID.TID 0000.0001)  --------------------------------
(PID.TID 0000.0001)  bi,bj,#(c/s/w): 0001 0001 005204 005084 004791
(PID.TID 0000.0001)  bi,bj,#(c/s/w): 0002 0001 003115 002837 002945
(PID.TID 0000.0001)  bi,bj,#(c/s/w): 0003 0001 005620 005386 005384
(PID.TID 0000.0001)  bi,bj,#(c/s/w): 0004 0001 002470 002283 001983
(PID.TID 0000.0001)  bi,bj,#(c/s/w): 0005 0001 001306 000952 000953
(PID.TID 0000.0001)  bi,bj,#(c/s/w): 0006 0001 003476 003122 003082
(PID.TID 0000.0001)  bi,bj,#(c/s/w): 0007 0001 005619 005222 005403
(PID.TID 0000.0001)  bi,bj,#(c/s/w): 0008 0001 007482 007397 007429
(PID.TID 0000.0001)  bi,bj,#(c/s/w): 0009 0001 005900 005825 005686
(PID.TID 0000.0001)  bi,bj,#(c/s/w): 0010 0001 003678 003307 003317
(PID.TID 0000.0001)  bi,bj,#(c/s/w): 0011 0001 006008 005782 005796
(PID.TID 0000.0001)  bi,bj,#(c/s/w): 0012 0001 005644 005208 005302
(PID.TID 0000.0001) 
(PID.TID 0000.0001)  Initial state temperature contribution:
(PID.TID 0000.0001)  Control variable index:    0101
(PID.TID 0000.0001) 
(PID.TID 0000.0001)  Initial state salinity contribution:
(PID.TID 0000.0001)  Control variable index:    0102
(PID.TID 0000.0001) 
(PID.TID 0000.0001) // =======================================================
(PID.TID 0000.0001) // control vector configuration  >>> END <<<
(PID.TID 0000.0001) // =======================================================
(PID.TID 0000.0001) 
(PID.TID 0000.0001) ------------------------------------------------------------
(PID.TID 0000.0001) DIAGNOSTICS_SET_LEVELS: done
(PID.TID 0000.0001)  Total Nb of available Diagnostics: ndiagt=   205
(PID.TID 0000.0001)  write list of available Diagnostics to file: available_diagnostics.log
(PID.TID 0000.0001) SETDIAG: Allocate  1 x  1 Levels for Diagnostic #    23 ETAN
(PID.TID 0000.0001) SETDIAG: Allocate  1 x  1 Levels for Diagnostic #    24 ETANSQ
(PID.TID 0000.0001) SETDIAG: Allocate  1 x  1 Levels for Diagnostic #    25 DETADT2
(PID.TID 0000.0001) SETDIAG: Allocate  1 x  1 Levels for Diagnostic #    73 PHIBOT
(PID.TID 0000.0001) SETDIAG: Allocate  1 x  1 Levels for Diagnostic #    74 PHIBOTSQ
(PID.TID 0000.0001) SETDIAG: Allocate  1 x  1 Levels for Diagnostic #    80 oceTAUX
(PID.TID 0000.0001) SETDIAG: Allocate  1 x  1 Levels for Diagnostic #    81 oceTAUY
(PID.TID 0000.0001) SETDIAG: Allocate  1 x  1 Levels for Diagnostic #    93 TFLUX
(PID.TID 0000.0001) SETDIAG: Allocate  1 x  1 Levels for Diagnostic #    94 SFLUX
(PID.TID 0000.0001) SETDIAG: Allocate  1 x  1 Levels for Diagnostic #    88 oceFreez
(PID.TID 0000.0001) SETDIAG: Allocate  1 x  1 Levels for Diagnostic #    89 TRELAX
(PID.TID 0000.0001) SETDIAG: Allocate  1 x  1 Levels for Diagnostic #    90 SRELAX
(PID.TID 0000.0001) SETDIAG: Allocate 15 x  1 Levels for Diagnostic #    30 UVEL
(PID.TID 0000.0001) SETDIAG: Allocate 15 x  1 Levels for Diagnostic #    31 VVEL
(PID.TID 0000.0001) SETDIAG: Allocate 15 x  1 Levels for Diagnostic #    32 WVEL
(PID.TID 0000.0001) SETDIAG: Allocate 15 x  1 Levels for Diagnostic #    71 PHIHYD
(PID.TID 0000.0001) SETDIAG: Allocate 15 x  1 Levels for Diagnostic #    46 VVELMASS
(PID.TID 0000.0001) SETDIAG: Allocate 15 x  1 Levels for Diagnostic #    45 UVELMASS
(PID.TID 0000.0001) SETDIAG: Allocate 15 x  1 Levels for Diagnostic #    38 WVELSQ
(PID.TID 0000.0001) SETDIAG: Allocate 15 x  1 Levels for Diagnostic #    26 THETA
(PID.TID 0000.0001) SETDIAG: Allocate 15 x  1 Levels for Diagnostic #    27 SALT
(PID.TID 0000.0001) SETDIAG: Allocate 15 x  1 Levels for Diagnostic #   114 ADJuvel
(PID.TID 0000.0001) SETDIAG: Allocate 15 x  1 Levels for Diagnostic #   115 ADJvvel
(PID.TID 0000.0001) SETDIAG: Allocate 15 x  1 Levels for Diagnostic #   116 ADJwvel
(PID.TID 0000.0001) SETDIAG: Allocate 15 x  1 Levels for Diagnostic #   117 ADJtheta
(PID.TID 0000.0001) SETDIAG: Allocate 15 x  1 Levels for Diagnostic #   118 ADJsalt
(PID.TID 0000.0001)   space allocated for all diagnostics:     222 levels
(PID.TID 0000.0001)   set mate pointer for diag #    80  oceTAUX  , Parms: UU      U1 , mate:    81
(PID.TID 0000.0001)   set mate pointer for diag #    81  oceTAUY  , Parms: VV      U1 , mate:    80
(PID.TID 0000.0001)   set mate pointer for diag #    30  UVEL     , Parms: UUR     MR , mate:    31
(PID.TID 0000.0001)   set mate pointer for diag #    31  VVEL     , Parms: VVR     MR , mate:    30
(PID.TID 0000.0001)   set mate pointer for diag #    46  VVELMASS , Parms: VVr     MR , mate:    45
(PID.TID 0000.0001)   set mate pointer for diag #    45  UVELMASS , Parms: UUr     MR , mate:    46
(PID.TID 0000.0001)   set mate pointer for diag #   114  ADJuvel  , Parms: UURA    MR , mate:   115
(PID.TID 0000.0001)   set mate pointer for diag #   115  ADJvvel  , Parms: VVRA    MR , mate:   114
(PID.TID 0000.0001) DIAGNOSTICS_SET_POINTERS: Set levels for Outp.Stream: dynDiag
(PID.TID 0000.0001)  Levels:       1.   2.   3.   4.   5.   6.   7.   8.   9.  10.  11.  12.  13.  14.  15.
(PID.TID 0000.0001) DIAGNOSTICS_SET_POINTERS: Set levels for Outp.Stream: adjDiag
(PID.TID 0000.0001)  Levels:       1.   2.   3.   4.   5.   6.   7.   8.   9.  10.  11.  12.  13.  14.  15.
(PID.TID 0000.0001) DIAGNOSTICS_SET_POINTERS: done
(PID.TID 0000.0001) ------------------------------------------------------------
(PID.TID 0000.0001) DIAGSTATS_SET_REGIONS: define   0 regions:
(PID.TID 0000.0001) ------------------------------------------------------------
(PID.TID 0000.0001) SETDIAG: Allocate  1 Levels for Stats-Diag #    23 ETAN
(PID.TID 0000.0001) SETDIAG: Allocate 15 Levels for Stats-Diag #    30 UVEL
(PID.TID 0000.0001) SETDIAG: Allocate 15 Levels for Stats-Diag #    31 VVEL
(PID.TID 0000.0001) SETDIAG: Allocate 15 Levels for Stats-Diag #    32 WVEL
(PID.TID 0000.0001) SETDIAG: Allocate 15 Levels for Stats-Diag #    26 THETA
(PID.TID 0000.0001)   space allocated for all stats-diags:      61 levels
(PID.TID 0000.0001) DIAGSTATS_SET_POINTERS: done
(PID.TID 0000.0001) ------------------------------------------------------------
(PID.TID 0000.0001) DIAGSTATS_INI_IO: open file: dynStDiag.0000072000.txt , unit=     9
(PID.TID 0000.0001) INI_GLOBAL_DOMAIN: Found  19 CS-corner Pts in the domain
(PID.TID 0000.0001) %MON fCori_max                    =   1.4574827780704E-04
(PID.TID 0000.0001) %MON fCori_min                    =  -1.4574827780704E-04
(PID.TID 0000.0001) %MON fCori_mean                   =   3.3881317890172E-21
(PID.TID 0000.0001) %MON fCori_sd                     =   8.4202189509968E-05
(PID.TID 0000.0001) %MON fCoriG_max                   =   1.4584247033981E-04
(PID.TID 0000.0001) %MON fCoriG_min                   =  -1.4584247033981E-04
(PID.TID 0000.0001) %MON fCoriG_mean                  =  -1.6940658945086E-20
(PID.TID 0000.0001) %MON fCoriG_sd                    =   8.4202189509968E-05
(PID.TID 0000.0001) %MON fCoriCos_max                 =   1.4580166994612E-04
(PID.TID 0000.0001) %MON fCoriCos_min                 =   5.2407700865903E-06
(PID.TID 0000.0001) %MON fCoriCos_mean                =   1.1514045869113E-04
(PID.TID 0000.0001) %MON fCoriCos_sd                  =   3.0375849106513E-05
(PID.TID 0000.0001) INI_CG2D: CG2D normalisation factor =  1.9156564154949553E-04
(PID.TID 0000.0001) INI_CG2D: cg2dTolerance = 5.809016360175296E-07 (Area=3.6388673751E+14)
(PID.TID 0000.0001) 
(PID.TID 0000.0001) // =======================================================
(PID.TID 0000.0001) // Model configuration
(PID.TID 0000.0001) // =======================================================
(PID.TID 0000.0001) //
(PID.TID 0000.0001) // "Physical" paramters ( PARM01 in namelist )
(PID.TID 0000.0001) //
(PID.TID 0000.0001) buoyancyRelation = /* Type of relation to get Buoyancy */
(PID.TID 0000.0001)               'OCEANIC'
(PID.TID 0000.0001)     ;
(PID.TID 0000.0001) fluidIsAir   =  /* fluid major constituent is Air */
(PID.TID 0000.0001)                   F
(PID.TID 0000.0001)     ;
(PID.TID 0000.0001) fluidIsWater =  /* fluid major constituent is Water */
(PID.TID 0000.0001)                   T
(PID.TID 0000.0001)     ;
(PID.TID 0000.0001) usingPCoords =  /* use p (or p*) vertical coordinate */
(PID.TID 0000.0001)                   F
(PID.TID 0000.0001)     ;
(PID.TID 0000.0001) usingZCoords =  /* use z (or z*) vertical coordinate */
(PID.TID 0000.0001)                   T
(PID.TID 0000.0001)     ;
(PID.TID 0000.0001) tRef =   /* Reference temperature profile ( oC or K ) */
(PID.TID 0000.0001)    15 @  2.000000000000000E+01              /* K =  1: 15 */
(PID.TID 0000.0001)     ;
(PID.TID 0000.0001) sRef =   /* Reference salinity profile ( psu ) */
(PID.TID 0000.0001)    15 @  3.500000000000000E+01              /* K =  1: 15 */
(PID.TID 0000.0001)     ;
(PID.TID 0000.0001) useStrainTensionVisc= /* Use StrainTension Form of Viscous Operator */
(PID.TID 0000.0001)                   F
(PID.TID 0000.0001)     ;
(PID.TID 0000.0001) useVariableVisc = /* Use variable horizontal viscosity */
(PID.TID 0000.0001)                   F
(PID.TID 0000.0001)     ;
(PID.TID 0000.0001) useHarmonicVisc = /* Use harmonic horizontal viscosity */
(PID.TID 0000.0001)                   T
(PID.TID 0000.0001)     ;
(PID.TID 0000.0001) useBiharmonicVisc= /* Use biharmonic horiz.  viscosity */
(PID.TID 0000.0001)                   F
(PID.TID 0000.0001)     ;
(PID.TID 0000.0001) useSmag3D = /* Use isotropic 3-D Smagorinsky viscosity */
(PID.TID 0000.0001)                   F
(PID.TID 0000.0001)     ;
(PID.TID 0000.0001) viscAh  =   /* Lateral harmonic viscosity ( m^2/s ) */
(PID.TID 0000.0001)                 3.000000000000000E+05
(PID.TID 0000.0001)     ;
(PID.TID 0000.0001) viscA4  =   /* Lateral biharmonic viscosity ( m^4/s ) */
(PID.TID 0000.0001)                 0.000000000000000E+00
(PID.TID 0000.0001)     ;
(PID.TID 0000.0001) no_slip_sides =  /* Viscous BCs: No-slip sides */
(PID.TID 0000.0001)                   T
(PID.TID 0000.0001)     ;
(PID.TID 0000.0001) sideDragFactor = /* side-drag scaling factor (non-dim) */
(PID.TID 0000.0001)                 2.000000000000000E+00
(PID.TID 0000.0001)     ;
(PID.TID 0000.0001) viscArNr = /* vertical profile of vertical viscosity ( m^2/s )*/
(PID.TID 0000.0001)    15 @  1.000000000000000E-03              /* K =  1: 15 */
(PID.TID 0000.0001)     ;
(PID.TID 0000.0001) no_slip_bottom =  /* Viscous BCs: No-slip bottom */
(PID.TID 0000.0001)                   T
(PID.TID 0000.0001)     ;
(PID.TID 0000.0001) bottomVisc_pCell = /* Partial-cell in bottom Visc. BC */
(PID.TID 0000.0001)                   F
(PID.TID 0000.0001)     ;
(PID.TID 0000.0001) bottomDragLinear = /* linear bottom-drag coefficient ( m/s ) */
(PID.TID 0000.0001)                 0.000000000000000E+00
(PID.TID 0000.0001)     ;
(PID.TID 0000.0001) bottomDragQuadratic = /* quadratic bottom-drag coefficient (-) */
(PID.TID 0000.0001)                 0.000000000000000E+00
(PID.TID 0000.0001)     ;
(PID.TID 0000.0001) selectBotDragQuadr = /* select quadratic bottom drag options */
(PID.TID 0000.0001)                      -1
(PID.TID 0000.0001)     ;
(PID.TID 0000.0001) diffKhT =   /* Laplacian diffusion of heat laterally ( m^2/s ) */
(PID.TID 0000.0001)                 0.000000000000000E+00
(PID.TID 0000.0001)     ;
(PID.TID 0000.0001) diffK4T =   /* Biharmonic diffusion of heat laterally ( m^4/s ) */
(PID.TID 0000.0001)                 0.000000000000000E+00
(PID.TID 0000.0001)     ;
(PID.TID 0000.0001) diffKhS =   /* Laplacian diffusion of salt laterally ( m^2/s ) */
(PID.TID 0000.0001)                 0.000000000000000E+00
(PID.TID 0000.0001)     ;
(PID.TID 0000.0001) diffK4S =   /* Biharmonic diffusion of salt laterally ( m^4/s ) */
(PID.TID 0000.0001)                 0.000000000000000E+00
(PID.TID 0000.0001)     ;
(PID.TID 0000.0001) diffKrNrT = /* vertical profile of vertical diffusion of Temp ( m^2/s )*/
(PID.TID 0000.0001)    15 @  0.000000000000000E+00              /* K =  1: 15 */
(PID.TID 0000.0001)     ;
(PID.TID 0000.0001) diffKrNrS = /* vertical profile of vertical diffusion of Salt ( m^2/s )*/
(PID.TID 0000.0001)    15 @  3.000000000000000E-05              /* K =  1: 15 */
(PID.TID 0000.0001)     ;
(PID.TID 0000.0001) diffKrBL79surf = /* Surface diffusion for Bryan and Lewis 79 ( m^2/s ) */
(PID.TID 0000.0001)                 0.000000000000000E+00
(PID.TID 0000.0001)     ;
(PID.TID 0000.0001) diffKrBL79deep = /* Deep diffusion for Bryan and Lewis 1979 ( m^2/s ) */
(PID.TID 0000.0001)                 0.000000000000000E+00
(PID.TID 0000.0001)     ;
(PID.TID 0000.0001) diffKrBL79scl = /* Depth scale for Bryan and Lewis 1979 ( m ) */
(PID.TID 0000.0001)                 2.000000000000000E+02
(PID.TID 0000.0001)     ;
(PID.TID 0000.0001) diffKrBL79Ho = /* Turning depth for Bryan and Lewis 1979 ( m ) */
(PID.TID 0000.0001)                -2.000000000000000E+03
(PID.TID 0000.0001)     ;
(PID.TID 0000.0001) ivdc_kappa = /* Implicit Vertical Diffusivity for Convection ( m^2/s) */
(PID.TID 0000.0001)                 1.000000000000000E+01
(PID.TID 0000.0001)     ;
(PID.TID 0000.0001) hMixCriteria=  /* Criteria for mixed-layer diagnostic */
(PID.TID 0000.0001)                -8.000000000000000E-01
(PID.TID 0000.0001)     ;
(PID.TID 0000.0001) dRhoSmall =  /* Parameter for mixed-layer diagnostic */
(PID.TID 0000.0001)                 1.000000000000000E-06
(PID.TID 0000.0001)     ;
(PID.TID 0000.0001) hMixSmooth=  /* Smoothing parameter for mixed-layer diagnostic */
(PID.TID 0000.0001)                 0.000000000000000E+00
(PID.TID 0000.0001)     ;
(PID.TID 0000.0001) eosType =  /* Type of Equation of State */
(PID.TID 0000.0001)               'JMD95Z'
(PID.TID 0000.0001)     ;
(PID.TID 0000.0001) eosRefP0 = /* Reference atmospheric pressure for EOS ( Pa ) */
(PID.TID 0000.0001)                 1.013250000000000E+05
(PID.TID 0000.0001)     ;
(PID.TID 0000.0001) selectP_inEOS_Zc = /* select pressure to use in EOS (0,1,2,3) */
(PID.TID 0000.0001)                       0
(PID.TID 0000.0001)     0= -g*rhoConst*z ; 1= pRef (from tRef,sRef); 2= Hyd P ; 3= Hyd+NH P
(PID.TID 0000.0001)     ;
(PID.TID 0000.0001) surf_pRef = /* Surface reference pressure ( Pa ) */
(PID.TID 0000.0001)                 1.013250000000000E+05
(PID.TID 0000.0001)     ;
(PID.TID 0000.0001) HeatCapacity_Cp =  /* Specific heat capacity ( J/kg/K ) */
(PID.TID 0000.0001)                 3.994000000000000E+03
(PID.TID 0000.0001)     ;
(PID.TID 0000.0001) celsius2K = /* 0 degree Celsius converted to Kelvin ( K ) */
(PID.TID 0000.0001)                 2.731500000000000E+02
(PID.TID 0000.0001)     ;
(PID.TID 0000.0001) rhoConst  = /* Reference density (Boussinesq)  ( kg/m^3 ) */
(PID.TID 0000.0001)                 1.035000000000000E+03
(PID.TID 0000.0001)     ;
(PID.TID 0000.0001) rhoFacC = /* normalized Reference density @ cell-Center (-) */
(PID.TID 0000.0001)    15 @  1.000000000000000E+00              /* K =  1: 15 */
(PID.TID 0000.0001)     ;
(PID.TID 0000.0001) rhoFacF = /* normalized Reference density @ W-Interface (-) */
(PID.TID 0000.0001)    16 @  1.000000000000000E+00              /* K =  1: 16 */
(PID.TID 0000.0001)     ;
(PID.TID 0000.0001) rhoConstFresh = /* Fresh-water reference density ( kg/m^3 ) */
(PID.TID 0000.0001)                 1.000000000000000E+03
(PID.TID 0000.0001)     ;
(PID.TID 0000.0001) gravity =   /* Gravitational acceleration ( m/s^2 ) */
(PID.TID 0000.0001)                 9.810000000000000E+00
(PID.TID 0000.0001)     ;
(PID.TID 0000.0001) gBaro =   /* Barotropic gravity ( m/s^2 ) */
(PID.TID 0000.0001)                 9.810000000000000E+00
(PID.TID 0000.0001)     ;
(PID.TID 0000.0001) gravFacC = /* gravity factor (vs surf.) @ cell-Center (-) */
(PID.TID 0000.0001)    15 @  1.000000000000000E+00              /* K =  1: 15 */
(PID.TID 0000.0001)     ;
(PID.TID 0000.0001) gravFacF = /* gravity factor (vs surf.) @ W-Interface (-) */
(PID.TID 0000.0001)    16 @  1.000000000000000E+00              /* K =  1: 16 */
(PID.TID 0000.0001)     ;
(PID.TID 0000.0001) rotationPeriod =   /* Rotation Period ( s ) */
(PID.TID 0000.0001)                 8.616400000000000E+04
(PID.TID 0000.0001)     ;
(PID.TID 0000.0001) omega =   /* Angular velocity ( rad/s ) */
(PID.TID 0000.0001)                 7.292123516990375E-05
(PID.TID 0000.0001)     ;
(PID.TID 0000.0001) f0 =   /* Reference coriolis parameter ( 1/s ) */
(PID.TID 0000.0001)                 1.000000000000000E-04
(PID.TID 0000.0001)     ;
(PID.TID 0000.0001) beta =   /* Beta ( 1/(m.s) ) */
(PID.TID 0000.0001)                 9.999999999999999E-12
(PID.TID 0000.0001)     ;
(PID.TID 0000.0001) fPrime =   /* Second coriolis parameter ( 1/s ) */
(PID.TID 0000.0001)                 0.000000000000000E+00
(PID.TID 0000.0001)     ;
(PID.TID 0000.0001) rigidLid =   /* Rigid lid on/off flag */
(PID.TID 0000.0001)                   F
(PID.TID 0000.0001)     ;
(PID.TID 0000.0001) implicitFreeSurface =   /* Implicit free surface on/off flag */
(PID.TID 0000.0001)                   T
(PID.TID 0000.0001)     ;
(PID.TID 0000.0001) freeSurfFac =   /* Implicit free surface factor */
(PID.TID 0000.0001)                 1.000000000000000E+00
(PID.TID 0000.0001)     ;
(PID.TID 0000.0001) implicSurfPress =  /* Surface Pressure implicit factor (0-1)*/
(PID.TID 0000.0001)                 1.000000000000000E+00
(PID.TID 0000.0001)     ;
(PID.TID 0000.0001) implicDiv2DFlow =  /* Barot. Flow Div. implicit factor (0-1)*/
(PID.TID 0000.0001)                 1.000000000000000E+00
(PID.TID 0000.0001)     ;
(PID.TID 0000.0001) uniformLin_PhiSurf = /* use uniform Bo_surf on/off flag*/
(PID.TID 0000.0001)                   T
(PID.TID 0000.0001)     ;
(PID.TID 0000.0001) uniformFreeSurfLev = /* free-surface level-index is uniform */
(PID.TID 0000.0001)                   T
(PID.TID 0000.0001)     ;
(PID.TID 0000.0001) hFacMin =   /* minimum partial cell factor (hFac) */
(PID.TID 0000.0001)                 1.000000000000000E-01
(PID.TID 0000.0001)     ;
(PID.TID 0000.0001) hFacMinDr = /* minimum partial cell thickness ( m) */
(PID.TID 0000.0001)                 2.000000000000000E+01
(PID.TID 0000.0001)     ;
(PID.TID 0000.0001) exactConserv =  /* Exact Volume Conservation on/off flag*/
(PID.TID 0000.0001)                   T
(PID.TID 0000.0001)     ;
(PID.TID 0000.0001) linFSConserveTr = /* Tracer correction for Lin Free Surface on/off flag*/
(PID.TID 0000.0001)                   F
(PID.TID 0000.0001)     ;
(PID.TID 0000.0001) nonlinFreeSurf = /* Non-linear Free Surf. options (-1,0,1,2,3)*/
(PID.TID 0000.0001)                       4
(PID.TID 0000.0001)      -1,0= Off ; 1,2,3= On, 2=+rescale gU,gV, 3=+update cg2d solv.
(PID.TID 0000.0001)     ;
(PID.TID 0000.0001) hFacInf =   /* lower threshold for hFac (nonlinFreeSurf only)*/
(PID.TID 0000.0001)                 2.000000000000000E-01
(PID.TID 0000.0001)     ;
(PID.TID 0000.0001) hFacSup =   /* upper threshold for hFac (nonlinFreeSurf only)*/
(PID.TID 0000.0001)                 2.000000000000000E+00
(PID.TID 0000.0001)     ;
(PID.TID 0000.0001) select_rStar = /* r* Vertical coord. options (=0 r coord.; >0 uses r*)*/
(PID.TID 0000.0001)                       2
(PID.TID 0000.0001)     ;
(PID.TID 0000.0001) useRealFreshWaterFlux = /* Real Fresh Water Flux on/off flag*/
(PID.TID 0000.0001)                   T
(PID.TID 0000.0001)     ;
(PID.TID 0000.0001) temp_EvPrRn = /* Temp. of Evap/Prec/R (UNSET=use local T)(oC)*/
(PID.TID 0000.0001)                 1.234567000000000E+05
(PID.TID 0000.0001)     ;
(PID.TID 0000.0001) salt_EvPrRn = /* Salin. of Evap/Prec/R (UNSET=use local S)(psu)*/
(PID.TID 0000.0001)                 0.000000000000000E+00
(PID.TID 0000.0001)     ;
(PID.TID 0000.0001) selectAddFluid = /* option for mass source/sink of fluid (=0: off) */
(PID.TID 0000.0001)                       0
(PID.TID 0000.0001)     ;
(PID.TID 0000.0001) temp_addMass = /* Temp. of addMass array (UNSET=use local T)(oC)*/
(PID.TID 0000.0001)                 1.234567000000000E+05
(PID.TID 0000.0001)     ;
(PID.TID 0000.0001) salt_addMass = /* Salin. of addMass array (UNSET=use local S)(psu)*/
(PID.TID 0000.0001)                 0.000000000000000E+00
(PID.TID 0000.0001)     ;
(PID.TID 0000.0001) use3Dsolver = /* use 3-D pressure solver on/off flag */
(PID.TID 0000.0001)                   F
(PID.TID 0000.0001)     ;
(PID.TID 0000.0001) nonHydrostatic =  /* Non-Hydrostatic on/off flag */
(PID.TID 0000.0001)                   F
(PID.TID 0000.0001)     ;
(PID.TID 0000.0001) nh_Am2 = /* Non-Hydrostatic terms scaling factor */
(PID.TID 0000.0001)                 1.000000000000000E+00
(PID.TID 0000.0001)     ;
(PID.TID 0000.0001) implicitNHPress = /* Non-Hyd Pressure implicit factor (0-1)*/
(PID.TID 0000.0001)                 1.000000000000000E+00
(PID.TID 0000.0001)     ;
(PID.TID 0000.0001) selectNHfreeSurf = /* Non-Hyd (free-)Surface option */
(PID.TID 0000.0001)                       0
(PID.TID 0000.0001)     ;
(PID.TID 0000.0001) quasiHydrostatic = /* Quasi-Hydrostatic on/off flag */
(PID.TID 0000.0001)                   F
(PID.TID 0000.0001)     ;
(PID.TID 0000.0001) calc_wVelocity = /* vertical velocity calculation on/off flag */
(PID.TID 0000.0001)                   T
(PID.TID 0000.0001)     ;
(PID.TID 0000.0001) momStepping =  /* Momentum equation on/off flag */
(PID.TID 0000.0001)                   T
(PID.TID 0000.0001)     ;
(PID.TID 0000.0001) vectorInvariantMomentum= /* Vector-Invariant Momentum on/off */
(PID.TID 0000.0001)                   T
(PID.TID 0000.0001)     ;
(PID.TID 0000.0001) momAdvection =  /* Momentum advection on/off flag */
(PID.TID 0000.0001)                   T
(PID.TID 0000.0001)     ;
(PID.TID 0000.0001) momViscosity =  /* Momentum viscosity on/off flag */
(PID.TID 0000.0001)                   T
(PID.TID 0000.0001)     ;
(PID.TID 0000.0001) momImplVertAdv= /* Momentum implicit vert. advection on/off*/
(PID.TID 0000.0001)                   F
(PID.TID 0000.0001)     ;
(PID.TID 0000.0001) implicitViscosity = /* Implicit viscosity on/off flag */
(PID.TID 0000.0001)                   F
(PID.TID 0000.0001)     ;
(PID.TID 0000.0001) selectImplicitDrag= /* Implicit bot Drag options (0,1,2)*/
(PID.TID 0000.0001)                       0
(PID.TID 0000.0001)     0= Expl. ; 1= Impl. on provis. Vel ; 2= Fully Impl (with surf.P)
(PID.TID 0000.0001)     ;
(PID.TID 0000.0001) metricTerms =  /* metric-Terms on/off flag */
(PID.TID 0000.0001)                   F
(PID.TID 0000.0001)     ;
(PID.TID 0000.0001) useNHMTerms = /* Non-Hydrostatic Metric-Terms on/off */
(PID.TID 0000.0001)                   F
(PID.TID 0000.0001)     ;
(PID.TID 0000.0001) selectCoriMap = /* Coriolis Map options (0,1,2,3)*/
(PID.TID 0000.0001)                       2
(PID.TID 0000.0001)     0= f-Plane ; 1= Beta-Plane ; 2= Spherical ; 3= read from file
(PID.TID 0000.0001)     ;
(PID.TID 0000.0001) use3dCoriolis = /* 3-D Coriolis on/off flag */
(PID.TID 0000.0001)                   F
(PID.TID 0000.0001)     ;
(PID.TID 0000.0001) useCoriolis =  /* Coriolis on/off flag */
(PID.TID 0000.0001)                   T
(PID.TID 0000.0001)     ;
(PID.TID 0000.0001) useCDscheme =  /* CD scheme on/off flag */
(PID.TID 0000.0001)                   F
(PID.TID 0000.0001)     ;
(PID.TID 0000.0001) selectCoriScheme= /* Scheme selector for Coriolis-Term */
(PID.TID 0000.0001)                       0
(PID.TID 0000.0001)    = 0 : original discretization (simple averaging, no hFac)
(PID.TID 0000.0001)    = 1 : Wet-point averaging (Jamar & Ozer 1986)
(PID.TID 0000.0001)    = 2 : hFac weighted average (Angular Mom. conserving)
(PID.TID 0000.0001)    = 3 : energy conserving scheme using hFac weighted average
(PID.TID 0000.0001)     ;
(PID.TID 0000.0001) useAbsVorticity= /* V.I Works with f+zeta in Coriolis */
(PID.TID 0000.0001)                   F
(PID.TID 0000.0001)     ;
(PID.TID 0000.0001) selectVortScheme= /* V.I Scheme selector for Vorticity-Term */
(PID.TID 0000.0001)                       1
(PID.TID 0000.0001)    = 0 : enstrophy (Shallow-Water Eq.) conserving scheme by Sadourny, JAS 75
(PID.TID 0000.0001)    = 1 : same as 0 with modified hFac
(PID.TID 0000.0001)    = 2 : energy conserving scheme (used by Sadourny in JAS 75 paper)
(PID.TID 0000.0001)    = 3 : energy (general) and enstrophy (2D, nonDiv.) conserving scheme
(PID.TID 0000.0001)          from Sadourny (Burridge & Haseler, ECMWF Rep.4, 1977)
(PID.TID 0000.0001)     ;
(PID.TID 0000.0001) useJamartMomAdv= /* V.I Non-linear terms Jamart flag */
(PID.TID 0000.0001)                   F
(PID.TID 0000.0001)     ;
(PID.TID 0000.0001) upwindVorticity= /* V.I Upwind bias vorticity flag */
(PID.TID 0000.0001)                   F
(PID.TID 0000.0001)     ;
(PID.TID 0000.0001) highOrderVorticity= /* V.I High order vort. advect. flag */
(PID.TID 0000.0001)                   F
(PID.TID 0000.0001)     ;
(PID.TID 0000.0001) upwindShear= /* V.I Upwind vertical Shear advection flag */
(PID.TID 0000.0001)                   F
(PID.TID 0000.0001)     ;
(PID.TID 0000.0001) selectKEscheme= /* V.I Kinetic Energy scheme selector */
(PID.TID 0000.0001)                       0
(PID.TID 0000.0001)     ;
(PID.TID 0000.0001) momForcing =  /* Momentum forcing on/off flag */
(PID.TID 0000.0001)                   T
(PID.TID 0000.0001)     ;
(PID.TID 0000.0001) momTidalForcing = /* Momentum Tidal forcing on/off flag */
(PID.TID 0000.0001)                   T
(PID.TID 0000.0001)     ;
(PID.TID 0000.0001) momPressureForcing =  /* Momentum pressure term on/off flag */
(PID.TID 0000.0001)                   T
(PID.TID 0000.0001)     ;
(PID.TID 0000.0001) implicitIntGravWave= /* Implicit Internal Gravity Wave flag */
(PID.TID 0000.0001)                   F
(PID.TID 0000.0001)     ;
(PID.TID 0000.0001) staggerTimeStep =    /* Stagger time stepping on/off flag */
(PID.TID 0000.0001)                   T
(PID.TID 0000.0001)     ;
(PID.TID 0000.0001) doResetHFactors = /* reset thickness factors @ each time-step */
(PID.TID 0000.0001)                   T
(PID.TID 0000.0001)     ;
(PID.TID 0000.0001) multiDimAdvection =  /* enable/disable Multi-Dim Advection */
(PID.TID 0000.0001)                   T
(PID.TID 0000.0001)     ;
(PID.TID 0000.0001) useMultiDimAdvec =   /* Multi-Dim Advection is/is-not used */
(PID.TID 0000.0001)                   T
(PID.TID 0000.0001)     ;
(PID.TID 0000.0001) implicitDiffusion = /* Implicit Diffusion on/off flag */
(PID.TID 0000.0001)                   T
(PID.TID 0000.0001)     ;
(PID.TID 0000.0001) tempStepping =  /* Temperature equation on/off flag */
(PID.TID 0000.0001)                   T
(PID.TID 0000.0001)     ;
(PID.TID 0000.0001) tempAdvection = /* Temperature advection on/off flag */
(PID.TID 0000.0001)                   T
(PID.TID 0000.0001)     ;
(PID.TID 0000.0001) tempImplVertAdv = /* Temp. implicit vert. advection on/off */
(PID.TID 0000.0001)                   T
(PID.TID 0000.0001)     ;
(PID.TID 0000.0001) tempForcing  =  /* Temperature forcing on/off flag */
(PID.TID 0000.0001)                   T
(PID.TID 0000.0001)     ;
(PID.TID 0000.0001) balanceQnet  =  /* balance net heat-flux on/off flag */
(PID.TID 0000.0001)                   F
(PID.TID 0000.0001)     ;
(PID.TID 0000.0001) doThetaClimRelax = /* apply SST relaxation on/off flag */
(PID.TID 0000.0001)                   T
(PID.TID 0000.0001)     ;
(PID.TID 0000.0001) balanceThetaClimRelax= /* balance SST relaxation on/off flag */
(PID.TID 0000.0001)                   F
(PID.TID 0000.0001)     ;
(PID.TID 0000.0001) tempIsActiveTr = /* Temp. is a dynamically Active Tracer */
(PID.TID 0000.0001)                   T
(PID.TID 0000.0001)     ;
(PID.TID 0000.0001) saltStepping =  /* Salinity equation on/off flag */
(PID.TID 0000.0001)                   T
(PID.TID 0000.0001)     ;
(PID.TID 0000.0001) saltAdvection = /* Salinity advection on/off flag */
(PID.TID 0000.0001)                   T
(PID.TID 0000.0001)     ;
(PID.TID 0000.0001) saltImplVertAdv = /* Sali. implicit vert. advection on/off */
(PID.TID 0000.0001)                   T
(PID.TID 0000.0001)     ;
(PID.TID 0000.0001) saltForcing  =  /* Salinity forcing on/off flag */
(PID.TID 0000.0001)                   T
(PID.TID 0000.0001)     ;
(PID.TID 0000.0001) balanceEmPmR =  /* balance net fresh-water flux on/off flag */
(PID.TID 0000.0001)                   F
(PID.TID 0000.0001)     ;
(PID.TID 0000.0001) doSaltClimRelax = /* apply SSS relaxation on/off flag */
(PID.TID 0000.0001)                   T
(PID.TID 0000.0001)     ;
(PID.TID 0000.0001) balanceSaltClimRelax= /* balance SSS relaxation on/off flag */
(PID.TID 0000.0001)                   F
(PID.TID 0000.0001)     ;
(PID.TID 0000.0001) saltIsActiveTr = /* Salt  is a dynamically Active Tracer */
(PID.TID 0000.0001)                   T
(PID.TID 0000.0001)     ;
(PID.TID 0000.0001)  readBinaryPrec = /* Precision used for reading binary files */
(PID.TID 0000.0001)                      64
(PID.TID 0000.0001)     ;
(PID.TID 0000.0001) writeBinaryPrec = /* Precision used for writing binary files */
(PID.TID 0000.0001)                      32
(PID.TID 0000.0001)     ;
(PID.TID 0000.0001) balancePrintMean  =  /* print means for balancing fluxes */
(PID.TID 0000.0001)                   F
(PID.TID 0000.0001)     ;
(PID.TID 0000.0001)  rwSuffixType =   /* select format of mds file suffix */
(PID.TID 0000.0001)                       0
(PID.TID 0000.0001)    = 0 : myIter (I10.10) ;   = 1 : 100*myTime (100th sec) ;
(PID.TID 0000.0001)    = 2 : myTime (seconds);   = 3 : myTime/360 (10th of hr);
(PID.TID 0000.0001)    = 4 : myTime/3600 (hours)
(PID.TID 0000.0001)     ;
(PID.TID 0000.0001)  globalFiles = /* write "global" (=not per tile) files */
(PID.TID 0000.0001)                   F
(PID.TID 0000.0001)     ;
(PID.TID 0000.0001)  useSingleCpuIO = /* only master MPI process does I/O */
(PID.TID 0000.0001)                   F
(PID.TID 0000.0001)     ;
(PID.TID 0000.0001)  useSingleCpuInput = /* only master process reads input */
(PID.TID 0000.0001)                   F
(PID.TID 0000.0001)     ;
(PID.TID 0000.0001) /* debLev[*]  : level of debug & auxiliary message printing */
(PID.TID 0000.0001) debLevZero =  0 ; /* level of disabled aux. msg printing */
(PID.TID 0000.0001)    debLevA =  1 ; /* level of minimum  aux. msg printing */
(PID.TID 0000.0001)    debLevB =  2 ; /* level of low aux. print (report read-file opening)*/
(PID.TID 0000.0001)    debLevC =  3 ; /* level of moderate debug prt (most pkgs debug msg) */
(PID.TID 0000.0001)    debLevD =  4 ; /* level of enhanced debug prt (add DEBUG_STATS prt) */
(PID.TID 0000.0001)    debLevE =  5 ; /* level of extensive debug printing */
(PID.TID 0000.0001) debugLevel =  /* select debug printing level */
(PID.TID 0000.0001)                       1
(PID.TID 0000.0001)     ;
(PID.TID 0000.0001)  plotLevel =  /* select PLOT_FIELD printing level */
(PID.TID 0000.0001)                       1
(PID.TID 0000.0001)     ;
(PID.TID 0000.0001) //
(PID.TID 0000.0001) // Elliptic solver(s) paramters ( PARM02 in namelist )
(PID.TID 0000.0001) //
(PID.TID 0000.0001) cg2dMaxIters =   /* Upper limit on 2d con. grad iterations  */
(PID.TID 0000.0001)                     200
(PID.TID 0000.0001)     ;
(PID.TID 0000.0001) cg2dChkResFreq =   /* 2d con. grad convergence test frequency */
(PID.TID 0000.0001)                       1
(PID.TID 0000.0001)     ;
(PID.TID 0000.0001) cg2dUseMinResSol= /* use cg2d last-iter(=0) / min-resid.(=1) solution */
(PID.TID 0000.0001)                       0
(PID.TID 0000.0001)     ;
(PID.TID 0000.0001) cg2dTargetResidual =   /* 2d con. grad target residual  */
(PID.TID 0000.0001)                 1.000000000000000E-07
(PID.TID 0000.0001)     ;
(PID.TID 0000.0001) cg2dTargetResWunit =   /* CG2d target residual [W units] */
(PID.TID 0000.0001)                 1.000000000000000E-14
(PID.TID 0000.0001)     ;
(PID.TID 0000.0001) cg2dPreCondFreq =   /* Freq. for updating cg2d preconditioner */
(PID.TID 0000.0001)                       1
(PID.TID 0000.0001)     ;
(PID.TID 0000.0001) useSRCGSolver =  /* use single reduction CG solver(s) */
(PID.TID 0000.0001)                   F
(PID.TID 0000.0001)     ;
(PID.TID 0000.0001) printResidualFreq = /* Freq. for printing CG residual */
(PID.TID 0000.0001)                       0
(PID.TID 0000.0001)     ;
(PID.TID 0000.0001) //
(PID.TID 0000.0001) // Time stepping paramters ( PARM03 in namelist )
(PID.TID 0000.0001) //
(PID.TID 0000.0001) deltaTMom =   /* Momentum equation timestep ( s ) */
(PID.TID 0000.0001)                 1.200000000000000E+03
(PID.TID 0000.0001)     ;
(PID.TID 0000.0001) deltaTFreeSurf = /* FreeSurface equation timestep ( s ) */
(PID.TID 0000.0001)                 8.640000000000000E+04
(PID.TID 0000.0001)     ;
(PID.TID 0000.0001) dTtracerLev =  /* Tracer equation timestep ( s ) */
(PID.TID 0000.0001)    15 @  8.640000000000000E+04              /* K =  1: 15 */
(PID.TID 0000.0001)     ;
(PID.TID 0000.0001) deltaTClock  =   /* Model clock timestep ( s ) */
(PID.TID 0000.0001)                 8.640000000000000E+04
(PID.TID 0000.0001)     ;
(PID.TID 0000.0001) cAdjFreq =   /* Convective adjustment interval ( s ) */
(PID.TID 0000.0001)                 0.000000000000000E+00
(PID.TID 0000.0001)     ;
(PID.TID 0000.0001) momForcingOutAB = /* =1: take Momentum Forcing out of Adams-Bash. stepping */
(PID.TID 0000.0001)                       1
(PID.TID 0000.0001)     ;
(PID.TID 0000.0001) tracForcingOutAB = /* =1: take T,S,pTr Forcing out of Adams-Bash. stepping */
(PID.TID 0000.0001)                       1
(PID.TID 0000.0001)     ;
(PID.TID 0000.0001) momDissip_In_AB = /* put Dissipation Tendency in Adams-Bash. stepping */
(PID.TID 0000.0001)                   F
(PID.TID 0000.0001)     ;
(PID.TID 0000.0001) doAB_onGtGs = /* apply AB on Tendencies (rather than on T,S)*/
(PID.TID 0000.0001)                   T
(PID.TID 0000.0001)     ;
(PID.TID 0000.0001) abEps =   /* Adams-Bashforth-2 stabilizing weight */
(PID.TID 0000.0001)                 1.000000000000000E-01
(PID.TID 0000.0001)     ;
(PID.TID 0000.0001) alph_AB =   /* Adams-Bashforth-3 primary factor */
(PID.TID 0000.0001)                 5.000000000000000E-01
(PID.TID 0000.0001)     ;
(PID.TID 0000.0001) beta_AB =   /* Adams-Bashforth-3 secondary factor */
(PID.TID 0000.0001)                 4.166666666666667E-01
(PID.TID 0000.0001)     ;
(PID.TID 0000.0001) startFromPickupAB2= /* start from AB-2 pickup */
(PID.TID 0000.0001)                   F
(PID.TID 0000.0001)     ;
(PID.TID 0000.0001) applyExchUV_early = /* Apply EXCH to U,V earlier in time-step */
(PID.TID 0000.0001)                   F
(PID.TID 0000.0001)     ;
(PID.TID 0000.0001) pickupStrictlyMatch= /* stop if pickup do not strictly match */
(PID.TID 0000.0001)                   F
(PID.TID 0000.0001)     ;
(PID.TID 0000.0001) nIter0   =   /* Run starting timestep number */
(PID.TID 0000.0001)                   72000
(PID.TID 0000.0001)     ;
(PID.TID 0000.0001) nTimeSteps = /* Number of timesteps */
(PID.TID 0000.0001)                       5
(PID.TID 0000.0001)     ;
(PID.TID 0000.0001) nEndIter =   /* Run ending timestep number */
(PID.TID 0000.0001)                   72005
(PID.TID 0000.0001)     ;
(PID.TID 0000.0001) baseTime =   /* Model base time ( s ) */
(PID.TID 0000.0001)                 0.000000000000000E+00
(PID.TID 0000.0001)     ;
(PID.TID 0000.0001) startTime =  /* Run start time ( s ) */
(PID.TID 0000.0001)                 6.220800000000000E+09
(PID.TID 0000.0001)     ;
(PID.TID 0000.0001) endTime  =   /* Integration ending time ( s ) */
(PID.TID 0000.0001)                 6.221232000000000E+09
(PID.TID 0000.0001)     ;
(PID.TID 0000.0001) pChkPtFreq = /* Permanent restart/pickup file interval ( s ) */
(PID.TID 0000.0001)                 3.110400000000000E+08
(PID.TID 0000.0001)     ;
(PID.TID 0000.0001) chkPtFreq  = /* Rolling restart/pickup file interval ( s ) */
(PID.TID 0000.0001)                 3.110400000000000E+07
(PID.TID 0000.0001)     ;
(PID.TID 0000.0001) pickup_write_mdsio =   /* Model IO flag. */
(PID.TID 0000.0001)                   T
(PID.TID 0000.0001)     ;
(PID.TID 0000.0001) pickup_read_mdsio =   /* Model IO flag. */
(PID.TID 0000.0001)                   T
(PID.TID 0000.0001)     ;
(PID.TID 0000.0001) writePickupAtEnd =   /* Model IO flag. */
(PID.TID 0000.0001)                   T
(PID.TID 0000.0001)     ;
(PID.TID 0000.0001) dumpFreq =   /* Model state write out interval ( s ). */
(PID.TID 0000.0001)                 4.320000000000000E+05
(PID.TID 0000.0001)     ;
(PID.TID 0000.0001) dumpInitAndLast= /* write out Initial & Last iter. model state */
(PID.TID 0000.0001)                   T
(PID.TID 0000.0001)     ;
(PID.TID 0000.0001) snapshot_mdsio =   /* Model IO flag. */
(PID.TID 0000.0001)                   T
(PID.TID 0000.0001)     ;
(PID.TID 0000.0001) monitorFreq =   /* Monitor output interval ( s ). */
(PID.TID 0000.0001)                 1.000000000000000E+00
(PID.TID 0000.0001)     ;
(PID.TID 0000.0001) monitorSelect = /* select group of variables to monitor */
(PID.TID 0000.0001)                       3
(PID.TID 0000.0001)     ;
(PID.TID 0000.0001) monitor_stdio =   /* Model IO flag. */
(PID.TID 0000.0001)                   T
(PID.TID 0000.0001)     ;
(PID.TID 0000.0001) externForcingPeriod =   /* forcing period (s) */
(PID.TID 0000.0001)                 2.592000000000000E+06
(PID.TID 0000.0001)     ;
(PID.TID 0000.0001) externForcingCycle =   /* period of the cyle (s). */
(PID.TID 0000.0001)                 3.110400000000000E+07
(PID.TID 0000.0001)     ;
(PID.TID 0000.0001) tauThetaClimRelax =   /* relaxation time scale (s) */
(PID.TID 0000.0001)                 5.184000000000000E+06
(PID.TID 0000.0001)     ;
(PID.TID 0000.0001) tauSaltClimRelax =   /* relaxation time scale (s) */
(PID.TID 0000.0001)                 6.220800000000000E+07
(PID.TID 0000.0001)     ;
(PID.TID 0000.0001) latBandClimRelax =   /* max. Lat. where relaxation */
(PID.TID 0000.0001)                 1.800000000000000E+02
(PID.TID 0000.0001)     ;
(PID.TID 0000.0001) //
(PID.TID 0000.0001) // Gridding paramters ( PARM04 in namelist )
(PID.TID 0000.0001) //
(PID.TID 0000.0001) usingCartesianGrid = /* Cartesian coordinates flag ( True/False ) */
(PID.TID 0000.0001)                   F
(PID.TID 0000.0001)     ;
(PID.TID 0000.0001) usingCylindricalGrid = /* Cylindrical coordinates flag ( True/False ) */
(PID.TID 0000.0001)                   F
(PID.TID 0000.0001)     ;
(PID.TID 0000.0001) usingSphericalPolarGrid = /* Spherical coordinates flag ( True/False ) */
(PID.TID 0000.0001)                   F
(PID.TID 0000.0001)     ;
(PID.TID 0000.0001) usingCurvilinearGrid = /* Curvilinear coordinates flag ( True/False ) */
(PID.TID 0000.0001)                   T
(PID.TID 0000.0001)     ;
(PID.TID 0000.0001) useMin4hFacEdges = /* set hFacW,S as minimum of adjacent hFacC factor */
(PID.TID 0000.0001)                   F
(PID.TID 0000.0001)     ;
(PID.TID 0000.0001) interViscAr_pCell = /* account for partial-cell in interior vert. viscosity */
(PID.TID 0000.0001)                   F
(PID.TID 0000.0001)     ;
(PID.TID 0000.0001) interDiffKr_pCell = /* account for partial-cell in interior vert. diffusion */
(PID.TID 0000.0001)                   F
(PID.TID 0000.0001)     ;
(PID.TID 0000.0001) pCellMix_select = /* option to enhance mixing near surface & bottom */
(PID.TID 0000.0001)                       0
(PID.TID 0000.0001)     ;
(PID.TID 0000.0001) selectSigmaCoord = /* Hybrid-Sigma Vert. Coordinate option */
(PID.TID 0000.0001)                       0
(PID.TID 0000.0001)     ;
(PID.TID 0000.0001) rSigmaBnd = /* r/sigma transition ( units of r ==  m ) */
(PID.TID 0000.0001)                 1.234567000000000E+05
(PID.TID 0000.0001)     ;
(PID.TID 0000.0001) rkSign =   /* index orientation relative to vertical coordinate */
(PID.TID 0000.0001)                -1.000000000000000E+00
(PID.TID 0000.0001)     ;
(PID.TID 0000.0001) gravitySign = /* gravity orientation relative to vertical coordinate */
(PID.TID 0000.0001)                -1.000000000000000E+00
(PID.TID 0000.0001)     ;
(PID.TID 0000.0001) seaLev_Z =  /* reference height of sea-level [m] */
(PID.TID 0000.0001)                 0.000000000000000E+00
(PID.TID 0000.0001)     ;
(PID.TID 0000.0001) top_Pres =  /* reference pressure at the top [Pa] */
(PID.TID 0000.0001)                 0.000000000000000E+00
(PID.TID 0000.0001)     ;
(PID.TID 0000.0001) mass2rUnit = /* convert mass per unit area [kg/m2] to r-units [m] */
(PID.TID 0000.0001)                 9.661835748792270E-04
(PID.TID 0000.0001)     ;
(PID.TID 0000.0001) rUnit2mass = /* convert r-units [m] to mass per unit area [kg/m2] */
(PID.TID 0000.0001)                 1.035000000000000E+03
(PID.TID 0000.0001)     ;
(PID.TID 0000.0001) drC =   /* C spacing ( units of r ) */
(PID.TID 0000.0001)                 2.500000000000000E+01,      /* K =  1 */
(PID.TID 0000.0001)                 6.000000000000000E+01,      /* K =  2 */
(PID.TID 0000.0001)                 8.500000000000000E+01,      /* K =  3 */
(PID.TID 0000.0001)                 1.200000000000000E+02,      /* K =  4 */
(PID.TID 0000.0001)                 1.650000000000000E+02,      /* K =  5 */
(PID.TID 0000.0001)                 2.150000000000000E+02,      /* K =  6 */
(PID.TID 0000.0001)                 2.650000000000000E+02,      /* K =  7 */
(PID.TID 0000.0001)                 3.150000000000000E+02,      /* K =  8 */
(PID.TID 0000.0001)                 3.650000000000000E+02,      /* K =  9 */
(PID.TID 0000.0001)                 4.150000000000000E+02,      /* K = 10 */
(PID.TID 0000.0001)                 4.650000000000000E+02,      /* K = 11 */
(PID.TID 0000.0001)                 5.150000000000000E+02,      /* K = 12 */
(PID.TID 0000.0001)                 5.650000000000000E+02,      /* K = 13 */
(PID.TID 0000.0001)                 6.150000000000000E+02,      /* K = 14 */
(PID.TID 0000.0001)                 6.650000000000000E+02,      /* K = 15 */
(PID.TID 0000.0001)                 3.450000000000000E+02       /* K = 16 */
(PID.TID 0000.0001)     ;
(PID.TID 0000.0001) drF =   /* W spacing ( units of r ) */
(PID.TID 0000.0001)                 5.000000000000000E+01,      /* K =  1 */
(PID.TID 0000.0001)                 7.000000000000000E+01,      /* K =  2 */
(PID.TID 0000.0001)                 1.000000000000000E+02,      /* K =  3 */
(PID.TID 0000.0001)                 1.400000000000000E+02,      /* K =  4 */
(PID.TID 0000.0001)                 1.900000000000000E+02,      /* K =  5 */
(PID.TID 0000.0001)                 2.400000000000000E+02,      /* K =  6 */
(PID.TID 0000.0001)                 2.900000000000000E+02,      /* K =  7 */
(PID.TID 0000.0001)                 3.400000000000000E+02,      /* K =  8 */
(PID.TID 0000.0001)                 3.900000000000000E+02,      /* K =  9 */
(PID.TID 0000.0001)                 4.400000000000000E+02,      /* K = 10 */
(PID.TID 0000.0001)                 4.900000000000000E+02,      /* K = 11 */
(PID.TID 0000.0001)                 5.400000000000000E+02,      /* K = 12 */
(PID.TID 0000.0001)                 5.900000000000000E+02,      /* K = 13 */
(PID.TID 0000.0001)                 6.400000000000000E+02,      /* K = 14 */
(PID.TID 0000.0001)                 6.900000000000000E+02       /* K = 15 */
(PID.TID 0000.0001)     ;
(PID.TID 0000.0001) radius_fromHorizGrid = /* sphere Radius of input horiz. grid */
(PID.TID 0000.0001)                 6.370000000000000E+06
(PID.TID 0000.0001)     ;
(PID.TID 0000.0001) rSphere =  /* Radius ( ignored - cartesian, m - spherical ) */
(PID.TID 0000.0001)                 6.370000000000000E+06
(PID.TID 0000.0001)     ;
(PID.TID 0000.0001) deepAtmosphere = /* Deep/Shallow Atmosphere flag (True/False) */
(PID.TID 0000.0001)                   F
(PID.TID 0000.0001)     ;
(PID.TID 0000.0001) xC =  /* xC(:,1,:,1) : P-point X coord ( deg. or m if cartesian) */
(PID.TID 0000.0001)                -4.439521994760536E+01,      /* I =  1 */
(PID.TID 0000.0001)                -4.295641272275883E+01,      /* I =  2 */
(PID.TID 0000.0001)                -4.122055553388957E+01,      /* I =  3 */
(PID.TID 0000.0001)      . . .
(PID.TID 0000.0001)                 1.312205555338896E+02,      /* I = 94 */
(PID.TID 0000.0001)                 1.329564127227588E+02,      /* I = 95 */
(PID.TID 0000.0001)                 1.343952199476053E+02,      /* I = 96 */
(PID.TID 0000.0001)                 4.635509675007168E+01,      /* I = 97 */
(PID.TID 0000.0001)                 4.906731228843647E+01,      /* I = 98 */
(PID.TID 0000.0001)                 5.178550688214704E+01,      /* I = 99 */
(PID.TID 0000.0001)      . . .
(PID.TID 0000.0001)                -1.778001716525716E+02,      /* I =190 */
(PID.TID 0000.0001)                -1.779288225675308E+02,      /* I =191 */
(PID.TID 0000.0001)                -1.780367200854751E+02,      /* I =192 */
(PID.TID 0000.0001)                 1.356047800523947E+02,      /* I =193 */
(PID.TID 0000.0001)                 1.358367907661329E+02,      /* I =194 */
(PID.TID 0000.0001)                 1.359720382181193E+02,      /* I =195 */
(PID.TID 0000.0001)      . . .
(PID.TID 0000.0001)                -1.340279617818807E+02,      /* I =286 */
(PID.TID 0000.0001)                -1.341632092338671E+02,      /* I =287 */
(PID.TID 0000.0001)                -1.343952199476053E+02,      /* I =288 */
(PID.TID 0000.0001)                -8.812739148696656E+01,      /* I =289 */
(PID.TID 0000.0001)                -8.820362659721324E+01,      /* I =290 */
(PID.TID 0000.0001)                -8.826768106944316E+01,      /* I =291 */
(PID.TID 0000.0001)      . . .
(PID.TID 0000.0001)                 8.780017165257156E+01,      /* I =382 */
(PID.TID 0000.0001)                 8.792882256753080E+01,      /* I =383 */
(PID.TID 0000.0001)                 8.803672008547504E+01       /* I =384 */
(PID.TID 0000.0001)     ;
(PID.TID 0000.0001) yC =  /* yC(1,:,1,:) : P-point Y coord ( deg. or m if cartesian) */
(PID.TID 0000.0001)                -3.497677942598243E+01,      /* J =  1 */
(PID.TID 0000.0001)                -3.374005967394886E+01,      /* J =  2 */
(PID.TID 0000.0001)                -3.220655175667454E+01,      /* J =  3 */
(PID.TID 0000.0001)                -3.045756348838641E+01,      /* J =  4 */
(PID.TID 0000.0001)                -2.853728129852918E+01,      /* J =  5 */
(PID.TID 0000.0001)                -2.647426640173173E+01,      /* J =  6 */
(PID.TID 0000.0001)                -2.428936657094636E+01,      /* J =  7 */
(PID.TID 0000.0001)                -2.199915808312262E+01,      /* J =  8 */
(PID.TID 0000.0001)                -1.961768597440146E+01,      /* J =  9 */
(PID.TID 0000.0001)                -1.715743888281371E+01,      /* J = 10 */
(PID.TID 0000.0001)                -1.462993396899330E+01,      /* J = 11 */
(PID.TID 0000.0001)                -1.204608340464756E+01,      /* J = 12 */
(PID.TID 0000.0001)                -9.416429130284818E+00,      /* J = 13 */
(PID.TID 0000.0001)                -6.751293662992216E+00,      /* J = 14 */
(PID.TID 0000.0001)                -4.060875511835959E+00,      /* J = 15 */
(PID.TID 0000.0001)                -1.355307764409121E+00       /* J = 16 */
(PID.TID 0000.0001)     ;
(PID.TID 0000.0001) rcoord = /* P-point R coordinate (  units of r ) */
(PID.TID 0000.0001)                -2.500000000000000E+01,      /* K =  1 */
(PID.TID 0000.0001)                -8.500000000000000E+01,      /* K =  2 */
(PID.TID 0000.0001)                -1.700000000000000E+02,      /* K =  3 */
(PID.TID 0000.0001)                -2.900000000000000E+02,      /* K =  4 */
(PID.TID 0000.0001)                -4.550000000000000E+02,      /* K =  5 */
(PID.TID 0000.0001)                -6.700000000000000E+02,      /* K =  6 */
(PID.TID 0000.0001)                -9.350000000000000E+02,      /* K =  7 */
(PID.TID 0000.0001)                -1.250000000000000E+03,      /* K =  8 */
(PID.TID 0000.0001)                -1.615000000000000E+03,      /* K =  9 */
(PID.TID 0000.0001)                -2.030000000000000E+03,      /* K = 10 */
(PID.TID 0000.0001)                -2.495000000000000E+03,      /* K = 11 */
(PID.TID 0000.0001)                -3.010000000000000E+03,      /* K = 12 */
(PID.TID 0000.0001)                -3.575000000000000E+03,      /* K = 13 */
(PID.TID 0000.0001)                -4.190000000000000E+03,      /* K = 14 */
(PID.TID 0000.0001)                -4.855000000000000E+03       /* K = 15 */
(PID.TID 0000.0001)     ;
(PID.TID 0000.0001) rF =   /* W-Interf. R coordinate (  units of r ) */
(PID.TID 0000.0001)                 0.000000000000000E+00,      /* K =  1 */
(PID.TID 0000.0001)                -5.000000000000000E+01,      /* K =  2 */
(PID.TID 0000.0001)                -1.200000000000000E+02,      /* K =  3 */
(PID.TID 0000.0001)                -2.200000000000000E+02,      /* K =  4 */
(PID.TID 0000.0001)                -3.600000000000000E+02,      /* K =  5 */
(PID.TID 0000.0001)                -5.500000000000000E+02,      /* K =  6 */
(PID.TID 0000.0001)                -7.900000000000000E+02,      /* K =  7 */
(PID.TID 0000.0001)                -1.080000000000000E+03,      /* K =  8 */
(PID.TID 0000.0001)                -1.420000000000000E+03,      /* K =  9 */
(PID.TID 0000.0001)                -1.810000000000000E+03,      /* K = 10 */
(PID.TID 0000.0001)                -2.250000000000000E+03,      /* K = 11 */
(PID.TID 0000.0001)                -2.740000000000000E+03,      /* K = 12 */
(PID.TID 0000.0001)                -3.280000000000000E+03,      /* K = 13 */
(PID.TID 0000.0001)                -3.870000000000000E+03,      /* K = 14 */
(PID.TID 0000.0001)                -4.510000000000000E+03,      /* K = 15 */
(PID.TID 0000.0001)                -5.200000000000000E+03       /* K = 16 */
(PID.TID 0000.0001)     ;
(PID.TID 0000.0001) deepFacC = /* deep-model grid factor @ cell-Center (-) */
(PID.TID 0000.0001)    15 @  1.000000000000000E+00              /* K =  1: 15 */
(PID.TID 0000.0001)     ;
(PID.TID 0000.0001) deepFacF = /* deep-model grid factor @ W-Interface (-) */
(PID.TID 0000.0001)    16 @  1.000000000000000E+00              /* K =  1: 16 */
(PID.TID 0000.0001)     ;
(PID.TID 0000.0001) rVel2wUnit = /* convert units: rVel -> wSpeed (=1 if z-coord)*/
(PID.TID 0000.0001)    16 @  1.000000000000000E+00              /* K =  1: 16 */
(PID.TID 0000.0001)     ;
(PID.TID 0000.0001) wUnit2rVel = /* convert units: wSpeed -> rVel (=1 if z-coord)*/
(PID.TID 0000.0001)    16 @  1.000000000000000E+00              /* K =  1: 16 */
(PID.TID 0000.0001)     ;
(PID.TID 0000.0001) dBdrRef = /* Vertical grad. of reference buoyancy [(m/s/r)^2] */
(PID.TID 0000.0001)    15 @  0.000000000000000E+00              /* K =  1: 15 */
(PID.TID 0000.0001)     ;
(PID.TID 0000.0001) rotateGrid = /* use rotated grid ( True/False ) */
(PID.TID 0000.0001)                   F
(PID.TID 0000.0001)     ;
(PID.TID 0000.0001) phiEuler = /* Euler angle, rotation about original z-coordinate [rad] */
(PID.TID 0000.0001)                 0.000000000000000E+00
(PID.TID 0000.0001)     ;
(PID.TID 0000.0001) thetaEuler = /* Euler angle, rotation about new x-coordinate [rad] */
(PID.TID 0000.0001)                 0.000000000000000E+00
(PID.TID 0000.0001)     ;
(PID.TID 0000.0001) psiEuler = /* Euler angle, rotation about new z-coordinate [rad] */
(PID.TID 0000.0001)                 0.000000000000000E+00
(PID.TID 0000.0001)     ;
(PID.TID 0000.0001) dxF =  /* dxF(:,1,:,1) ( units: m ) */
(PID.TID 0000.0001)                 1.202082051331828E+05,      /* I =  1 */
(PID.TID 0000.0001)                 1.563594089971120E+05,      /* I =  2 */
(PID.TID 0000.0001)                 1.835530058121492E+05,      /* I =  3 */
(PID.TID 0000.0001)      . . .
(PID.TID 0000.0001)                 1.835530058121492E+05,      /* I = 94 */
(PID.TID 0000.0001)                 1.563594089971120E+05,      /* I = 95 */
(PID.TID 0000.0001)                 1.202082051331828E+05,      /* I = 96 */
(PID.TID 0000.0001)                 3.012844832048790E+05,      /* I = 97 */
(PID.TID 0000.0001)                 3.017314519159184E+05,      /* I = 98 */
(PID.TID 0000.0001)                 3.026061571839506E+05,      /* I = 99 */
(PID.TID 0000.0001)      . . .
(PID.TID 0000.0001)                 3.026061571839506E+05,      /* I =190 */
(PID.TID 0000.0001)                 3.017314519159184E+05,      /* I =191 */
(PID.TID 0000.0001)                 3.012844832048790E+05,      /* I =192 */
(PID.TID 0000.0001)                 1.202082051331828E+05,      /* I =193 */
(PID.TID 0000.0001)                 1.563594089971120E+05,      /* I =194 */
(PID.TID 0000.0001)                 1.835530058121492E+05,      /* I =195 */
(PID.TID 0000.0001)      . . .
(PID.TID 0000.0001)                 1.835530058121492E+05,      /* I =286 */
(PID.TID 0000.0001)                 1.563594089971120E+05,      /* I =287 */
(PID.TID 0000.0001)                 1.202082051331828E+05,      /* I =288 */
(PID.TID 0000.0001)                 3.012844832048790E+05,      /* I =289 */
(PID.TID 0000.0001)                 3.017314519159184E+05,      /* I =290 */
(PID.TID 0000.0001)                 3.026061571839506E+05,      /* I =291 */
(PID.TID 0000.0001)      . . .
(PID.TID 0000.0001)                 3.026061571839506E+05,      /* I =382 */
(PID.TID 0000.0001)                 3.017314519159184E+05,      /* I =383 */
(PID.TID 0000.0001)                 3.012844832048790E+05       /* I =384 */
(PID.TID 0000.0001)     ;
(PID.TID 0000.0001) dxF =  /* dxF(1,:,1,:) ( units: m ) */
(PID.TID 0000.0001)                 1.202082051331828E+05,      /* J =  1 */
(PID.TID 0000.0001)                 1.572908084538706E+05,      /* J =  2 */
(PID.TID 0000.0001)                 1.840412227747703E+05,      /* J =  3 */
(PID.TID 0000.0001)                 2.048868197919576E+05,      /* J =  4 */
(PID.TID 0000.0001)                 2.220405216043041E+05,      /* J =  5 */
(PID.TID 0000.0001)                 2.365892017348392E+05,      /* J =  6 */
(PID.TID 0000.0001)                 2.491250781852558E+05,      /* J =  7 */
(PID.TID 0000.0001)                 2.599949918261881E+05,      /* J =  8 */
(PID.TID 0000.0001)                 2.694110134598581E+05,      /* J =  9 */
(PID.TID 0000.0001)                 2.775055554645015E+05,      /* J = 10 */
(PID.TID 0000.0001)                 2.843615645344775E+05,      /* J = 11 */
(PID.TID 0000.0001)                 2.900303768613599E+05,      /* J = 12 */
(PID.TID 0000.0001)                 2.945429307892709E+05,      /* J = 13 */
(PID.TID 0000.0001)                 2.979171143158405E+05,      /* J = 14 */
(PID.TID 0000.0001)                 3.001626787528886E+05,      /* J = 15 */
(PID.TID 0000.0001)                 3.012844832048790E+05       /* J = 16 */
(PID.TID 0000.0001)     ;
(PID.TID 0000.0001) dyF =  /* dyF(:,1,:,1) ( units: m ) */
(PID.TID 0000.0001)                 1.202082051331828E+05,      /* I =  1 */
(PID.TID 0000.0001)                 1.572908084538706E+05,      /* I =  2 */
(PID.TID 0000.0001)                 1.840412227747703E+05,      /* I =  3 */
(PID.TID 0000.0001)      . . .
(PID.TID 0000.0001)                 1.840412227747703E+05,      /* I = 94 */
(PID.TID 0000.0001)                 1.572908084538706E+05,      /* I = 95 */
(PID.TID 0000.0001)                 1.202082051331828E+05,      /* I = 96 */
(PID.TID 0000.0001)                 3.012190981969055E+05,      /* I = 97 */
(PID.TID 0000.0001)                 3.016675528553907E+05,      /* I = 98 */
(PID.TID 0000.0001)                 3.025451404065074E+05,      /* I = 99 */
(PID.TID 0000.0001)      . . .
(PID.TID 0000.0001)                 3.025451404065074E+05,      /* I =190 */
(PID.TID 0000.0001)                 3.016675528553907E+05,      /* I =191 */
(PID.TID 0000.0001)                 3.012190981969055E+05,      /* I =192 */
(PID.TID 0000.0001)                 1.202082051331828E+05,      /* I =193 */
(PID.TID 0000.0001)                 1.572908084538706E+05,      /* I =194 */
(PID.TID 0000.0001)                 1.840412227747703E+05,      /* I =195 */
(PID.TID 0000.0001)      . . .
(PID.TID 0000.0001)                 1.840412227747703E+05,      /* I =286 */
(PID.TID 0000.0001)                 1.572908084538706E+05,      /* I =287 */
(PID.TID 0000.0001)                 1.202082051331828E+05,      /* I =288 */
(PID.TID 0000.0001)                 3.012190981969055E+05,      /* I =289 */
(PID.TID 0000.0001)                 3.016675528553907E+05,      /* I =290 */
(PID.TID 0000.0001)                 3.025451404065074E+05,      /* I =291 */
(PID.TID 0000.0001)      . . .
(PID.TID 0000.0001)                 3.025451404065074E+05,      /* I =382 */
(PID.TID 0000.0001)                 3.016675528553907E+05,      /* I =383 */
(PID.TID 0000.0001)                 3.012190981969055E+05       /* I =384 */
(PID.TID 0000.0001)     ;
(PID.TID 0000.0001) dyF =  /* dyF(1,:,1,:) ( units: m ) */
(PID.TID 0000.0001)                 1.202082051331828E+05,      /* J =  1 */
(PID.TID 0000.0001)                 1.563594089971120E+05,      /* J =  2 */
(PID.TID 0000.0001)                 1.835530058121492E+05,      /* J =  3 */
(PID.TID 0000.0001)                 2.045883481718707E+05,      /* J =  4 */
(PID.TID 0000.0001)                 2.218350349844185E+05,      /* J =  5 */
(PID.TID 0000.0001)                 2.364352994647058E+05,      /* J =  6 */
(PID.TID 0000.0001)                 2.490022710862746E+05,      /* J =  7 */
(PID.TID 0000.0001)                 2.598919724358304E+05,      /* J =  8 */
(PID.TID 0000.0001)                 2.693210245495156E+05,      /* J =  9 */
(PID.TID 0000.0001)                 2.774243179696503E+05,      /* J = 10 */
(PID.TID 0000.0001)                 2.842862532064524E+05,      /* J = 11 */
(PID.TID 0000.0001)                 2.899590699694043E+05,      /* J = 12 */
(PID.TID 0000.0001)                 2.944742915095688E+05,      /* J = 13 */
(PID.TID 0000.0001)                 2.978501920522794E+05,      /* J = 14 */
(PID.TID 0000.0001)                 3.000967749619962E+05,      /* J = 15 */
(PID.TID 0000.0001)                 3.012190981969055E+05       /* J = 16 */
(PID.TID 0000.0001)     ;
(PID.TID 0000.0001) dxG =  /* dxG(:,1,:,1) ( units: m ) */
(PID.TID 0000.0001)                 1.009837800879055E+05,      /* I =  1 */
(PID.TID 0000.0001)                 1.534505834330338E+05,      /* I =  2 */
(PID.TID 0000.0001)                 1.823321598773926E+05,      /* I =  3 */
(PID.TID 0000.0001)      . . .
(PID.TID 0000.0001)                 1.823321598773926E+05,      /* I = 94 */
(PID.TID 0000.0001)                 1.534505834330338E+05,      /* I = 95 */
(PID.TID 0000.0001)                 1.009837800879055E+05,      /* I = 96 */
(PID.TID 0000.0001)                 3.014246674484008E+05,      /* I = 97 */
(PID.TID 0000.0001)                 3.018694497480782E+05,      /* I = 98 */
(PID.TID 0000.0001)                 3.027399364062562E+05,      /* I = 99 */
(PID.TID 0000.0001)      . . .
(PID.TID 0000.0001)                 3.027399364062562E+05,      /* I =190 */
(PID.TID 0000.0001)                 3.018694497480782E+05,      /* I =191 */
(PID.TID 0000.0001)                 3.014246674484008E+05,      /* I =192 */
(PID.TID 0000.0001)                 1.009837800879055E+05,      /* I =193 */
(PID.TID 0000.0001)                 1.534505834330338E+05,      /* I =194 */
(PID.TID 0000.0001)                 1.823321598773926E+05,      /* I =195 */
(PID.TID 0000.0001)      . . .
(PID.TID 0000.0001)                 1.823321598773926E+05,      /* I =286 */
(PID.TID 0000.0001)                 1.534505834330338E+05,      /* I =287 */
(PID.TID 0000.0001)                 1.009837800879055E+05,      /* I =288 */
(PID.TID 0000.0001)                 3.014246674484008E+05,      /* I =289 */
(PID.TID 0000.0001)                 3.018694497480782E+05,      /* I =290 */
(PID.TID 0000.0001)                 3.027399364062562E+05,      /* I =291 */
(PID.TID 0000.0001)      . . .
(PID.TID 0000.0001)                 3.027399364062562E+05,      /* I =382 */
(PID.TID 0000.0001)                 3.018694497480782E+05,      /* I =383 */
(PID.TID 0000.0001)                 3.014246674484008E+05       /* I =384 */
(PID.TID 0000.0001)     ;
(PID.TID 0000.0001) dxG =  /* dxG(1,:,1,:) ( units: m ) */
(PID.TID 0000.0001)                 1.009837800879055E+05,      /* J =  1 */
(PID.TID 0000.0001)                 1.403701524205398E+05,      /* J =  2 */
(PID.TID 0000.0001)                 1.716197227386011E+05,      /* J =  3 */
(PID.TID 0000.0001)                 1.950254041626018E+05,      /* J =  4 */
(PID.TID 0000.0001)                 2.138410773065497E+05,      /* J =  5 */
(PID.TID 0000.0001)                 2.295958105911512E+05,      /* J =  6 */
(PID.TID 0000.0001)                 2.430829951739083E+05,      /* J =  7 */
(PID.TID 0000.0001)                 2.547526806712889E+05,      /* J =  8 */
(PID.TID 0000.0001)                 2.648750305193301E+05,      /* J =  9 */
(PID.TID 0000.0001)                 2.736173771018112E+05,      /* J = 10 */
(PID.TID 0000.0001)                 2.810845823202647E+05,      /* J = 11 */
(PID.TID 0000.0001)                 2.873420591008078E+05,      /* J = 12 */
(PID.TID 0000.0001)                 2.924298293668651E+05,      /* J = 13 */
(PID.TID 0000.0001)                 2.963715635865306E+05,      /* J = 14 */
(PID.TID 0000.0001)                 2.991805843171258E+05,      /* J = 15 */
(PID.TID 0000.0001)                 3.008638765647886E+05       /* J = 16 */
(PID.TID 0000.0001)     ;
(PID.TID 0000.0001) dyG =  /* dyG(:,1,:,1) ( units: m ) */
(PID.TID 0000.0001)                 1.009837800879055E+05,      /* I =  1 */
(PID.TID 0000.0001)                 1.403701524205398E+05,      /* I =  2 */
(PID.TID 0000.0001)                 1.716197227386011E+05,      /* I =  3 */
(PID.TID 0000.0001)      . . .
(PID.TID 0000.0001)                 1.950254041626018E+05,      /* I = 94 */
(PID.TID 0000.0001)                 1.716197227386011E+05,      /* I = 95 */
(PID.TID 0000.0001)                 1.403701524205398E+05,      /* I = 96 */
(PID.TID 0000.0001)                 3.011625828699101E+05,      /* I = 97 */
(PID.TID 0000.0001)                 3.013880313304323E+05,      /* I = 98 */
(PID.TID 0000.0001)                 3.020546438966793E+05,      /* I = 99 */
(PID.TID 0000.0001)      . . .
(PID.TID 0000.0001)                 3.031337933484788E+05,      /* I =190 */
(PID.TID 0000.0001)                 3.020546438966793E+05,      /* I =191 */
(PID.TID 0000.0001)                 3.013880313304323E+05,      /* I =192 */
(PID.TID 0000.0001)                 1.009837800879055E+05,      /* I =193 */
(PID.TID 0000.0001)                 1.403701524205398E+05,      /* I =194 */
(PID.TID 0000.0001)                 1.716197227386011E+05,      /* I =195 */
(PID.TID 0000.0001)      . . .
(PID.TID 0000.0001)                 1.950254041626018E+05,      /* I =286 */
(PID.TID 0000.0001)                 1.716197227386011E+05,      /* I =287 */
(PID.TID 0000.0001)                 1.403701524205398E+05,      /* I =288 */
(PID.TID 0000.0001)                 3.011625828699101E+05,      /* I =289 */
(PID.TID 0000.0001)                 3.013880313304323E+05,      /* I =290 */
(PID.TID 0000.0001)                 3.020546438966793E+05,      /* I =291 */
(PID.TID 0000.0001)      . . .
(PID.TID 0000.0001)                 3.031337933484788E+05,      /* I =382 */
(PID.TID 0000.0001)                 3.020546438966793E+05,      /* I =383 */
(PID.TID 0000.0001)                 3.013880313304323E+05       /* I =384 */
(PID.TID 0000.0001)     ;
(PID.TID 0000.0001) dyG =  /* dyG(1,:,1,:) ( units: m ) */
(PID.TID 0000.0001)                 1.009837800879055E+05,      /* J =  1 */
(PID.TID 0000.0001)                 1.534505834330338E+05,      /* J =  2 */
(PID.TID 0000.0001)                 1.823321598773926E+05,      /* J =  3 */
(PID.TID 0000.0001)                 2.038999045536999E+05,      /* J =  4 */
(PID.TID 0000.0001)                 2.213884732245467E+05,      /* J =  5 */
(PID.TID 0000.0001)                 2.361211699596122E+05,      /* J =  6 */
(PID.TID 0000.0001)                 2.487693460283865E+05,      /* J =  7 */
(PID.TID 0000.0001)                 2.597126963772147E+05,      /* J =  8 */
(PID.TID 0000.0001)                 2.691790288994575E+05,      /* J =  9 */
(PID.TID 0000.0001)                 2.773091043277394E+05,      /* J = 10 */
(PID.TID 0000.0001)                 2.841906470085516E+05,      /* J = 11 */
(PID.TID 0000.0001)                 2.898778860929753E+05,      /* J = 12 */
(PID.TID 0000.0001)                 2.944035815526416E+05,      /* J = 13 */
(PID.TID 0000.0001)                 2.977867909042096E+05,      /* J = 14 */
(PID.TID 0000.0001)                 3.000380090330854E+05,      /* J = 15 */
(PID.TID 0000.0001)                 3.011625828699101E+05       /* J = 16 */
(PID.TID 0000.0001)     ;
(PID.TID 0000.0001) dxC =  /* dxC(:,1,:,1) ( units: m ) */
(PID.TID 0000.0001)                 1.114203141013064E+05,      /* I =  1 */
(PID.TID 0000.0001)                 1.391343389937106E+05,      /* I =  2 */
(PID.TID 0000.0001)                 1.709574999026266E+05,      /* I =  3 */
(PID.TID 0000.0001)      . . .
(PID.TID 0000.0001)                 1.946503699269892E+05,      /* I = 94 */
(PID.TID 0000.0001)                 1.709574999026266E+05,      /* I = 95 */
(PID.TID 0000.0001)                 1.391343389937106E+05,      /* I = 96 */
(PID.TID 0000.0001)                 3.012281885409289E+05,      /* I = 97 */
(PID.TID 0000.0001)                 3.014528555318499E+05,      /* I = 98 */
(PID.TID 0000.0001)                 3.021172674809921E+05,      /* I = 99 */
(PID.TID 0000.0001)      . . .
(PID.TID 0000.0001)                 3.031928954490276E+05,      /* I =190 */
(PID.TID 0000.0001)                 3.021172674809921E+05,      /* I =191 */
(PID.TID 0000.0001)                 3.014528555318499E+05,      /* I =192 */
(PID.TID 0000.0001)                 1.114203141013064E+05,      /* I =193 */
(PID.TID 0000.0001)                 1.391343389937106E+05,      /* I =194 */
(PID.TID 0000.0001)                 1.709574999026266E+05,      /* I =195 */
(PID.TID 0000.0001)      . . .
(PID.TID 0000.0001)                 1.946503699269892E+05,      /* I =286 */
(PID.TID 0000.0001)                 1.709574999026266E+05,      /* I =287 */
(PID.TID 0000.0001)                 1.391343389937106E+05,      /* I =288 */
(PID.TID 0000.0001)                 3.012281885409289E+05,      /* I =289 */
(PID.TID 0000.0001)                 3.014528555318499E+05,      /* I =290 */
(PID.TID 0000.0001)                 3.021172674809921E+05,      /* I =291 */
(PID.TID 0000.0001)      . . .
(PID.TID 0000.0001)                 3.031928954490276E+05,      /* I =382 */
(PID.TID 0000.0001)                 3.021172674809921E+05,      /* I =383 */
(PID.TID 0000.0001)                 3.014528555318499E+05       /* I =384 */
(PID.TID 0000.0001)     ;
(PID.TID 0000.0001) dxC =  /* dxC(1,:,1,:) ( units: m ) */
(PID.TID 0000.0001)                 1.114203141013064E+05,      /* J =  1 */
(PID.TID 0000.0001)                 1.549545757850771E+05,      /* J =  2 */
(PID.TID 0000.0001)                 1.829777599966776E+05,      /* J =  3 */
(PID.TID 0000.0001)                 2.042717761866506E+05,      /* J =  4 */
(PID.TID 0000.0001)                 2.216367828252819E+05,      /* J =  5 */
(PID.TID 0000.0001)                 2.363029564123586E+05,      /* J =  6 */
(PID.TID 0000.0001)                 2.489113743322025E+05,      /* J =  7 */
(PID.TID 0000.0001)                 2.598293319150326E+05,      /* J =  8 */
(PID.TID 0000.0001)                 2.692787333338535E+05,      /* J =  9 */
(PID.TID 0000.0001)                 2.773972106720365E+05,      /* J = 10 */
(PID.TID 0000.0001)                 2.842706922224557E+05,      /* J = 11 */
(PID.TID 0000.0001)                 2.899523122489403E+05,      /* J = 12 */
(PID.TID 0000.0001)                 2.944741346384699E+05,      /* J = 13 */
(PID.TID 0000.0001)                 2.978547649292580E+05,      /* J = 14 */
(PID.TID 0000.0001)                 3.001044073506459E+05,      /* J = 15 */
(PID.TID 0000.0001)                 3.012281885409289E+05       /* J = 16 */
(PID.TID 0000.0001)     ;
(PID.TID 0000.0001) dyC =  /* dyC(:,1,:,1) ( units: m ) */
(PID.TID 0000.0001)                 1.114203141013064E+05,      /* I =  1 */
(PID.TID 0000.0001)                 1.549545757850771E+05,      /* I =  2 */
(PID.TID 0000.0001)                 1.829777599966776E+05,      /* I =  3 */
(PID.TID 0000.0001)      . . .
(PID.TID 0000.0001)                 1.829777599966776E+05,      /* I = 94 */
(PID.TID 0000.0001)                 1.549545757850771E+05,      /* I = 95 */
(PID.TID 0000.0001)                 1.114203141013064E+05,      /* I = 96 */
(PID.TID 0000.0001)                 3.013593857228136E+05,      /* I = 97 */
(PID.TID 0000.0001)                 3.018056440786431E+05,      /* I = 98 */
(PID.TID 0000.0001)                 3.026789946729719E+05,      /* I = 99 */
(PID.TID 0000.0001)      . . .
(PID.TID 0000.0001)                 3.026789946729719E+05,      /* I =190 */
(PID.TID 0000.0001)                 3.018056440786431E+05,      /* I =191 */
(PID.TID 0000.0001)                 3.013593857228136E+05,      /* I =192 */
(PID.TID 0000.0001)                 1.114203141013064E+05,      /* I =193 */
(PID.TID 0000.0001)                 1.549545757850771E+05,      /* I =194 */
(PID.TID 0000.0001)                 1.829777599966776E+05,      /* I =195 */
(PID.TID 0000.0001)      . . .
(PID.TID 0000.0001)                 1.829777599966776E+05,      /* I =286 */
(PID.TID 0000.0001)                 1.549545757850771E+05,      /* I =287 */
(PID.TID 0000.0001)                 1.114203141013064E+05,      /* I =288 */
(PID.TID 0000.0001)                 3.013593857228136E+05,      /* I =289 */
(PID.TID 0000.0001)                 3.018056440786431E+05,      /* I =290 */
(PID.TID 0000.0001)                 3.026789946729719E+05,      /* I =291 */
(PID.TID 0000.0001)      . . .
(PID.TID 0000.0001)                 3.026789946729719E+05,      /* I =382 */
(PID.TID 0000.0001)                 3.018056440786431E+05,      /* I =383 */
(PID.TID 0000.0001)                 3.013593857228136E+05       /* I =384 */
(PID.TID 0000.0001)     ;
(PID.TID 0000.0001) dyC =  /* dyC(1,:,1,:) ( units: m ) */
(PID.TID 0000.0001)                 1.114203141013064E+05,      /* J =  1 */
(PID.TID 0000.0001)                 1.391343389937106E+05,      /* J =  2 */
(PID.TID 0000.0001)                 1.709574999026266E+05,      /* J =  3 */
(PID.TID 0000.0001)                 1.946503699269892E+05,      /* J =  4 */
(PID.TID 0000.0001)                 2.135964483342134E+05,      /* J =  5 */
(PID.TID 0000.0001)                 2.294195678257306E+05,      /* J =  6 */
(PID.TID 0000.0001)                 2.429464709770498E+05,      /* J =  7 */
(PID.TID 0000.0001)                 2.546408290696998E+05,      /* J =  8 */
(PID.TID 0000.0001)                 2.647791839299727E+05,      /* J =  9 */
(PID.TID 0000.0001)                 2.735321911346108E+05,      /* J = 10 */
(PID.TID 0000.0001)                 2.810065951609633E+05,      /* J = 11 */
(PID.TID 0000.0001)                 2.872689479506990E+05,      /* J = 12 */
(PID.TID 0000.0001)                 2.923599955312932E+05,      /* J = 13 */
(PID.TID 0000.0001)                 2.963038832565530E+05,      /* J = 14 */
(PID.TID 0000.0001)                 2.991142470004740E+05,      /* J = 15 */
(PID.TID 0000.0001)                 3.007982711627968E+05       /* J = 16 */
(PID.TID 0000.0001)     ;
(PID.TID 0000.0001) dxV =  /* dxV(:,1,:,1) ( units: m ) */
(PID.TID 0000.0001)                 8.015229982413632E+04,      /* I =  1 */
(PID.TID 0000.0001)                 1.333130744933864E+05,      /* I =  2 */
(PID.TID 0000.0001)                 1.691744868129062E+05,      /* I =  3 */
(PID.TID 0000.0001)      . . .
(PID.TID 0000.0001)                 1.937548202849060E+05,      /* I = 94 */
(PID.TID 0000.0001)                 1.691744868129062E+05,      /* I = 95 */
(PID.TID 0000.0001)                 1.333130744933864E+05,      /* I = 96 */
(PID.TID 0000.0001)                 3.013686170436881E+05,      /* I = 97 */
(PID.TID 0000.0001)                 3.015922136961168E+05,      /* I = 98 */
(PID.TID 0000.0001)                 3.022533948177109E+05,      /* I = 99 */
(PID.TID 0000.0001)      . . .
(PID.TID 0000.0001)                 3.033238888442880E+05,      /* I =190 */
(PID.TID 0000.0001)                 3.022533948177109E+05,      /* I =191 */
(PID.TID 0000.0001)                 3.015922136961168E+05,      /* I =192 */
(PID.TID 0000.0001)                 8.015229982413632E+04,      /* I =193 */
(PID.TID 0000.0001)                 1.333130744933864E+05,      /* I =194 */
(PID.TID 0000.0001)                 1.691744868129062E+05,      /* I =195 */
(PID.TID 0000.0001)      . . .
(PID.TID 0000.0001)                 1.937548202849060E+05,      /* I =286 */
(PID.TID 0000.0001)                 1.691744868129062E+05,      /* I =287 */
(PID.TID 0000.0001)                 1.333130744933864E+05,      /* I =288 */
(PID.TID 0000.0001)                 3.013686170436881E+05,      /* I =289 */
(PID.TID 0000.0001)                 3.015922136961168E+05,      /* I =290 */
(PID.TID 0000.0001)                 3.022533948177109E+05,      /* I =291 */
(PID.TID 0000.0001)      . . .
(PID.TID 0000.0001)                 3.033238888442880E+05,      /* I =382 */
(PID.TID 0000.0001)                 3.022533948177109E+05,      /* I =383 */
(PID.TID 0000.0001)                 3.015922136961168E+05       /* I =384 */
(PID.TID 0000.0001)     ;
(PID.TID 0000.0001) dxV =  /* dxV(1,:,1,:) ( units: m ) */
(PID.TID 0000.0001)                 8.015229982413632E+04,      /* J =  1 */
(PID.TID 0000.0001)                 1.362652340208229E+05,      /* J =  2 */
(PID.TID 0000.0001)                 1.701080315742101E+05,      /* J =  3 */
(PID.TID 0000.0001)                 1.942331448101592E+05,      /* J =  4 */
(PID.TID 0000.0001)                 2.133486626971531E+05,      /* J =  5 */
(PID.TID 0000.0001)                 2.292584591272880E+05,      /* J =  6 */
(PID.TID 0000.0001)                 2.428369969078989E+05,      /* J =  7 */
(PID.TID 0000.0001)                 2.545652950875683E+05,      /* J =  8 */
(PID.TID 0000.0001)                 2.647274964828301E+05,      /* J =  9 */
(PID.TID 0000.0001)                 2.734980225206389E+05,      /* J = 10 */
(PID.TID 0000.0001)                 2.809856491525217E+05,      /* J = 11 */
(PID.TID 0000.0001)                 2.872580915202295E+05,      /* J = 12 */
(PID.TID 0000.0001)                 2.923567890694162E+05,      /* J = 13 */
(PID.TID 0000.0001)                 2.963063101754721E+05,      /* J = 14 */
(PID.TID 0000.0001)                 2.991205495886625E+05,      /* J = 15 */
(PID.TID 0000.0001)                 3.008068453676764E+05       /* J = 16 */
(PID.TID 0000.0001)     ;
(PID.TID 0000.0001) dyU =  /* dyU(:,1,:,1) ( units: m ) */
(PID.TID 0000.0001)                 8.015229982413632E+04,      /* I =  1 */
(PID.TID 0000.0001)                 1.362652340208229E+05,      /* I =  2 */
(PID.TID 0000.0001)                 1.701080315742101E+05,      /* I =  3 */
(PID.TID 0000.0001)      . . .
(PID.TID 0000.0001)                 1.942331448101592E+05,      /* I = 94 */
(PID.TID 0000.0001)                 1.701080315742101E+05,      /* I = 95 */
(PID.TID 0000.0001)                 1.362652340208229E+05,      /* I = 96 */
(PID.TID 0000.0001)                 3.013031486919771E+05,      /* I = 97 */
(PID.TID 0000.0001)                 3.015274890091515E+05,      /* I = 98 */
(PID.TID 0000.0001)                 3.021908563699420E+05,      /* I = 99 */
(PID.TID 0000.0001)      . . .
(PID.TID 0000.0001)                 3.032648502024415E+05,      /* I =190 */
(PID.TID 0000.0001)                 3.021908563699420E+05,      /* I =191 */
(PID.TID 0000.0001)                 3.015274890091515E+05,      /* I =192 */
(PID.TID 0000.0001)                 8.015229982413632E+04,      /* I =193 */
(PID.TID 0000.0001)                 1.362652340208229E+05,      /* I =194 */
(PID.TID 0000.0001)                 1.701080315742101E+05,      /* I =195 */
(PID.TID 0000.0001)      . . .
(PID.TID 0000.0001)                 1.942331448101592E+05,      /* I =286 */
(PID.TID 0000.0001)                 1.701080315742101E+05,      /* I =287 */
(PID.TID 0000.0001)                 1.362652340208229E+05,      /* I =288 */
(PID.TID 0000.0001)                 3.013031486919771E+05,      /* I =289 */
(PID.TID 0000.0001)                 3.015274890091515E+05,      /* I =290 */
(PID.TID 0000.0001)                 3.021908563699420E+05,      /* I =291 */
(PID.TID 0000.0001)      . . .
(PID.TID 0000.0001)                 3.032648502024415E+05,      /* I =382 */
(PID.TID 0000.0001)                 3.021908563699420E+05,      /* I =383 */
(PID.TID 0000.0001)                 3.015274890091515E+05       /* I =384 */
(PID.TID 0000.0001)     ;
(PID.TID 0000.0001) dyU =  /* dyU(1,:,1,:) ( units: m ) */
(PID.TID 0000.0001)                 8.015229982413632E+04,      /* J =  1 */
(PID.TID 0000.0001)                 1.333130744933864E+05,      /* J =  2 */
(PID.TID 0000.0001)                 1.691744868129062E+05,      /* J =  3 */
(PID.TID 0000.0001)                 1.937548202849060E+05,      /* J =  4 */
(PID.TID 0000.0001)                 2.130490056267208E+05,      /* J =  5 */
(PID.TID 0000.0001)                 2.290479919481738E+05,      /* J =  6 */
(PID.TID 0000.0001)                 2.426774358027003E+05,      /* J =  7 */
(PID.TID 0000.0001)                 2.544372984215561E+05,      /* J =  8 */
(PID.TID 0000.0001)                 2.646201463834826E+05,      /* J =  9 */
(PID.TID 0000.0001)                 2.734046499619031E+05,      /* J = 10 */
(PID.TID 0000.0001)                 2.809019351693761E+05,      /* J = 11 */
(PID.TID 0000.0001)                 2.871811105274442E+05,      /* J = 12 */
(PID.TID 0000.0001)                 2.922844849381675E+05,      /* J = 13 */
(PID.TID 0000.0001)                 2.962371870847826E+05,      /* J = 14 */
(PID.TID 0000.0001)                 2.990534755671296E+05,      /* J = 15 */
(PID.TID 0000.0001)                 3.007409169495504E+05       /* J = 16 */
(PID.TID 0000.0001)     ;
(PID.TID 0000.0001) rA  =  /* rA (:,1,:,1) ( units: m^2 ) */
(PID.TID 0000.0001)                 1.401900702255611E+10,      /* I =  1 */
(PID.TID 0000.0001)                 2.459906945574446E+10,      /* I =  2 */
(PID.TID 0000.0001)                 3.378518544307869E+10,      /* I =  3 */
(PID.TID 0000.0001)      . . .
(PID.TID 0000.0001)                 3.378518544304265E+10,      /* I = 94 */
(PID.TID 0000.0001)                 2.459906945574446E+10,      /* I = 95 */
(PID.TID 0000.0001)                 1.401900702259215E+10,      /* I = 96 */
(PID.TID 0000.0001)                 9.076111290422060E+10,      /* I = 97 */
(PID.TID 0000.0001)                 9.103111035233499E+10,      /* I = 98 */
(PID.TID 0000.0001)                 9.156064070993231E+10,      /* I = 99 */
(PID.TID 0000.0001)      . . .
(PID.TID 0000.0001)                 9.156064070993231E+10,      /* I =190 */
(PID.TID 0000.0001)                 9.103111035233499E+10,      /* I =191 */
(PID.TID 0000.0001)                 9.076111290418457E+10,      /* I =192 */
(PID.TID 0000.0001)                 1.401900702255611E+10,      /* I =193 */
(PID.TID 0000.0001)                 2.459906945574446E+10,      /* I =194 */
(PID.TID 0000.0001)                 3.378518544307869E+10,      /* I =195 */
(PID.TID 0000.0001)      . . .
(PID.TID 0000.0001)                 3.378518544304265E+10,      /* I =286 */
(PID.TID 0000.0001)                 2.459906945574446E+10,      /* I =287 */
(PID.TID 0000.0001)                 1.401900702259215E+10,      /* I =288 */
(PID.TID 0000.0001)                 9.076111290422060E+10,      /* I =289 */
(PID.TID 0000.0001)                 9.103111035233499E+10,      /* I =290 */
(PID.TID 0000.0001)                 9.156064070993231E+10,      /* I =291 */
(PID.TID 0000.0001)      . . .
(PID.TID 0000.0001)                 9.156064070993231E+10,      /* I =382 */
(PID.TID 0000.0001)                 9.103111035233499E+10,      /* I =383 */
(PID.TID 0000.0001)                 9.076111290418457E+10       /* I =384 */
(PID.TID 0000.0001)     ;
(PID.TID 0000.0001) rA  =  /* rA (1,:,1,:) ( units: m^2 ) */
(PID.TID 0000.0001)                 1.401900702255611E+10,      /* J =  1 */
(PID.TID 0000.0001)                 2.459906945574446E+10,      /* J =  2 */
(PID.TID 0000.0001)                 3.378518544307869E+10,      /* J =  3 */
(PID.TID 0000.0001)                 4.192037169898667E+10,      /* J =  4 */
(PID.TID 0000.0001)                 4.925938996118163E+10,      /* J =  5 */
(PID.TID 0000.0001)                 5.594154126607553E+10,      /* J =  6 */
(PID.TID 0000.0001)                 6.203683527776127E+10,      /* J =  7 */
(PID.TID 0000.0001)                 6.757541173817516E+10,      /* J =  8 */
(PID.TID 0000.0001)                 7.256353271748119E+10,      /* J =  9 */
(PID.TID 0000.0001)                 7.699293007098555E+10,      /* J = 10 */
(PID.TID 0000.0001)                 8.084683449728902E+10,      /* J = 11 */
(PID.TID 0000.0001)                 8.410423102799828E+10,      /* J = 12 */
(PID.TID 0000.0001)                 8.674306976737517E+10,      /* J = 13 */
(PID.TID 0000.0001)                 8.874277443041928E+10,      /* J = 14 */
(PID.TID 0000.0001)                 9.008620045350865E+10,      /* J = 15 */
(PID.TID 0000.0001)                 9.076111290418457E+10       /* J = 16 */
(PID.TID 0000.0001)     ;
(PID.TID 0000.0001) rAw =  /* rAw(:,1,:,1) ( units: m^2 ) */
(PID.TID 0000.0001)                 1.216690346714270E+10,      /* I =  1 */
(PID.TID 0000.0001)                 1.974052138506315E+10,      /* I =  2 */
(PID.TID 0000.0001)                 2.943712825252015E+10,      /* I =  3 */
(PID.TID 0000.0001)      . . .
(PID.TID 0000.0001)                 3.801790263325260E+10,      /* I = 94 */
(PID.TID 0000.0001)                 2.943712825251114E+10,      /* I = 95 */
(PID.TID 0000.0001)                 1.974052138509018E+10,      /* I = 96 */
(PID.TID 0000.0001)                 9.071447638299399E+10,      /* I = 97 */
(PID.TID 0000.0001)                 9.085012105610597E+10,      /* I = 98 */
(PID.TID 0000.0001)                 9.125179254955583E+10,      /* I = 99 */
(PID.TID 0000.0001)      . . .
(PID.TID 0000.0001)                 9.190392048045309E+10,      /* I =190 */
(PID.TID 0000.0001)                 9.125179254954683E+10,      /* I =191 */
(PID.TID 0000.0001)                 9.085012105606993E+10,      /* I =192 */
(PID.TID 0000.0001)                 1.216690346714270E+10,      /* I =193 */
(PID.TID 0000.0001)                 1.974052138506315E+10,      /* I =194 */
(PID.TID 0000.0001)                 2.943712825252015E+10,      /* I =195 */
(PID.TID 0000.0001)      . . .
(PID.TID 0000.0001)                 3.801790263325260E+10,      /* I =286 */
(PID.TID 0000.0001)                 2.943712825251114E+10,      /* I =287 */
(PID.TID 0000.0001)                 1.974052138509018E+10,      /* I =288 */
(PID.TID 0000.0001)                 9.071447638299399E+10,      /* I =289 */
(PID.TID 0000.0001)                 9.085012105610597E+10,      /* I =290 */
(PID.TID 0000.0001)                 9.125179254955583E+10,      /* I =291 */
(PID.TID 0000.0001)      . . .
(PID.TID 0000.0001)                 9.190392048045309E+10,      /* I =382 */
(PID.TID 0000.0001)                 9.125179254954683E+10,      /* I =383 */
(PID.TID 0000.0001)                 9.085012105606993E+10       /* I =384 */
(PID.TID 0000.0001)     ;
(PID.TID 0000.0001) rAw =  /* rAw(1,:,1,:) ( units: m^2 ) */
(PID.TID 0000.0001)                 1.216690346714270E+10,      /* J =  1 */
(PID.TID 0000.0001)                 2.390126200743558E+10,      /* J =  2 */
(PID.TID 0000.0001)                 3.341968103208270E+10,      /* J =  3 */
(PID.TID 0000.0001)                 4.168532893152940E+10,      /* J =  4 */
(PID.TID 0000.0001)                 4.909074590409593E+10,      /* J =  5 */
(PID.TID 0000.0001)                 5.581203765722643E+10,      /* J =  6 */
(PID.TID 0000.0001)                 6.193257577506788E+10,      /* J =  7 */
(PID.TID 0000.0001)                 6.748840226738273E+10,      /* J =  8 */
(PID.TID 0000.0001)                 7.248875782324815E+10,      /* J =  9 */
(PID.TID 0000.0001)                 7.692702995909871E+10,      /* J = 10 */
(PID.TID 0000.0001)                 8.078743937057304E+10,      /* J = 11 */
(PID.TID 0000.0001)                 8.404959656062837E+10,      /* J = 12 */
(PID.TID 0000.0001)                 8.669186205742538E+10,      /* J = 13 */
(PID.TID 0000.0001)                 8.869393350723613E+10,      /* J = 14 */
(PID.TID 0000.0001)                 9.003884657168852E+10,      /* J = 15 */
(PID.TID 0000.0001)                 9.071447638299399E+10       /* J = 16 */
(PID.TID 0000.0001)     ;
(PID.TID 0000.0001) rAs =  /* rAs(:,1,:,1) ( units: m^2 ) */
(PID.TID 0000.0001)                 1.216690346714270E+10,      /* I =  1 */
(PID.TID 0000.0001)                 2.390126200743558E+10,      /* I =  2 */
(PID.TID 0000.0001)                 3.341968103208270E+10,      /* I =  3 */
(PID.TID 0000.0001)      . . .
(PID.TID 0000.0001)                 3.341968103208270E+10,      /* I = 94 */
(PID.TID 0000.0001)                 2.390126200743558E+10,      /* I = 95 */
(PID.TID 0000.0001)                 1.216690346714270E+10,      /* I = 96 */
(PID.TID 0000.0001)                 9.083293515008307E+10,      /* I = 97 */
(PID.TID 0000.0001)                 9.110170898494536E+10,      /* I = 98 */
(PID.TID 0000.0001)                 9.162886297688426E+10,      /* I = 99 */
(PID.TID 0000.0001)      . . .
(PID.TID 0000.0001)                 9.162886297688426E+10,      /* I =190 */
(PID.TID 0000.0001)                 9.110170898494536E+10,      /* I =191 */
(PID.TID 0000.0001)                 9.083293515008307E+10,      /* I =192 */
(PID.TID 0000.0001)                 1.216690346714270E+10,      /* I =193 */
(PID.TID 0000.0001)                 2.390126200743558E+10,      /* I =194 */
(PID.TID 0000.0001)                 3.341968103208270E+10,      /* I =195 */
(PID.TID 0000.0001)      . . .
(PID.TID 0000.0001)                 3.341968103208270E+10,      /* I =286 */
(PID.TID 0000.0001)                 2.390126200743558E+10,      /* I =287 */
(PID.TID 0000.0001)                 1.216690346714270E+10,      /* I =288 */
(PID.TID 0000.0001)                 9.083293515008307E+10,      /* I =289 */
(PID.TID 0000.0001)                 9.110170898494536E+10,      /* I =290 */
(PID.TID 0000.0001)                 9.162886297688426E+10,      /* I =291 */
(PID.TID 0000.0001)      . . .
(PID.TID 0000.0001)                 9.162886297688426E+10,      /* I =382 */
(PID.TID 0000.0001)                 9.110170898494536E+10,      /* I =383 */
(PID.TID 0000.0001)                 9.083293515008307E+10       /* I =384 */
(PID.TID 0000.0001)     ;
(PID.TID 0000.0001) rAs =  /* rAs(1,:,1,:) ( units: m^2 ) */
(PID.TID 0000.0001)                 1.216690346714270E+10,      /* J =  1 */
(PID.TID 0000.0001)                 1.974052138506315E+10,      /* J =  2 */
(PID.TID 0000.0001)                 2.943712825252015E+10,      /* J =  3 */
(PID.TID 0000.0001)                 3.801790263324359E+10,      /* J =  4 */
(PID.TID 0000.0001)                 4.571243814189866E+10,      /* J =  5 */
(PID.TID 0000.0001)                 5.269930713599979E+10,      /* J =  6 */
(PID.TID 0000.0001)                 5.907428494299063E+10,      /* J =  7 */
(PID.TID 0000.0001)                 6.488320895111514E+10,      /* J =  8 */
(PID.TID 0000.0001)                 7.014205907741882E+10,      /* J =  9 */
(PID.TID 0000.0001)                 7.484854821847499E+10,      /* J = 10 */
(PID.TID 0000.0001)                 7.898934631431560E+10,      /* J = 11 */
(PID.TID 0000.0001)                 8.254500894894537E+10,      /* J = 12 */
(PID.TID 0000.0001)                 8.549360686473492E+10,      /* J = 13 */
(PID.TID 0000.0001)                 8.781353403175085E+10,      /* J = 14 */
(PID.TID 0000.0001)                 8.948571540392021E+10,      /* J = 15 */
(PID.TID 0000.0001)                 9.049530583086168E+10       /* J = 16 */
(PID.TID 0000.0001)     ;
(PID.TID 0000.0001) globalArea = /* Integrated horizontal Area (m^2) */
(PID.TID 0000.0001)                 3.638867375081599E+14
(PID.TID 0000.0001)     ;
(PID.TID 0000.0001) hasWetCSCorners = /* Domain contains CS corners (True/False) */
(PID.TID 0000.0001)                   T
(PID.TID 0000.0001)     ;
(PID.TID 0000.0001) // =======================================================
(PID.TID 0000.0001) // End of Model config. summary
(PID.TID 0000.0001) // =======================================================
(PID.TID 0000.0001) 
(PID.TID 0000.0001) == Packages configuration : Check & print summary ==
(PID.TID 0000.0001) 
(PID.TID 0000.0001) GMREDI_CHECK: #define GMREDI
(PID.TID 0000.0001) GM_AdvForm =     /* if FALSE => use SkewFlux Form */
(PID.TID 0000.0001)                   F
(PID.TID 0000.0001)     ;
(PID.TID 0000.0001) GM_InMomAsStress = /* if TRUE => apply as Eddy Stress */
(PID.TID 0000.0001)                   F
(PID.TID 0000.0001)     ;
(PID.TID 0000.0001) GM_AdvSeparate = /* Calc Bolus & Euler Adv. separately */
(PID.TID 0000.0001)                   F
(PID.TID 0000.0001)     ;
(PID.TID 0000.0001) GM_ExtraDiag =   /* Tensor Extra Diag (line 1&2) non 0 */
(PID.TID 0000.0001)                   F
(PID.TID 0000.0001)     ;
(PID.TID 0000.0001) GM_isopycK =    /* Background Isopyc. Diffusivity [m^2/s] */
(PID.TID 0000.0001)                 1.000000000000000E+03
(PID.TID 0000.0001)     ;
(PID.TID 0000.0001) GM_skewflx*K =  /* Background GM_SkewFlx Diffusivity [m^2/s] */
(PID.TID 0000.0001)                 1.000000000000000E+03
(PID.TID 0000.0001)     ;
(PID.TID 0000.0001) GM_advec*K =    /* Backg. GM-Advec(=Bolus) Diffusivity [m^2/s]*/
(PID.TID 0000.0001)                 0.000000000000000E+00
(PID.TID 0000.0001)     ;
(PID.TID 0000.0001) GM_Kmin_horiz = /* Minimum Horizontal Diffusivity [m^2/s] */
(PID.TID 0000.0001)                 5.000000000000000E+01
(PID.TID 0000.0001)     ;
(PID.TID 0000.0001) GM_Visbeck_alpha = /* Visbeck alpha coeff. [-] */
(PID.TID 0000.0001)                 0.000000000000000E+00
(PID.TID 0000.0001)     ;
(PID.TID 0000.0001) GM_Small_Number =  /* epsilon used in slope calc */
(PID.TID 0000.0001)                 9.999999999999999E-21
(PID.TID 0000.0001)     ;
(PID.TID 0000.0001) GM_slopeSqCutoff = /* Slope^2 cut-off value */
(PID.TID 0000.0001)                 1.000000000000000E+08
(PID.TID 0000.0001)     ;
(PID.TID 0000.0001) GM_taper_scheme =  /* Type of Tapering/Clipping scheme */
(PID.TID 0000.0001)               'dm95                                    '
(PID.TID 0000.0001)     ;
(PID.TID 0000.0001) GM_maxSlope =  /* Maximum Slope (Tapering/Clipping) */
(PID.TID 0000.0001)                 1.000000000000000E-02
(PID.TID 0000.0001)     ;
(PID.TID 0000.0001) GM_facTrL2dz = /* Minimum Trans.Layer Thick. (factor of dz) */
(PID.TID 0000.0001)                 1.000000000000000E+00
(PID.TID 0000.0001)     ;
(PID.TID 0000.0001) GM_facTrL2ML = /* Max.Trans.Layer Thick. (factor of MxL Depth)*/
(PID.TID 0000.0001)                 5.000000000000000E+00
(PID.TID 0000.0001)     ;
(PID.TID 0000.0001) GM_maxTransLay = /* Maximum Transition Layer Thickness [m] */
(PID.TID 0000.0001)                 5.000000000000000E+02
(PID.TID 0000.0001)     ;
(PID.TID 0000.0001) GM_UseBVP = /* if TRUE => use bvp a la Ferrari et al. (2010) */
(PID.TID 0000.0001)                   F
(PID.TID 0000.0001)     ;
(PID.TID 0000.0001) GM_BVP_ModeNumber = /* Vertical mode number for BVP wave speed */
(PID.TID 0000.0001)                       1
(PID.TID 0000.0001)     ;
(PID.TID 0000.0001) GM_BVP_cMin = /* Minimum wave speed for BVP [m/s] */
(PID.TID 0000.0001)                 1.000000000000000E-01
(PID.TID 0000.0001)     ;
(PID.TID 0000.0001) GM_useSubMeso = /* if TRUE => use Sub-Meso param. (B.Fox-Kemper) */
(PID.TID 0000.0001)                   F
(PID.TID 0000.0001)     ;
(PID.TID 0000.0001) subMeso_Ceff = /* efficiency coeff. of Mixed-Layer Eddies [-] */
(PID.TID 0000.0001)                 7.000000000000001E-02
(PID.TID 0000.0001)     ;
(PID.TID 0000.0001) subMeso_invTau = /* inverse of Sub-Meso mixing time-scale [/s] */
(PID.TID 0000.0001)                 2.000000000000000E-06
(PID.TID 0000.0001)     ;
(PID.TID 0000.0001) subMeso_LfMin = /* minimum length-scale "Lf" [m] */
(PID.TID 0000.0001)                 1.000000000000000E+03
(PID.TID 0000.0001)     ;
(PID.TID 0000.0001) subMeso_Lmax = /* maximum grid-scale length [m] */
(PID.TID 0000.0001)                 1.100000000000000E+05
(PID.TID 0000.0001)     ;
(PID.TID 0000.0001) GM_useLeithQG = /* if TRUE => add QG Leith viscosity to GMRedi tensor */
(PID.TID 0000.0001)                   F
(PID.TID 0000.0001)     ;
(PID.TID 0000.0001) CTRL_CHECK: #define ALLOW_CTRL
(PID.TID 0000.0001) COST_CHECK: #define ALLOW_COST
(PID.TID 0000.0001) GRDCHK_CHECK: grdchk package
(PID.TID 0000.0001) GAD_CHECK: #define ALLOW_GENERIC_ADVDIFF
(PID.TID 0000.0001) // =======================================================
(PID.TID 0000.0001) // Check Model config. (CONFIG_CHECK):
(PID.TID 0000.0001) // CONFIG_CHECK : Normal End
(PID.TID 0000.0001) // =======================================================
(PID.TID 0000.0001) 
(PID.TID 0000.0001)  nRecords = 123 ; filePrec =  64 ; fileIter =     72000
(PID.TID 0000.0001)     nDims =   2 , dims:
(PID.TID 0000.0001)    1: 192   1 192
(PID.TID 0000.0001)    2:  32   1  32
(PID.TID 0000.0001)     nFlds =  11 , nFl3D =   8 , fields:
(PID.TID 0000.0001)  >Uvel    < >GuNm1   < >Vvel    < >GvNm1   < >Theta   < >GtNm1   < >Salt    < >GsNm1   < >EtaN    < >dEtaHdt < >EtaH    <
(PID.TID 0000.0001) missingVal=  1.00000000000000E+00 ; nTimRec =   0 , timeList:
(PID.TID 0000.0001) READ_MFLDS_3D_RL: read field: "Uvel    ", #   1 in fldList, rec=   1
(PID.TID 0000.0001) READ_MFLDS_3D_RL: read field: "Vvel    ", #   3 in fldList, rec=   3
(PID.TID 0000.0001) READ_MFLDS_3D_RL: read field: "Theta   ", #   5 in fldList, rec=   5
(PID.TID 0000.0001) READ_MFLDS_3D_RL: read field: "Salt    ", #   7 in fldList, rec=   7
(PID.TID 0000.0001) READ_MFLDS_3D_RL: read field: "GuNm1   ", #   2 in fldList, rec=   2
(PID.TID 0000.0001) READ_MFLDS_3D_RL: field: "GuNm2   " missing in file: pickup.0000072000
(PID.TID 0000.0001) READ_MFLDS_3D_RL: read field: "GvNm1   ", #   4 in fldList, rec=   4
(PID.TID 0000.0001) READ_MFLDS_3D_RL: field: "GvNm2   " missing in file: pickup.0000072000
(PID.TID 0000.0001) READ_MFLDS_3D_RL: read field: "EtaN    ", #   9 in fldList, rec= 121
(PID.TID 0000.0001) READ_MFLDS_3D_RL: read field: "dEtaHdt ", #  10 in fldList, rec= 122
(PID.TID 0000.0001) READ_MFLDS_3D_RL: read field: "EtaH    ", #  11 in fldList, rec= 123
(PID.TID 0000.0001) // =======================================================
(PID.TID 0000.0001) // Begin MONITOR dynamic field statistics
(PID.TID 0000.0001) // =======================================================
(PID.TID 0000.0001) %MON time_tsnumber                =                 72000
(PID.TID 0000.0001) %MON time_secondsf                =   6.2208000000000E+09
(PID.TID 0000.0001) %MON dynstat_eta_max              =   9.2249308874653E-01
(PID.TID 0000.0001) %MON dynstat_eta_min              =  -1.6181619580030E+00
(PID.TID 0000.0001) %MON dynstat_eta_mean             =   1.4386344596806E-14
(PID.TID 0000.0001) %MON dynstat_eta_sd               =   5.9907976973986E-01
(PID.TID 0000.0001) %MON dynstat_eta_del2             =   7.8581345364806E-04
(PID.TID 0000.0001) %MON dynstat_uvel_max             =   1.8639442347386E-01
(PID.TID 0000.0001) %MON dynstat_uvel_min             =  -2.8803502100767E-01
(PID.TID 0000.0001) %MON dynstat_uvel_mean            =  -4.8914430325890E-04
(PID.TID 0000.0001) %MON dynstat_uvel_sd              =   1.2021379389426E-02
(PID.TID 0000.0001) %MON dynstat_uvel_del2            =   5.1214215649781E-05
(PID.TID 0000.0001) %MON dynstat_vvel_max             =   1.7346247050018E-01
(PID.TID 0000.0001) %MON dynstat_vvel_min             =  -2.2519444280963E-01
(PID.TID 0000.0001) %MON dynstat_vvel_mean            =  -4.0398186384005E-04
(PID.TID 0000.0001) %MON dynstat_vvel_sd              =   1.2638380334010E-02
(PID.TID 0000.0001) %MON dynstat_vvel_del2            =   5.0639130168720E-05
(PID.TID 0000.0001) %MON dynstat_wvel_max             =   1.0315419012187E-04
(PID.TID 0000.0001) %MON dynstat_wvel_min             =  -2.0412353696425E-04
(PID.TID 0000.0001) %MON dynstat_wvel_mean            =  -7.5426404424407E-23
(PID.TID 0000.0001) %MON dynstat_wvel_sd              =   3.8379860233396E-06
(PID.TID 0000.0001) %MON dynstat_wvel_del2            =   2.6456681169339E-08
(PID.TID 0000.0001) %MON dynstat_theta_max            =   3.0925958904704E+01
(PID.TID 0000.0001) %MON dynstat_theta_min            =  -2.0000000000000E+00
(PID.TID 0000.0001) %MON dynstat_theta_mean           =   3.9091312053343E+00
(PID.TID 0000.0001) %MON dynstat_theta_sd             =   4.5711433204032E+00
(PID.TID 0000.0001) %MON dynstat_theta_del2           =   2.6589242567180E-03
(PID.TID 0000.0001) %MON dynstat_salt_max             =   4.1386265990462E+01
(PID.TID 0000.0001) %MON dynstat_salt_min             =   1.8383410676806E+01
(PID.TID 0000.0001) %MON dynstat_salt_mean            =   3.4772068623474E+01
(PID.TID 0000.0001) %MON dynstat_salt_sd              =   5.3145226117181E-01
(PID.TID 0000.0001) %MON dynstat_salt_del2            =   8.0693627005697E-04
(PID.TID 0000.0001) %MON forcing_qnet_max             =   4.6211611868841E+02
(PID.TID 0000.0001) %MON forcing_qnet_min             =  -2.0410376912710E+02
(PID.TID 0000.0001) %MON forcing_qnet_mean            =  -1.2329247921290E+01
(PID.TID 0000.0001) %MON forcing_qnet_sd              =   1.1327998988989E+02
(PID.TID 0000.0001) %MON forcing_qnet_del2            =   4.4323506322358E-01
(PID.TID 0000.0001) %MON forcing_qsw_max              =   0.0000000000000E+00
(PID.TID 0000.0001) %MON forcing_qsw_min              =   0.0000000000000E+00
(PID.TID 0000.0001) %MON forcing_qsw_mean             =   0.0000000000000E+00
(PID.TID 0000.0001) %MON forcing_qsw_sd               =   0.0000000000000E+00
(PID.TID 0000.0001) %MON forcing_qsw_del2             =   0.0000000000000E+00
(PID.TID 0000.0001) %MON forcing_empmr_max            =   0.0000000000000E+00
(PID.TID 0000.0001) %MON forcing_empmr_min            =   0.0000000000000E+00
(PID.TID 0000.0001) %MON forcing_empmr_mean           =   0.0000000000000E+00
(PID.TID 0000.0001) %MON forcing_empmr_sd             =   0.0000000000000E+00
(PID.TID 0000.0001) %MON forcing_empmr_del2           =   0.0000000000000E+00
(PID.TID 0000.0001) %MON forcing_fu_max               =   2.4892781143428E-01
(PID.TID 0000.0001) %MON forcing_fu_min               =  -2.5159107438040E-01
(PID.TID 0000.0001) %MON forcing_fu_mean              =  -3.8956966288612E-03
(PID.TID 0000.0001) %MON forcing_fu_sd                =   6.5480383395885E-02
(PID.TID 0000.0001) %MON forcing_fu_del2              =   2.3114393556995E-04
(PID.TID 0000.0001) %MON forcing_fv_max               =   2.9305960402537E-01
(PID.TID 0000.0001) %MON forcing_fv_min               =  -3.3950131228473E-01
(PID.TID 0000.0001) %MON forcing_fv_mean              =  -1.3743384707768E-02
(PID.TID 0000.0001) %MON forcing_fv_sd                =   7.6816469815204E-02
(PID.TID 0000.0001) %MON forcing_fv_del2              =   2.5671701728584E-04
(PID.TID 0000.0001) %MON trAdv_CFL_u_max              =   0.0000000000000E+00
(PID.TID 0000.0001) %MON trAdv_CFL_v_max              =   0.0000000000000E+00
(PID.TID 0000.0001) %MON trAdv_CFL_w_max              =   0.0000000000000E+00
(PID.TID 0000.0001) %MON advcfl_uvel_max              =   8.1692195603793E-02
(PID.TID 0000.0001) %MON advcfl_vvel_max              =   7.5609847114589E-02
(PID.TID 0000.0001) %MON advcfl_wvel_max              =   6.6551975825327E-02
(PID.TID 0000.0001) %MON advcfl_W_hf_max              =   7.3511900279873E-02
(PID.TID 0000.0001) %MON pe_b_mean                    =   4.7811655460464E-04
(PID.TID 0000.0001) %MON ke_max                       =   4.0700637549387E-02
(PID.TID 0000.0001) %MON ke_mean                      =   1.4067882101803E-04
(PID.TID 0000.0001) %MON ke_vol                       =   1.3398024453628E+18
(PID.TID 0000.0001) %MON vort_r_min                   =  -1.1843904755479E-06
(PID.TID 0000.0001) %MON vort_r_max                   =   1.2148454936551E-06
(PID.TID 0000.0001) %MON vort_a_mean                  =  -2.0549865324846E-05
(PID.TID 0000.0001) %MON vort_a_sd                    =   7.5259517155846E-05
(PID.TID 0000.0001) %MON vort_p_mean                  =  -2.4783469227166E-05
(PID.TID 0000.0001) %MON vort_p_sd                    =   1.2812074522595E-04
(PID.TID 0000.0001) %MON surfExpan_theta_mean         =   3.3855955095236E-08
(PID.TID 0000.0001) %MON surfExpan_salt_mean          =   1.3163665490081E-08
(PID.TID 0000.0001) // =======================================================
(PID.TID 0000.0001) // End MONITOR dynamic field statistics
(PID.TID 0000.0001) // =======================================================
(PID.TID 0000.0001) whio : write lev 3 rec   1
 EXTERNAL_FIELDS_LOAD, it=     72000 : Reading new data, i0,i1=   12    1 (prev=   12    0 )
(PID.TID 0000.0001) SOLVE_FOR_PRESSURE: putPmEinXvector =    F
 cg2d: Sum(rhs),rhsMax =  -9.91917659121100E-12  4.28293538309627E+00
(PID.TID 0000.0001)      cg2d_init_res =   1.68024000933133E-01
(PID.TID 0000.0001)      cg2d_iters(min,last) =      -1      64
(PID.TID 0000.0001)      cg2d_last_res =   5.58681034433326E-07
(PID.TID 0000.0001) // =======================================================
(PID.TID 0000.0001) // Begin MONITOR dynamic field statistics
(PID.TID 0000.0001) // =======================================================
(PID.TID 0000.0001) %MON time_tsnumber                =                 72001
(PID.TID 0000.0001) %MON time_secondsf                =   6.2208864000000E+09
(PID.TID 0000.0001) %MON dynstat_eta_max              =   9.2133655179734E-01
(PID.TID 0000.0001) %MON dynstat_eta_min              =  -1.6190330462967E+00
(PID.TID 0000.0001) %MON dynstat_eta_mean             =   1.4372604057554E-14
(PID.TID 0000.0001) %MON dynstat_eta_sd               =   5.9917645584001E-01
(PID.TID 0000.0001) %MON dynstat_eta_del2             =   7.8642723419465E-04
(PID.TID 0000.0001) %MON dynstat_uvel_max             =   1.8614969330889E-01
(PID.TID 0000.0001) %MON dynstat_uvel_min             =  -2.8756254452758E-01
(PID.TID 0000.0001) %MON dynstat_uvel_mean            =  -4.8930782402102E-04
(PID.TID 0000.0001) %MON dynstat_uvel_sd              =   1.2019850618017E-02
(PID.TID 0000.0001) %MON dynstat_uvel_del2            =   5.1422827020158E-05
(PID.TID 0000.0001) %MON dynstat_vvel_max             =   1.7424331242050E-01
(PID.TID 0000.0001) %MON dynstat_vvel_min             =  -2.2484858992307E-01
(PID.TID 0000.0001) %MON dynstat_vvel_mean            =  -4.0148994194182E-04
(PID.TID 0000.0001) %MON dynstat_vvel_sd              =   1.2634847270860E-02
(PID.TID 0000.0001) %MON dynstat_vvel_del2            =   5.0838535476287E-05
(PID.TID 0000.0001) %MON dynstat_wvel_max             =   1.0470225654133E-04
(PID.TID 0000.0001) %MON dynstat_wvel_min             =  -2.0629060425213E-04
(PID.TID 0000.0001) %MON dynstat_wvel_mean            =  -3.1589130159319E-11
(PID.TID 0000.0001) %MON dynstat_wvel_sd              =   3.8549171144362E-06
(PID.TID 0000.0001) %MON dynstat_wvel_del2            =   2.6740462761267E-08
(PID.TID 0000.0001) %MON dynstat_theta_max            =   3.0937492864880E+01
(PID.TID 0000.0001) %MON dynstat_theta_min            =  -2.0051002116090E+00
(PID.TID 0000.0001) %MON dynstat_theta_mean           =   3.9091886517346E+00
(PID.TID 0000.0001) %MON dynstat_theta_sd             =   4.5710983067977E+00
(PID.TID 0000.0001) %MON dynstat_theta_del2           =   2.6413868811489E-03
(PID.TID 0000.0001) %MON dynstat_salt_max             =   4.1386656529534E+01
(PID.TID 0000.0001) %MON dynstat_salt_min             =   1.8383740720343E+01
(PID.TID 0000.0001) %MON dynstat_salt_mean            =   3.4772069023557E+01
(PID.TID 0000.0001) %MON dynstat_salt_sd              =   5.3143476611263E-01
(PID.TID 0000.0001) %MON dynstat_salt_del2            =   8.0251565834113E-04
(PID.TID 0000.0001) %MON forcing_qnet_max             =   4.5344826813507E+02
(PID.TID 0000.0001) %MON forcing_qnet_min             =  -2.1502574251756E+02
(PID.TID 0000.0001) %MON forcing_qnet_mean            =  -1.2145822391644E+01
(PID.TID 0000.0001) %MON forcing_qnet_sd              =   1.1565376981455E+02
(PID.TID 0000.0001) %MON forcing_qnet_del2            =   4.1640148928199E-01
(PID.TID 0000.0001) %MON forcing_qsw_max              =   0.0000000000000E+00
(PID.TID 0000.0001) %MON forcing_qsw_min              =   0.0000000000000E+00
(PID.TID 0000.0001) %MON forcing_qsw_mean             =   0.0000000000000E+00
(PID.TID 0000.0001) %MON forcing_qsw_sd               =   0.0000000000000E+00
(PID.TID 0000.0001) %MON forcing_qsw_del2             =   0.0000000000000E+00
(PID.TID 0000.0001) %MON forcing_empmr_max            =   7.6494447208479E-05
(PID.TID 0000.0001) %MON forcing_empmr_min            =  -1.5362614137596E-04
(PID.TID 0000.0001) %MON forcing_empmr_mean           =  -2.7256318706594E-21
(PID.TID 0000.0001) %MON forcing_empmr_sd             =   2.4051723601802E-05
(PID.TID 0000.0001) %MON forcing_empmr_del2           =   1.2276157049243E-07
(PID.TID 0000.0001) %MON forcing_fu_max               =   2.4760613571392E-01
(PID.TID 0000.0001) %MON forcing_fu_min               =  -2.0293190974520E-01
(PID.TID 0000.0001) %MON forcing_fu_mean              =  -4.5478806648627E-03
(PID.TID 0000.0001) %MON forcing_fu_sd                =   6.3937396831278E-02
(PID.TID 0000.0001) %MON forcing_fu_del2              =   2.0509729664672E-04
(PID.TID 0000.0001) %MON forcing_fv_max               =   2.5281098043587E-01
(PID.TID 0000.0001) %MON forcing_fv_min               =  -3.2691992401999E-01
(PID.TID 0000.0001) %MON forcing_fv_mean              =  -1.3684501518858E-02
(PID.TID 0000.0001) %MON forcing_fv_sd                =   7.5153512230531E-02
(PID.TID 0000.0001) %MON forcing_fv_del2              =   2.3373863441584E-04
(PID.TID 0000.0001) %MON trAdv_CFL_u_max              =   8.1102265506890E-02
(PID.TID 0000.0001) %MON trAdv_CFL_v_max              =   8.0812653752296E-02
(PID.TID 0000.0001) %MON trAdv_CFL_w_max              =   7.4292349060668E-02
(PID.TID 0000.0001) %MON advcfl_uvel_max              =   8.1558192311782E-02
(PID.TID 0000.0001) %MON advcfl_vvel_max              =   7.5950205106990E-02
(PID.TID 0000.0001) %MON advcfl_wvel_max              =   6.7258521537299E-02
(PID.TID 0000.0001) %MON advcfl_W_hf_max              =   7.4292349060668E-02
(PID.TID 0000.0001) %MON pe_b_mean                    =   4.7827089450308E-04
(PID.TID 0000.0001) %MON ke_max                       =   4.0534800068561E-02
(PID.TID 0000.0001) %MON ke_mean                      =   1.4061962994924E-04
(PID.TID 0000.0001) %MON ke_vol                       =   1.3398024453628E+18
(PID.TID 0000.0001) %MON vort_r_min                   =  -1.1961273428905E-06
(PID.TID 0000.0001) %MON vort_r_max                   =   1.2248991486834E-06
(PID.TID 0000.0001) %MON vort_a_mean                  =  -2.0549865324846E-05
(PID.TID 0000.0001) %MON vort_a_sd                    =   7.5259516806866E-05
(PID.TID 0000.0001) %MON vort_p_mean                  =  -2.4783469220072E-05
(PID.TID 0000.0001) %MON vort_p_sd                    =   1.2812073162536E-04
(PID.TID 0000.0001) %MON surfExpan_theta_mean         =   4.3139713775257E-08
(PID.TID 0000.0001) %MON surfExpan_salt_mean          =   1.2483994323992E-08
(PID.TID 0000.0001) // =======================================================
(PID.TID 0000.0001) // End MONITOR dynamic field statistics
(PID.TID 0000.0001) // =======================================================
 cg2d: Sum(rhs),rhsMax =  -9.54969436861575E-12  4.28169923321767E+00
(PID.TID 0000.0001)      cg2d_init_res =   2.26182787020093E-01
(PID.TID 0000.0001)      cg2d_iters(min,last) =      -1      64
(PID.TID 0000.0001)      cg2d_last_res =   5.39325293224013E-07
(PID.TID 0000.0001) // =======================================================
(PID.TID 0000.0001) // Begin MONITOR dynamic field statistics
(PID.TID 0000.0001) // =======================================================
(PID.TID 0000.0001) %MON time_tsnumber                =                 72002
(PID.TID 0000.0001) %MON time_secondsf                =   6.2209728000000E+09
(PID.TID 0000.0001) %MON dynstat_eta_max              =   9.1899543962889E-01
(PID.TID 0000.0001) %MON dynstat_eta_min              =  -1.6178232240084E+00
(PID.TID 0000.0001) %MON dynstat_eta_mean             =   1.4358863518302E-14
(PID.TID 0000.0001) %MON dynstat_eta_sd               =   5.9890083356683E-01
(PID.TID 0000.0001) %MON dynstat_eta_del2             =   7.8619309057155E-04
(PID.TID 0000.0001) %MON dynstat_uvel_max             =   1.8681676257848E-01
(PID.TID 0000.0001) %MON dynstat_uvel_min             =  -2.8744600045159E-01
(PID.TID 0000.0001) %MON dynstat_uvel_mean            =  -4.8865407699737E-04
(PID.TID 0000.0001) %MON dynstat_uvel_sd              =   1.2016197452794E-02
(PID.TID 0000.0001) %MON dynstat_uvel_del2            =   5.1210131824117E-05
(PID.TID 0000.0001) %MON dynstat_vvel_max             =   1.7405826487718E-01
(PID.TID 0000.0001) %MON dynstat_vvel_min             =  -2.2510217397688E-01
(PID.TID 0000.0001) %MON dynstat_vvel_mean            =  -4.0366940591463E-04
(PID.TID 0000.0001) %MON dynstat_vvel_sd              =   1.2639872142271E-02
(PID.TID 0000.0001) %MON dynstat_vvel_del2            =   5.0605972648568E-05
(PID.TID 0000.0001) %MON dynstat_wvel_max             =   1.0365488832952E-04
(PID.TID 0000.0001) %MON dynstat_wvel_min             =  -2.0489391947769E-04
(PID.TID 0000.0001) %MON dynstat_wvel_mean            =   2.7299860126864E-10
(PID.TID 0000.0001) %MON dynstat_wvel_sd              =   3.8361815435015E-06
(PID.TID 0000.0001) %MON dynstat_wvel_del2            =   2.6501884697534E-08
(PID.TID 0000.0001) %MON dynstat_theta_max            =   3.0948569140547E+01
(PID.TID 0000.0001) %MON dynstat_theta_min            =  -2.0092219726664E+00
(PID.TID 0000.0001) %MON dynstat_theta_mean           =   3.9092460682668E+00
(PID.TID 0000.0001) %MON dynstat_theta_sd             =   4.5710602606735E+00
(PID.TID 0000.0001) %MON dynstat_theta_del2           =   2.6295808778161E-03
(PID.TID 0000.0001) %MON dynstat_salt_max             =   4.1387060077558E+01
(PID.TID 0000.0001) %MON dynstat_salt_min             =   1.8384079578526E+01
(PID.TID 0000.0001) %MON dynstat_salt_mean            =   3.4772069353871E+01
(PID.TID 0000.0001) %MON dynstat_salt_sd              =   5.3141711854044E-01
(PID.TID 0000.0001) %MON dynstat_salt_del2            =   7.9901339699381E-04
(PID.TID 0000.0001) %MON forcing_qnet_max             =   4.5335380716717E+02
(PID.TID 0000.0001) %MON forcing_qnet_min             =  -2.1405338853096E+02
(PID.TID 0000.0001) %MON forcing_qnet_mean            =  -1.2158050760287E+01
(PID.TID 0000.0001) %MON forcing_qnet_sd              =   1.1544877109799E+02
(PID.TID 0000.0001) %MON forcing_qnet_del2            =   4.1737635676168E-01
(PID.TID 0000.0001) %MON forcing_qsw_max              =   0.0000000000000E+00
(PID.TID 0000.0001) %MON forcing_qsw_min              =   0.0000000000000E+00
(PID.TID 0000.0001) %MON forcing_qsw_mean             =   0.0000000000000E+00
(PID.TID 0000.0001) %MON forcing_qsw_sd               =   0.0000000000000E+00
(PID.TID 0000.0001) %MON forcing_qsw_del2             =   0.0000000000000E+00
(PID.TID 0000.0001) %MON forcing_empmr_max            =   7.6494447208479E-05
(PID.TID 0000.0001) %MON forcing_empmr_min            =  -1.5362614137596E-04
(PID.TID 0000.0001) %MON forcing_empmr_mean           =  -2.7256318706594E-21
(PID.TID 0000.0001) %MON forcing_empmr_sd             =   2.4051723601802E-05
(PID.TID 0000.0001) %MON forcing_empmr_del2           =   1.2276157049243E-07
(PID.TID 0000.0001) %MON forcing_fu_max               =   2.4755808644372E-01
(PID.TID 0000.0001) %MON forcing_fu_min               =  -2.0607770640355E-01
(PID.TID 0000.0001) %MON forcing_fu_mean              =  -4.5044017291293E-03
(PID.TID 0000.0001) %MON forcing_fu_sd                =   6.3947166868600E-02
(PID.TID 0000.0001) %MON forcing_fu_del2              =   2.0524826999043E-04
(PID.TID 0000.0001) %MON forcing_fv_max               =   2.5549422200851E-01
(PID.TID 0000.0001) %MON forcing_fv_min               =  -3.2770782795392E-01
(PID.TID 0000.0001) %MON forcing_fv_mean              =  -1.3688427064785E-02
(PID.TID 0000.0001) %MON forcing_fv_sd                =   7.5192943168452E-02
(PID.TID 0000.0001) %MON forcing_fv_del2              =   2.3392164091250E-04
(PID.TID 0000.0001) %MON trAdv_CFL_u_max              =   8.1069395445480E-02
(PID.TID 0000.0001) %MON trAdv_CFL_v_max              =   8.0726799816359E-02
(PID.TID 0000.0001) %MON trAdv_CFL_w_max              =   7.3789449449946E-02
(PID.TID 0000.0001) %MON advcfl_uvel_max              =   8.1525138201145E-02
(PID.TID 0000.0001) %MON advcfl_vvel_max              =   7.5869545489845E-02
(PID.TID 0000.0001) %MON advcfl_wvel_max              =   6.6803149595744E-02
(PID.TID 0000.0001) %MON advcfl_W_hf_max              =   7.3789449449946E-02
(PID.TID 0000.0001) %MON pe_b_mean                    =   4.7783098472142E-04
(PID.TID 0000.0001) %MON ke_max                       =   4.0487490403080E-02
(PID.TID 0000.0001) %MON ke_mean                      =   1.4063874243247E-04
(PID.TID 0000.0001) %MON ke_vol                       =   1.3398024453628E+18
(PID.TID 0000.0001) %MON vort_r_min                   =  -1.1931492236887E-06
(PID.TID 0000.0001) %MON vort_r_max                   =   1.2188021658255E-06
(PID.TID 0000.0001) %MON vort_a_mean                  =  -2.0549865324846E-05
(PID.TID 0000.0001) %MON vort_a_sd                    =   7.5259516743743E-05
(PID.TID 0000.0001) %MON vort_p_mean                  =  -2.4783469211163E-05
(PID.TID 0000.0001) %MON vort_p_sd                    =   1.2812073652347E-04
(PID.TID 0000.0001) %MON surfExpan_theta_mean         =   4.6957702082602E-08
(PID.TID 0000.0001) %MON surfExpan_salt_mean          =   1.4613335278744E-08
(PID.TID 0000.0001) // =======================================================
(PID.TID 0000.0001) // End MONITOR dynamic field statistics
(PID.TID 0000.0001) // =======================================================
 cg2d: Sum(rhs),rhsMax =  -9.57811607804615E-12  4.26963529388561E+00
(PID.TID 0000.0001)      cg2d_init_res =   2.16204792175308E-01
(PID.TID 0000.0001)      cg2d_iters(min,last) =      -1      62
(PID.TID 0000.0001)      cg2d_last_res =   5.63273666592405E-07
(PID.TID 0000.0001) // =======================================================
(PID.TID 0000.0001) // Begin MONITOR dynamic field statistics
(PID.TID 0000.0001) // =======================================================
(PID.TID 0000.0001) %MON time_tsnumber                =                 72003
(PID.TID 0000.0001) %MON time_secondsf                =   6.2210592000000E+09
(PID.TID 0000.0001) %MON dynstat_eta_max              =   9.1716085184127E-01
(PID.TID 0000.0001) %MON dynstat_eta_min              =  -1.6173450214712E+00
(PID.TID 0000.0001) %MON dynstat_eta_mean             =   1.4290160822043E-14
(PID.TID 0000.0001) %MON dynstat_eta_sd               =   5.9885647869373E-01
(PID.TID 0000.0001) %MON dynstat_eta_del2             =   7.8462230553393E-04
(PID.TID 0000.0001) %MON dynstat_uvel_max             =   1.8728728589192E-01
(PID.TID 0000.0001) %MON dynstat_uvel_min             =  -2.8712409192573E-01
(PID.TID 0000.0001) %MON dynstat_uvel_mean            =  -4.8819349106173E-04
(PID.TID 0000.0001) %MON dynstat_uvel_sd              =   1.2017980733763E-02
(PID.TID 0000.0001) %MON dynstat_uvel_del2            =   5.1189281239493E-05
(PID.TID 0000.0001) %MON dynstat_vvel_max             =   1.7425549623778E-01
(PID.TID 0000.0001) %MON dynstat_vvel_min             =  -2.2506892571653E-01
(PID.TID 0000.0001) %MON dynstat_vvel_mean            =  -4.0361168921091E-04
(PID.TID 0000.0001) %MON dynstat_vvel_sd              =   1.2644594916271E-02
(PID.TID 0000.0001) %MON dynstat_vvel_del2            =   5.0573338864339E-05
(PID.TID 0000.0001) %MON dynstat_wvel_max             =   1.0388197274208E-04
(PID.TID 0000.0001) %MON dynstat_wvel_min             =  -2.0522690609777E-04
(PID.TID 0000.0001) %MON dynstat_wvel_mean            =   1.8724303650848E-10
(PID.TID 0000.0001) %MON dynstat_wvel_sd              =   3.8352222507145E-06
(PID.TID 0000.0001) %MON dynstat_wvel_del2            =   2.6514535170188E-08
(PID.TID 0000.0001) %MON dynstat_theta_max            =   3.0959186752765E+01
(PID.TID 0000.0001) %MON dynstat_theta_min            =  -2.0136454197201E+00
(PID.TID 0000.0001) %MON dynstat_theta_mean           =   3.9093036758846E+00
(PID.TID 0000.0001) %MON dynstat_theta_sd             =   4.5710299886782E+00
(PID.TID 0000.0001) %MON dynstat_theta_del2           =   2.6157541261410E-03
(PID.TID 0000.0001) %MON dynstat_salt_max             =   4.1387452758987E+01
(PID.TID 0000.0001) %MON dynstat_salt_min             =   1.8384424559819E+01
(PID.TID 0000.0001) %MON dynstat_salt_mean            =   3.4772069741443E+01
(PID.TID 0000.0001) %MON dynstat_salt_sd              =   5.3139855654613E-01
(PID.TID 0000.0001) %MON dynstat_salt_del2            =   7.9538894702684E-04
(PID.TID 0000.0001) %MON forcing_qnet_max             =   4.5325934619927E+02
(PID.TID 0000.0001) %MON forcing_qnet_min             =  -2.1308103454435E+02
(PID.TID 0000.0001) %MON forcing_qnet_mean            =  -1.2170279128930E+01
(PID.TID 0000.0001) %MON forcing_qnet_sd              =   1.1525031618572E+02
(PID.TID 0000.0001) %MON forcing_qnet_del2            =   4.1847271762860E-01
(PID.TID 0000.0001) %MON forcing_qsw_max              =   0.0000000000000E+00
(PID.TID 0000.0001) %MON forcing_qsw_min              =   0.0000000000000E+00
(PID.TID 0000.0001) %MON forcing_qsw_mean             =   0.0000000000000E+00
(PID.TID 0000.0001) %MON forcing_qsw_sd               =   0.0000000000000E+00
(PID.TID 0000.0001) %MON forcing_qsw_del2             =   0.0000000000000E+00
(PID.TID 0000.0001) %MON forcing_empmr_max            =   7.6494447208479E-05
(PID.TID 0000.0001) %MON forcing_empmr_min            =  -1.5362614137596E-04
(PID.TID 0000.0001) %MON forcing_empmr_mean           =  -2.7256318706594E-21
(PID.TID 0000.0001) %MON forcing_empmr_sd             =   2.4051723601802E-05
(PID.TID 0000.0001) %MON forcing_empmr_del2           =   1.2276157049243E-07
(PID.TID 0000.0001) %MON forcing_fu_max               =   2.4751003717351E-01
(PID.TID 0000.0001) %MON forcing_fu_min               =  -2.0922350306190E-01
(PID.TID 0000.0001) %MON forcing_fu_mean              =  -4.4609227933959E-03
(PID.TID 0000.0001) %MON forcing_fu_sd                =   6.3970406478471E-02
(PID.TID 0000.0001) %MON forcing_fu_del2              =   2.0564087338622E-04
(PID.TID 0000.0001) %MON forcing_fv_max               =   2.5817746358114E-01
(PID.TID 0000.0001) %MON forcing_fv_min               =  -3.2849573188785E-01
(PID.TID 0000.0001) %MON forcing_fv_mean              =  -1.3692352610712E-02
(PID.TID 0000.0001) %MON forcing_fv_sd                =   7.5242720295677E-02
(PID.TID 0000.0001) %MON forcing_fv_del2              =   2.3430754301775E-04
(PID.TID 0000.0001) %MON trAdv_CFL_u_max              =   8.0978615256358E-02
(PID.TID 0000.0001) %MON trAdv_CFL_v_max              =   8.0818178235254E-02
(PID.TID 0000.0001) %MON trAdv_CFL_w_max              =   7.3909343180196E-02
(PID.TID 0000.0001) %MON advcfl_uvel_max              =   8.1433838837027E-02
(PID.TID 0000.0001) %MON advcfl_vvel_max              =   7.5955515861295E-02
(PID.TID 0000.0001) %MON advcfl_wvel_max              =   6.6911715799424E-02
(PID.TID 0000.0001) %MON advcfl_W_hf_max              =   7.3909343180196E-02
(PID.TID 0000.0001) %MON pe_b_mean                    =   4.7776021057426E-04
(PID.TID 0000.0001) %MON ke_max                       =   4.0380604422992E-02
(PID.TID 0000.0001) %MON ke_mean                      =   1.4071359952526E-04
(PID.TID 0000.0001) %MON ke_vol                       =   1.3398024453628E+18
(PID.TID 0000.0001) %MON vort_r_min                   =  -1.1970434078359E-06
(PID.TID 0000.0001) %MON vort_r_max                   =   1.2200257434255E-06
(PID.TID 0000.0001) %MON vort_a_mean                  =  -2.0549865324846E-05
(PID.TID 0000.0001) %MON vort_a_sd                    =   7.5259516612531E-05
(PID.TID 0000.0001) %MON vort_p_mean                  =  -2.4783469206483E-05
(PID.TID 0000.0001) %MON vort_p_sd                    =   1.2812072816315E-04
(PID.TID 0000.0001) %MON surfExpan_theta_mean         =   5.0263479304129E-08
(PID.TID 0000.0001) %MON surfExpan_salt_mean          =   1.4850437059249E-08
(PID.TID 0000.0001) // =======================================================
(PID.TID 0000.0001) // End MONITOR dynamic field statistics
(PID.TID 0000.0001) // =======================================================
 cg2d: Sum(rhs),rhsMax =  -9.77706804405898E-12  4.26825643135367E+00
(PID.TID 0000.0001)      cg2d_init_res =   1.96658855240234E-01
(PID.TID 0000.0001)      cg2d_iters(min,last) =      -1      62
(PID.TID 0000.0001)      cg2d_last_res =   4.90955069331461E-07
(PID.TID 0000.0001) // =======================================================
(PID.TID 0000.0001) // Begin MONITOR dynamic field statistics
(PID.TID 0000.0001) // =======================================================
(PID.TID 0000.0001) %MON time_tsnumber                =                 72004
(PID.TID 0000.0001) %MON time_secondsf                =   6.2211456000000E+09
(PID.TID 0000.0001) %MON dynstat_eta_max              =   9.1570008047847E-01
(PID.TID 0000.0001) %MON dynstat_eta_min              =  -1.6168937438962E+00
(PID.TID 0000.0001) %MON dynstat_eta_mean             =   1.4097793272515E-14
(PID.TID 0000.0001) %MON dynstat_eta_sd               =   5.9879689889692E-01
(PID.TID 0000.0001) %MON dynstat_eta_del2             =   7.8399835681460E-04
(PID.TID 0000.0001) %MON dynstat_uvel_max             =   1.8746403519282E-01
(PID.TID 0000.0001) %MON dynstat_uvel_min             =  -2.8677650770716E-01
(PID.TID 0000.0001) %MON dynstat_uvel_mean            =  -4.8783424240577E-04
(PID.TID 0000.0001) %MON dynstat_uvel_sd              =   1.2015633449226E-02
(PID.TID 0000.0001) %MON dynstat_uvel_del2            =   5.1165791763343E-05
(PID.TID 0000.0001) %MON dynstat_vvel_max             =   1.7442342131321E-01
(PID.TID 0000.0001) %MON dynstat_vvel_min             =  -2.2502646015674E-01
(PID.TID 0000.0001) %MON dynstat_vvel_mean            =  -4.0354301557863E-04
(PID.TID 0000.0001) %MON dynstat_vvel_sd              =   1.2646088204510E-02
(PID.TID 0000.0001) %MON dynstat_vvel_del2            =   5.0541128249501E-05
(PID.TID 0000.0001) %MON dynstat_wvel_max             =   1.0425450106917E-04
(PID.TID 0000.0001) %MON dynstat_wvel_min             =  -2.0548809220266E-04
(PID.TID 0000.0001) %MON dynstat_wvel_mean            =   7.7133449271777E-11
(PID.TID 0000.0001) %MON dynstat_wvel_sd              =   3.8337213046667E-06
(PID.TID 0000.0001) %MON dynstat_wvel_del2            =   2.6532910855481E-08
(PID.TID 0000.0001) %MON dynstat_theta_max            =   3.0969370038700E+01
(PID.TID 0000.0001) %MON dynstat_theta_min            =  -2.0183541145511E+00
(PID.TID 0000.0001) %MON dynstat_theta_mean           =   3.9093617574487E+00
(PID.TID 0000.0001) %MON dynstat_theta_sd             =   4.5710069512698E+00
(PID.TID 0000.0001) %MON dynstat_theta_del2           =   2.6094102827334E-03
(PID.TID 0000.0001) %MON dynstat_salt_max             =   4.1387829995723E+01
(PID.TID 0000.0001) %MON dynstat_salt_min             =   1.8384775698198E+01
(PID.TID 0000.0001) %MON dynstat_salt_mean            =   3.4772070152259E+01
(PID.TID 0000.0001) %MON dynstat_salt_sd              =   5.3137979133597E-01
(PID.TID 0000.0001) %MON dynstat_salt_del2            =   7.9376593246996E-04
(PID.TID 0000.0001) %MON forcing_qnet_max             =   4.5316488523137E+02
(PID.TID 0000.0001) %MON forcing_qnet_min             =  -2.1210868055774E+02
(PID.TID 0000.0001) %MON forcing_qnet_mean            =  -1.2182507497573E+01
(PID.TID 0000.0001) %MON forcing_qnet_sd              =   1.1505843893838E+02
(PID.TID 0000.0001) %MON forcing_qnet_del2            =   4.1968961974738E-01
(PID.TID 0000.0001) %MON forcing_qsw_max              =   0.0000000000000E+00
(PID.TID 0000.0001) %MON forcing_qsw_min              =   0.0000000000000E+00
(PID.TID 0000.0001) %MON forcing_qsw_mean             =   0.0000000000000E+00
(PID.TID 0000.0001) %MON forcing_qsw_sd               =   0.0000000000000E+00
(PID.TID 0000.0001) %MON forcing_qsw_del2             =   0.0000000000000E+00
(PID.TID 0000.0001) %MON forcing_empmr_max            =   7.6494447208479E-05
(PID.TID 0000.0001) %MON forcing_empmr_min            =  -1.5362614137596E-04
(PID.TID 0000.0001) %MON forcing_empmr_mean           =  -2.7256318706594E-21
(PID.TID 0000.0001) %MON forcing_empmr_sd             =   2.4051723601802E-05
(PID.TID 0000.0001) %MON forcing_empmr_del2           =   1.2276157049243E-07
(PID.TID 0000.0001) %MON forcing_fu_max               =   2.4746198790331E-01
(PID.TID 0000.0001) %MON forcing_fu_min               =  -2.1236929972025E-01
(PID.TID 0000.0001) %MON forcing_fu_mean              =  -4.4174438576624E-03
(PID.TID 0000.0001) %MON forcing_fu_sd                =   6.4007100989353E-02
(PID.TID 0000.0001) %MON forcing_fu_del2              =   2.0627372714610E-04
(PID.TID 0000.0001) %MON forcing_fv_max               =   2.6086070515377E-01
(PID.TID 0000.0001) %MON forcing_fv_min               =  -3.2928363582178E-01
(PID.TID 0000.0001) %MON forcing_fv_mean              =  -1.3696278156640E-02
(PID.TID 0000.0001) %MON forcing_fv_sd                =   7.5302823094907E-02
(PID.TID 0000.0001) %MON forcing_fv_del2              =   2.3489534074143E-04
(PID.TID 0000.0001) %MON trAdv_CFL_u_max              =   8.0880592298467E-02
(PID.TID 0000.0001) %MON trAdv_CFL_v_max              =   8.0896001502101E-02
(PID.TID 0000.0001) %MON trAdv_CFL_w_max              =   7.4003409606683E-02
(PID.TID 0000.0001) %MON advcfl_uvel_max              =   8.1335257359424E-02
(PID.TID 0000.0001) %MON advcfl_vvel_max              =   7.6028712035910E-02
(PID.TID 0000.0001) %MON advcfl_wvel_max              =   6.6996872325696E-02
(PID.TID 0000.0001) %MON advcfl_W_hf_max              =   7.4003409606683E-02
(PID.TID 0000.0001) %MON pe_b_mean                    =   4.7766515126937E-04
(PID.TID 0000.0001) %MON ke_max                       =   4.0270344792889E-02
(PID.TID 0000.0001) %MON ke_mean                      =   1.4070501786407E-04
(PID.TID 0000.0001) %MON ke_vol                       =   1.3398024453628E+18
(PID.TID 0000.0001) %MON vort_r_min                   =  -1.2014015286803E-06
(PID.TID 0000.0001) %MON vort_r_max                   =   1.2222297292693E-06
(PID.TID 0000.0001) %MON vort_a_mean                  =  -2.0549865324846E-05
(PID.TID 0000.0001) %MON vort_a_sd                    =   7.5259516403386E-05
(PID.TID 0000.0001) %MON vort_p_mean                  =  -2.4783469223252E-05
(PID.TID 0000.0001) %MON vort_p_sd                    =   1.2812072565045E-04
(PID.TID 0000.0001) %MON surfExpan_theta_mean         =   4.8538259832090E-08
(PID.TID 0000.0001) %MON surfExpan_salt_mean          =   1.4766638440503E-08
(PID.TID 0000.0001) // =======================================================
(PID.TID 0000.0001) // End MONITOR dynamic field statistics
(PID.TID 0000.0001) // =======================================================
 cg2d: Sum(rhs),rhsMax =  -9.69180291576777E-12  4.26314508145796E+00
(PID.TID 0000.0001)      cg2d_init_res =   2.04010899197146E-01
(PID.TID 0000.0001)      cg2d_iters(min,last) =      -1      62
(PID.TID 0000.0001)      cg2d_last_res =   5.05624541060967E-07
(PID.TID 0000.0001) // =======================================================
(PID.TID 0000.0001) // Begin MONITOR dynamic field statistics
(PID.TID 0000.0001) // =======================================================
(PID.TID 0000.0001) %MON time_tsnumber                =                 72005
(PID.TID 0000.0001) %MON time_secondsf                =   6.2212320000000E+09
(PID.TID 0000.0001) %MON dynstat_eta_max              =   9.1425377421039E-01
(PID.TID 0000.0001) %MON dynstat_eta_min              =  -1.6163081020926E+00
(PID.TID 0000.0001) %MON dynstat_eta_mean             =   1.4193977047279E-14
(PID.TID 0000.0001) %MON dynstat_eta_sd               =   5.9872262668371E-01
(PID.TID 0000.0001) %MON dynstat_eta_del2             =   7.8312951171928E-04
(PID.TID 0000.0001) %MON dynstat_uvel_max             =   1.8763539682684E-01
(PID.TID 0000.0001) %MON dynstat_uvel_min             =  -2.8640512276010E-01
(PID.TID 0000.0001) %MON dynstat_uvel_mean            =  -4.8754081502174E-04
(PID.TID 0000.0001) %MON dynstat_uvel_sd              =   1.2013954671636E-02
(PID.TID 0000.0001) %MON dynstat_uvel_del2            =   5.1138141616994E-05
(PID.TID 0000.0001) %MON dynstat_vvel_max             =   1.7452974909297E-01
(PID.TID 0000.0001) %MON dynstat_vvel_min             =  -2.2497579203422E-01
(PID.TID 0000.0001) %MON dynstat_vvel_mean            =  -4.0340295954732E-04
(PID.TID 0000.0001) %MON dynstat_vvel_sd              =   1.2648249114855E-02
(PID.TID 0000.0001) %MON dynstat_vvel_del2            =   5.0506295083181E-05
(PID.TID 0000.0001) %MON dynstat_wvel_max             =   1.0468577177724E-04
(PID.TID 0000.0001) %MON dynstat_wvel_min             =  -2.0569267100883E-04
(PID.TID 0000.0001) %MON dynstat_wvel_mean            =   6.1308553514796E-11
(PID.TID 0000.0001) %MON dynstat_wvel_sd              =   3.8324712291927E-06
(PID.TID 0000.0001) %MON dynstat_wvel_del2            =   2.6556156494049E-08
(PID.TID 0000.0001) %MON dynstat_theta_max            =   3.0979141204736E+01
(PID.TID 0000.0001) %MON dynstat_theta_min            =  -2.0233045912459E+00
(PID.TID 0000.0001) %MON dynstat_theta_mean           =   3.9094200077765E+00
(PID.TID 0000.0001) %MON dynstat_theta_sd             =   4.5709949318024E+00
(PID.TID 0000.0001) %MON dynstat_theta_del2           =   2.5984307048990E-03
(PID.TID 0000.0001) %MON dynstat_salt_max             =   4.1388185924209E+01
(PID.TID 0000.0001) %MON dynstat_salt_min             =   1.8385132906265E+01
(PID.TID 0000.0001) %MON dynstat_salt_mean            =   3.4772070576670E+01
(PID.TID 0000.0001) %MON dynstat_salt_sd              =   5.3136309401373E-01
(PID.TID 0000.0001) %MON dynstat_salt_del2            =   7.9027651595395E-04
(PID.TID 0000.0001) %MON forcing_qnet_max             =   4.5307042426348E+02
(PID.TID 0000.0001) %MON forcing_qnet_min             =  -2.1113632657113E+02
(PID.TID 0000.0001) %MON forcing_qnet_mean            =  -1.2194735866217E+01
(PID.TID 0000.0001) %MON forcing_qnet_sd              =   1.1487317231679E+02
(PID.TID 0000.0001) %MON forcing_qnet_del2            =   4.2102601790904E-01
(PID.TID 0000.0001) %MON forcing_qsw_max              =   0.0000000000000E+00
(PID.TID 0000.0001) %MON forcing_qsw_min              =   0.0000000000000E+00
(PID.TID 0000.0001) %MON forcing_qsw_mean             =   0.0000000000000E+00
(PID.TID 0000.0001) %MON forcing_qsw_sd               =   0.0000000000000E+00
(PID.TID 0000.0001) %MON forcing_qsw_del2             =   0.0000000000000E+00
(PID.TID 0000.0001) %MON forcing_empmr_max            =   7.6494447208479E-05
(PID.TID 0000.0001) %MON forcing_empmr_min            =  -1.5362614137596E-04
(PID.TID 0000.0001) %MON forcing_empmr_mean           =  -2.5159678806086E-21
(PID.TID 0000.0001) %MON forcing_empmr_sd             =   2.4051723601802E-05
(PID.TID 0000.0001) %MON forcing_empmr_del2           =   1.2276157049243E-07
(PID.TID 0000.0001) %MON forcing_fu_max               =   2.4741393863310E-01
(PID.TID 0000.0001) %MON forcing_fu_min               =  -2.1551509637860E-01
(PID.TID 0000.0001) %MON forcing_fu_mean              =  -4.3739649219290E-03
(PID.TID 0000.0001) %MON forcing_fu_sd                =   6.4057227278753E-02
(PID.TID 0000.0001) %MON forcing_fu_del2              =   2.0714462929353E-04
(PID.TID 0000.0001) %MON forcing_fv_max               =   2.6354394672640E-01
(PID.TID 0000.0001) %MON forcing_fv_min               =  -3.3007153975572E-01
(PID.TID 0000.0001) %MON forcing_fv_mean              =  -1.3700203702567E-02
(PID.TID 0000.0001) %MON forcing_fv_sd                =   7.5373226864996E-02
(PID.TID 0000.0001) %MON forcing_fv_del2              =   2.3568352349763E-04
(PID.TID 0000.0001) %MON trAdv_CFL_u_max              =   8.0775855373685E-02
(PID.TID 0000.0001) %MON trAdv_CFL_v_max              =   8.0945274156269E-02
(PID.TID 0000.0001) %MON trAdv_CFL_w_max              =   7.4077126086878E-02
(PID.TID 0000.0001) %MON advcfl_uvel_max              =   8.1229925543753E-02
(PID.TID 0000.0001) %MON advcfl_vvel_max              =   7.6075058817139E-02
(PID.TID 0000.0001) %MON advcfl_wvel_max              =   6.7063572736465E-02
(PID.TID 0000.0001) %MON advcfl_W_hf_max              =   7.4077126086878E-02
(PID.TID 0000.0001) %MON pe_b_mean                    =   4.7754666352235E-04
(PID.TID 0000.0001) %MON ke_max                       =   4.0156473402414E-02
(PID.TID 0000.0001) %MON ke_mean                      =   1.4071166313420E-04
(PID.TID 0000.0001) %MON ke_vol                       =   1.3398024453628E+18
(PID.TID 0000.0001) %MON vort_r_min                   =  -1.2058369405547E-06
(PID.TID 0000.0001) %MON vort_r_max                   =   1.2245058320846E-06
(PID.TID 0000.0001) %MON vort_a_mean                  =  -2.0549865324846E-05
(PID.TID 0000.0001) %MON vort_a_sd                    =   7.5259516265911E-05
(PID.TID 0000.0001) %MON vort_p_mean                  =  -2.4783469196317E-05
(PID.TID 0000.0001) %MON vort_p_sd                    =   1.2812072400251E-04
(PID.TID 0000.0001) %MON surfExpan_theta_mean         =   4.8333592167702E-08
(PID.TID 0000.0001) %MON surfExpan_salt_mean          =   1.4621922897977E-08
(PID.TID 0000.0001) // =======================================================
(PID.TID 0000.0001) // End MONITOR dynamic field statistics
(PID.TID 0000.0001) // =======================================================
(PID.TID 0000.0001) DIAGSTATS_CLOSE_IO: close file: dynStDiag.0000072000.txt , unit=     9
(PID.TID 0000.0001) %CHECKPOINT     72005 ckptA
(PID.TID 0000.0001)   early fc =  0.000000000000000D+00
 --> objf_test(bi,bj)   =  0.112642990348103D+05
 --> objf_test(bi,bj)   =  0.925748325758844D+04
 --> objf_test(bi,bj)   =  0.646782340671071D+04
 --> objf_test(bi,bj)   =  0.425114892283630D+04
 --> objf_test(bi,bj)   =  0.468651159540117D+04
 --> objf_test(bi,bj)   =  0.131971832167568D+05
 --> objf_test(bi,bj)   =  0.111682590459659D+05
 --> objf_test(bi,bj)   =  0.109410446673452D+05
 --> objf_test(bi,bj)   =  0.691550498895456D+04
 --> objf_test(bi,bj)   =  0.683247511367517D+04
 --> objf_test(bi,bj)   =  0.520040324842317D+04
 --> objf_test(bi,bj)   =  0.606296038540988D+04
(PID.TID 0000.0001)   local fc =  0.962450968838777D+05
(PID.TID 0000.0001)  global fc =  0.962450968838777D+05
(PID.TID 0000.0001) whio : write lev 2 rec   1
 EXTERNAL_FIELDS_LOAD, it=     72000 : Reading new data, i0,i1=   12    1 (prev=   12    1 )
(PID.TID 0000.0001) SOLVE_FOR_PRESSURE: putPmEinXvector =    F
 cg2d: Sum(rhs),rhsMax =  -9.91917659121100E-12  4.28293538309627E+00
 cg2d: Sum(rhs),rhsMax =  -9.54969436861575E-12  4.28169923321767E+00
(PID.TID 0000.0001) whio : write lev 2 rec   2
 cg2d: Sum(rhs),rhsMax =  -9.57811607804615E-12  4.26963529388561E+00
 cg2d: Sum(rhs),rhsMax =  -9.77706804405898E-12  4.26825643135367E+00
(PID.TID 0000.0001) whio : write lev 2 rec   3
 cg2d: Sum(rhs),rhsMax =  -9.69180291576777E-12  4.26314508145796E+00
(PID.TID 0000.0001) Did not write pickup because writePickupAtEnd = FALSE
 cg2d: Sum(rhs),rhsMax =  -9.69180291576777E-12  4.26314508145796E+00
(PID.TID 0000.0001) Did not write pickup because writePickupAtEnd = FALSE
 cg2d: Sum(rhs),rhsMax =  -9.69180291576777E-12  4.26314508145796E+00
(PID.TID 0000.0001) Did not write pickup because writePickupAtEnd = FALSE
(PID.TID 0000.0001) // =======================================================
(PID.TID 0000.0001) // Begin AD_MONITOR dynamic field statistics
(PID.TID 0000.0001) // =======================================================
(PID.TID 0000.0001) %MON ad_time_tsnumber             =                 72005
(PID.TID 0000.0001) %MON ad_time_secondsf             =   6.2212320000000E+09
(PID.TID 0000.0001) %MON ad_dynstat_adeta_max         =   0.0000000000000E+00
(PID.TID 0000.0001) %MON ad_dynstat_adeta_min         =   0.0000000000000E+00
(PID.TID 0000.0001) %MON ad_dynstat_adeta_mean        =   0.0000000000000E+00
(PID.TID 0000.0001) %MON ad_dynstat_adeta_sd          =   0.0000000000000E+00
(PID.TID 0000.0001) %MON ad_dynstat_adeta_del2        =   0.0000000000000E+00
(PID.TID 0000.0001) %MON ad_dynstat_aduvel_max        =   0.0000000000000E+00
(PID.TID 0000.0001) %MON ad_dynstat_aduvel_min        =   0.0000000000000E+00
(PID.TID 0000.0001) %MON ad_dynstat_aduvel_mean       =   0.0000000000000E+00
(PID.TID 0000.0001) %MON ad_dynstat_aduvel_sd         =   0.0000000000000E+00
(PID.TID 0000.0001) %MON ad_dynstat_aduvel_del2       =   0.0000000000000E+00
(PID.TID 0000.0001) %MON ad_dynstat_advvel_max        =   0.0000000000000E+00
(PID.TID 0000.0001) %MON ad_dynstat_advvel_min        =   0.0000000000000E+00
(PID.TID 0000.0001) %MON ad_dynstat_advvel_mean       =   0.0000000000000E+00
(PID.TID 0000.0001) %MON ad_dynstat_advvel_sd         =   0.0000000000000E+00
(PID.TID 0000.0001) %MON ad_dynstat_advvel_del2       =   0.0000000000000E+00
(PID.TID 0000.0001) %MON ad_dynstat_adwvel_max        =   0.0000000000000E+00
(PID.TID 0000.0001) %MON ad_dynstat_adwvel_min        =   0.0000000000000E+00
(PID.TID 0000.0001) %MON ad_dynstat_adwvel_mean       =   0.0000000000000E+00
(PID.TID 0000.0001) %MON ad_dynstat_adwvel_sd         =   0.0000000000000E+00
(PID.TID 0000.0001) %MON ad_dynstat_adwvel_del2       =   0.0000000000000E+00
(PID.TID 0000.0001) %MON ad_dynstat_adtheta_max       =   1.9871053681201E+01
(PID.TID 0000.0001) %MON ad_dynstat_adtheta_min       =  -2.0079890544100E+01
(PID.TID 0000.0001) %MON ad_dynstat_adtheta_mean      =   6.1225491567065E-01
(PID.TID 0000.0001) %MON ad_dynstat_adtheta_sd        =   1.9056060176869E+00
(PID.TID 0000.0001) %MON ad_dynstat_adtheta_del2      =   7.8180641903660E-03
(PID.TID 0000.0001) %MON ad_dynstat_adsalt_max        =   0.0000000000000E+00
(PID.TID 0000.0001) %MON ad_dynstat_adsalt_min        =   0.0000000000000E+00
(PID.TID 0000.0001) %MON ad_dynstat_adsalt_mean       =   0.0000000000000E+00
(PID.TID 0000.0001) %MON ad_dynstat_adsalt_sd         =   0.0000000000000E+00
(PID.TID 0000.0001) %MON ad_dynstat_adsalt_del2       =   0.0000000000000E+00
(PID.TID 0000.0001) %MON ad_forcing_adqnet_max        =   0.0000000000000E+00
(PID.TID 0000.0001) %MON ad_forcing_adqnet_min        =   0.0000000000000E+00
(PID.TID 0000.0001) %MON ad_forcing_adqnet_mean       =   0.0000000000000E+00
(PID.TID 0000.0001) %MON ad_forcing_adqnet_sd         =   0.0000000000000E+00
(PID.TID 0000.0001) %MON ad_forcing_adqnet_del2       =   0.0000000000000E+00
(PID.TID 0000.0001) %MON ad_forcing_adqsw_max         =   0.0000000000000E+00
(PID.TID 0000.0001) %MON ad_forcing_adqsw_min         =   0.0000000000000E+00
(PID.TID 0000.0001) %MON ad_forcing_adqsw_mean        =   0.0000000000000E+00
(PID.TID 0000.0001) %MON ad_forcing_adqsw_sd          =   0.0000000000000E+00
(PID.TID 0000.0001) %MON ad_forcing_adqsw_del2        =   0.0000000000000E+00
(PID.TID 0000.0001) %MON ad_forcing_adempmr_max       =   0.0000000000000E+00
(PID.TID 0000.0001) %MON ad_forcing_adempmr_min       =   0.0000000000000E+00
(PID.TID 0000.0001) %MON ad_forcing_adempmr_mean      =   0.0000000000000E+00
(PID.TID 0000.0001) %MON ad_forcing_adempmr_sd        =   0.0000000000000E+00
(PID.TID 0000.0001) %MON ad_forcing_adempmr_del2      =   0.0000000000000E+00
(PID.TID 0000.0001) %MON ad_forcing_adfu_max          =   0.0000000000000E+00
(PID.TID 0000.0001) %MON ad_forcing_adfu_min          =   0.0000000000000E+00
(PID.TID 0000.0001) %MON ad_forcing_adfu_mean         =   0.0000000000000E+00
(PID.TID 0000.0001) %MON ad_forcing_adfu_sd           =   0.0000000000000E+00
(PID.TID 0000.0001) %MON ad_forcing_adfu_del2         =   0.0000000000000E+00
(PID.TID 0000.0001) %MON ad_forcing_adfv_max          =   0.0000000000000E+00
(PID.TID 0000.0001) %MON ad_forcing_adfv_min          =   0.0000000000000E+00
(PID.TID 0000.0001) %MON ad_forcing_adfv_mean         =   0.0000000000000E+00
(PID.TID 0000.0001) %MON ad_forcing_adfv_sd           =   0.0000000000000E+00
(PID.TID 0000.0001) %MON ad_forcing_adfv_del2         =   0.0000000000000E+00
(PID.TID 0000.0001) // =======================================================
(PID.TID 0000.0001) // End AD_MONITOR dynamic field statistics
(PID.TID 0000.0001) // =======================================================
 Calling cg2d from S/R CG2D_SAD
 cg2d: Sum(rhs),rhsMax =  -1.08420217248550E-19  1.78189963822510E-04
 cg2d: Sum(rhs),rhsMax =  -9.57811607804615E-12  4.26963529388561E+00
 cg2d: Sum(rhs),rhsMax =  -9.77706804405898E-12  4.26825643135367E+00
 cg2d: Sum(rhs),rhsMax =  -9.77706804405898E-12  4.26825643135367E+00
(PID.TID 0000.0001) // =======================================================
(PID.TID 0000.0001) // Begin AD_MONITOR dynamic field statistics
(PID.TID 0000.0001) // =======================================================
(PID.TID 0000.0001) %MON ad_time_tsnumber             =                 72004
(PID.TID 0000.0001) %MON ad_time_secondsf             =   6.2211456000000E+09
(PID.TID 0000.0001) %MON ad_dynstat_adeta_max         =   0.0000000000000E+00
(PID.TID 0000.0001) %MON ad_dynstat_adeta_min         =   0.0000000000000E+00
(PID.TID 0000.0001) %MON ad_dynstat_adeta_mean        =   0.0000000000000E+00
(PID.TID 0000.0001) %MON ad_dynstat_adeta_sd          =   0.0000000000000E+00
(PID.TID 0000.0001) %MON ad_dynstat_adeta_del2        =   0.0000000000000E+00
(PID.TID 0000.0001) %MON ad_dynstat_aduvel_max        =   2.3266064295102E+01
(PID.TID 0000.0001) %MON ad_dynstat_aduvel_min        =  -5.1510484022977E+01
(PID.TID 0000.0001) %MON ad_dynstat_aduvel_mean       =   4.9183994929375E-02
(PID.TID 0000.0001) %MON ad_dynstat_aduvel_sd         =   1.1226679459770E+00
(PID.TID 0000.0001) %MON ad_dynstat_aduvel_del2       =   1.1307766568216E-02
(PID.TID 0000.0001) %MON ad_dynstat_advvel_max        =   2.9330619761139E+01
(PID.TID 0000.0001) %MON ad_dynstat_advvel_min        =  -1.7030175429181E+01
(PID.TID 0000.0001) %MON ad_dynstat_advvel_mean       =  -1.5835480407301E-02
(PID.TID 0000.0001) %MON ad_dynstat_advvel_sd         =   1.0721190868853E+00
(PID.TID 0000.0001) %MON ad_dynstat_advvel_del2       =   9.4550430873531E-03
(PID.TID 0000.0001) %MON ad_dynstat_adwvel_max        =   6.7940954434937E+01
(PID.TID 0000.0001) %MON ad_dynstat_adwvel_min        =  -5.1806132109020E+01
(PID.TID 0000.0001) %MON ad_dynstat_adwvel_mean       =   3.6002230864528E-04
(PID.TID 0000.0001) %MON ad_dynstat_adwvel_sd         =   6.1517082239848E-01
(PID.TID 0000.0001) %MON ad_dynstat_adwvel_del2       =   8.6915650200166E-03
(PID.TID 0000.0001) %MON ad_dynstat_adtheta_max       =   1.9824891971153E+01
(PID.TID 0000.0001) %MON ad_dynstat_adtheta_min       =  -2.0342105368811E+01
(PID.TID 0000.0001) %MON ad_dynstat_adtheta_mean      =   6.1164999942855E-01
(PID.TID 0000.0001) %MON ad_dynstat_adtheta_sd        =   1.9016814200521E+00
(PID.TID 0000.0001) %MON ad_dynstat_adtheta_del2      =   8.4639693736731E-03
(PID.TID 0000.0001) %MON ad_dynstat_adsalt_max        =   6.8328936778724E+01
(PID.TID 0000.0001) %MON ad_dynstat_adsalt_min        =  -6.8206314993409E+01
(PID.TID 0000.0001) %MON ad_dynstat_adsalt_mean       =  -1.5149827071605E-03
(PID.TID 0000.0001) %MON ad_dynstat_adsalt_sd         =   3.6980307309657E-01
(PID.TID 0000.0001) %MON ad_dynstat_adsalt_del2       =   1.0973192286409E-02
(PID.TID 0000.0001) %MON ad_forcing_adqnet_max        =   0.0000000000000E+00
(PID.TID 0000.0001) %MON ad_forcing_adqnet_min        =   0.0000000000000E+00
(PID.TID 0000.0001) %MON ad_forcing_adqnet_mean       =   0.0000000000000E+00
(PID.TID 0000.0001) %MON ad_forcing_adqnet_sd         =   0.0000000000000E+00
(PID.TID 0000.0001) %MON ad_forcing_adqnet_del2       =   0.0000000000000E+00
(PID.TID 0000.0001) %MON ad_forcing_adqsw_max         =   2.5635607448932E-04
(PID.TID 0000.0001) %MON ad_forcing_adqsw_min         =  -2.3602085077446E-04
(PID.TID 0000.0001) %MON ad_forcing_adqsw_mean        =   1.5468059877766E-05
(PID.TID 0000.0001) %MON ad_forcing_adqsw_sd          =   4.4022799193792E-05
(PID.TID 0000.0001) %MON ad_forcing_adqsw_del2        =   6.7505289419428E-07
(PID.TID 0000.0001) %MON ad_forcing_adempmr_max       =   0.0000000000000E+00
(PID.TID 0000.0001) %MON ad_forcing_adempmr_min       =   0.0000000000000E+00
(PID.TID 0000.0001) %MON ad_forcing_adempmr_mean      =   0.0000000000000E+00
(PID.TID 0000.0001) %MON ad_forcing_adempmr_sd        =   0.0000000000000E+00
(PID.TID 0000.0001) %MON ad_forcing_adempmr_del2      =   0.0000000000000E+00
(PID.TID 0000.0001) %MON ad_forcing_adfu_max          =   0.0000000000000E+00
(PID.TID 0000.0001) %MON ad_forcing_adfu_min          =   0.0000000000000E+00
(PID.TID 0000.0001) %MON ad_forcing_adfu_mean         =   0.0000000000000E+00
(PID.TID 0000.0001) %MON ad_forcing_adfu_sd           =   0.0000000000000E+00
(PID.TID 0000.0001) %MON ad_forcing_adfu_del2         =   0.0000000000000E+00
(PID.TID 0000.0001) %MON ad_forcing_adfv_max          =   0.0000000000000E+00
(PID.TID 0000.0001) %MON ad_forcing_adfv_min          =   0.0000000000000E+00
(PID.TID 0000.0001) %MON ad_forcing_adfv_mean         =   0.0000000000000E+00
(PID.TID 0000.0001) %MON ad_forcing_adfv_sd           =   0.0000000000000E+00
(PID.TID 0000.0001) %MON ad_forcing_adfv_del2         =   0.0000000000000E+00
(PID.TID 0000.0001) // =======================================================
(PID.TID 0000.0001) // End AD_MONITOR dynamic field statistics
(PID.TID 0000.0001) // =======================================================
 Calling cg2d from S/R CG2D_SAD
 cg2d: Sum(rhs),rhsMax =  -6.50521303491303E-19  1.55588378273551E-03
 cg2d: Sum(rhs),rhsMax =  -9.57811607804615E-12  4.26963529388561E+00
(PID.TID 0000.0001) // =======================================================
(PID.TID 0000.0001) // Begin AD_MONITOR dynamic field statistics
(PID.TID 0000.0001) // =======================================================
(PID.TID 0000.0001) %MON ad_time_tsnumber             =                 72003
(PID.TID 0000.0001) %MON ad_time_secondsf             =   6.2210592000000E+09
(PID.TID 0000.0001) %MON ad_dynstat_adeta_max         =   0.0000000000000E+00
(PID.TID 0000.0001) %MON ad_dynstat_adeta_min         =   0.0000000000000E+00
(PID.TID 0000.0001) %MON ad_dynstat_adeta_mean        =   0.0000000000000E+00
(PID.TID 0000.0001) %MON ad_dynstat_adeta_sd          =   0.0000000000000E+00
(PID.TID 0000.0001) %MON ad_dynstat_adeta_del2        =   0.0000000000000E+00
(PID.TID 0000.0001) %MON ad_dynstat_aduvel_max        =   4.3371691107288E+01
(PID.TID 0000.0001) %MON ad_dynstat_aduvel_min        =  -1.0005576603418E+02
(PID.TID 0000.0001) %MON ad_dynstat_aduvel_mean       =   1.1410734480568E-01
(PID.TID 0000.0001) %MON ad_dynstat_aduvel_sd         =   2.1975297845605E+00
(PID.TID 0000.0001) %MON ad_dynstat_aduvel_del2       =   2.1790651252716E-02
(PID.TID 0000.0001) %MON ad_dynstat_advvel_max        =   5.6137561428794E+01
(PID.TID 0000.0001) %MON ad_dynstat_advvel_min        =  -3.2676439251397E+01
(PID.TID 0000.0001) %MON ad_dynstat_advvel_mean       =  -1.1226739805661E-02
(PID.TID 0000.0001) %MON ad_dynstat_advvel_sd         =   2.0938808078487E+00
(PID.TID 0000.0001) %MON ad_dynstat_advvel_del2       =   1.8154451601275E-02
(PID.TID 0000.0001) %MON ad_dynstat_adwvel_max        =   8.8065000432201E+01
(PID.TID 0000.0001) %MON ad_dynstat_adwvel_min        =  -6.5997964516195E+01
(PID.TID 0000.0001) %MON ad_dynstat_adwvel_mean       =   4.2363441653952E-04
(PID.TID 0000.0001) %MON ad_dynstat_adwvel_sd         =   7.9572049014100E-01
(PID.TID 0000.0001) %MON ad_dynstat_adwvel_del2       =   1.1116689726630E-02
(PID.TID 0000.0001) %MON ad_dynstat_adtheta_max       =   5.1100332334086E+01
(PID.TID 0000.0001) %MON ad_dynstat_adtheta_min       =  -5.0741850299991E+01
(PID.TID 0000.0001) %MON ad_dynstat_adtheta_mean      =   6.1201860164645E-01
(PID.TID 0000.0001) %MON ad_dynstat_adtheta_sd        =   1.9054674157754E+00
(PID.TID 0000.0001) %MON ad_dynstat_adtheta_del2      =   1.0156138452642E-02
(PID.TID 0000.0001) %MON ad_dynstat_adsalt_max        =   1.7924874047893E+02
(PID.TID 0000.0001) %MON ad_dynstat_adsalt_min        =  -1.7961815063541E+02
(PID.TID 0000.0001) %MON ad_dynstat_adsalt_mean       =  -4.6437694068542E-03
(PID.TID 0000.0001) %MON ad_dynstat_adsalt_sd         =   7.3916705192275E-01
(PID.TID 0000.0001) %MON ad_dynstat_adsalt_del2       =   2.3247013257381E-02
(PID.TID 0000.0001) %MON ad_forcing_adqnet_max        =   0.0000000000000E+00
(PID.TID 0000.0001) %MON ad_forcing_adqnet_min        =   0.0000000000000E+00
(PID.TID 0000.0001) %MON ad_forcing_adqnet_mean       =   0.0000000000000E+00
(PID.TID 0000.0001) %MON ad_forcing_adqnet_sd         =   0.0000000000000E+00
(PID.TID 0000.0001) %MON ad_forcing_adqnet_del2       =   0.0000000000000E+00
(PID.TID 0000.0001) %MON ad_forcing_adqsw_max         =   5.1031548332098E-04
(PID.TID 0000.0001) %MON ad_forcing_adqsw_min         =  -4.6408689838713E-04
(PID.TID 0000.0001) %MON ad_forcing_adqsw_mean        =   3.1097308387111E-05
(PID.TID 0000.0001) %MON ad_forcing_adqsw_sd          =   8.7280842418851E-05
(PID.TID 0000.0001) %MON ad_forcing_adqsw_del2        =   1.3949575928395E-06
(PID.TID 0000.0001) %MON ad_forcing_adempmr_max       =   0.0000000000000E+00
(PID.TID 0000.0001) %MON ad_forcing_adempmr_min       =   0.0000000000000E+00
(PID.TID 0000.0001) %MON ad_forcing_adempmr_mean      =   0.0000000000000E+00
(PID.TID 0000.0001) %MON ad_forcing_adempmr_sd        =   0.0000000000000E+00
(PID.TID 0000.0001) %MON ad_forcing_adempmr_del2      =   0.0000000000000E+00
(PID.TID 0000.0001) %MON ad_forcing_adfu_max          =   0.0000000000000E+00
(PID.TID 0000.0001) %MON ad_forcing_adfu_min          =   0.0000000000000E+00
(PID.TID 0000.0001) %MON ad_forcing_adfu_mean         =   0.0000000000000E+00
(PID.TID 0000.0001) %MON ad_forcing_adfu_sd           =   0.0000000000000E+00
(PID.TID 0000.0001) %MON ad_forcing_adfu_del2         =   0.0000000000000E+00
(PID.TID 0000.0001) %MON ad_forcing_adfv_max          =   0.0000000000000E+00
(PID.TID 0000.0001) %MON ad_forcing_adfv_min          =   0.0000000000000E+00
(PID.TID 0000.0001) %MON ad_forcing_adfv_mean         =   0.0000000000000E+00
(PID.TID 0000.0001) %MON ad_forcing_adfv_sd           =   0.0000000000000E+00
(PID.TID 0000.0001) %MON ad_forcing_adfv_del2         =   0.0000000000000E+00
(PID.TID 0000.0001) // =======================================================
(PID.TID 0000.0001) // End AD_MONITOR dynamic field statistics
(PID.TID 0000.0001) // =======================================================
 Calling cg2d from S/R CG2D_SAD
 cg2d: Sum(rhs),rhsMax =  -1.51788304147971E-18  2.60385267701156E-03
 EXTERNAL_FIELDS_LOAD, it=     72000 : Reading new data, i0,i1=   12    1 (prev=   12    1 )
(PID.TID 0000.0001) SOLVE_FOR_PRESSURE: putPmEinXvector =    F
 cg2d: Sum(rhs),rhsMax =  -9.91917659121100E-12  4.28293538309627E+00
 cg2d: Sum(rhs),rhsMax =  -9.54969436861575E-12  4.28169923321767E+00
 cg2d: Sum(rhs),rhsMax =  -9.54969436861575E-12  4.28169923321767E+00
(PID.TID 0000.0001) // =======================================================
(PID.TID 0000.0001) // Begin AD_MONITOR dynamic field statistics
(PID.TID 0000.0001) // =======================================================
(PID.TID 0000.0001) %MON ad_time_tsnumber             =                 72002
(PID.TID 0000.0001) %MON ad_time_secondsf             =   6.2209728000000E+09
(PID.TID 0000.0001) %MON ad_dynstat_adeta_max         =   0.0000000000000E+00
(PID.TID 0000.0001) %MON ad_dynstat_adeta_min         =   0.0000000000000E+00
(PID.TID 0000.0001) %MON ad_dynstat_adeta_mean        =   0.0000000000000E+00
(PID.TID 0000.0001) %MON ad_dynstat_adeta_sd          =   0.0000000000000E+00
(PID.TID 0000.0001) %MON ad_dynstat_adeta_del2        =   0.0000000000000E+00
(PID.TID 0000.0001) %MON ad_dynstat_aduvel_max        =   6.0225350219975E+01
(PID.TID 0000.0001) %MON ad_dynstat_aduvel_min        =  -1.4643516410103E+02
(PID.TID 0000.0001) %MON ad_dynstat_aduvel_mean       =   1.7955761871268E-01
(PID.TID 0000.0001) %MON ad_dynstat_aduvel_sd         =   3.2303096014045E+00
(PID.TID 0000.0001) %MON ad_dynstat_aduvel_del2       =   3.1541944554679E-02
(PID.TID 0000.0001) %MON ad_dynstat_advvel_max        =   8.0546521681181E+01
(PID.TID 0000.0001) %MON ad_dynstat_advvel_min        =  -4.6806265679493E+01
(PID.TID 0000.0001) %MON ad_dynstat_advvel_mean       =   1.7138972586655E-02
(PID.TID 0000.0001) %MON ad_dynstat_advvel_sd         =   3.0742812829270E+00
(PID.TID 0000.0001) %MON ad_dynstat_advvel_del2       =   2.6281923577940E-02
(PID.TID 0000.0001) %MON ad_dynstat_adwvel_max        =   1.2176089564153E+02
(PID.TID 0000.0001) %MON ad_dynstat_adwvel_min        =  -9.1570781914965E+01
(PID.TID 0000.0001) %MON ad_dynstat_adwvel_mean       =   7.0876692199504E-05
(PID.TID 0000.0001) %MON ad_dynstat_adwvel_sd         =   1.0962709038872E+00
(PID.TID 0000.0001) %MON ad_dynstat_adwvel_del2       =   1.5168164502326E-02
(PID.TID 0000.0001) %MON ad_dynstat_adtheta_max       =   3.3536905049905E+01
(PID.TID 0000.0001) %MON ad_dynstat_adtheta_min       =  -3.3001304249886E+01
(PID.TID 0000.0001) %MON ad_dynstat_adtheta_mean      =   6.1249365962716E-01
(PID.TID 0000.0001) %MON ad_dynstat_adtheta_sd        =   1.8974958055004E+00
(PID.TID 0000.0001) %MON ad_dynstat_adtheta_del2      =   9.0206366899273E-03
(PID.TID 0000.0001) %MON ad_dynstat_adsalt_max        =   1.1797794694209E+02
(PID.TID 0000.0001) %MON ad_dynstat_adsalt_min        =  -1.1732066100583E+02
(PID.TID 0000.0001) %MON ad_dynstat_adsalt_mean       =  -8.5456421197736E-03
(PID.TID 0000.0001) %MON ad_dynstat_adsalt_sd         =   7.3441593217083E-01
(PID.TID 0000.0001) %MON ad_dynstat_adsalt_del2       =   1.9031086522667E-02
(PID.TID 0000.0001) %MON ad_forcing_adqnet_max        =   0.0000000000000E+00
(PID.TID 0000.0001) %MON ad_forcing_adqnet_min        =   0.0000000000000E+00
(PID.TID 0000.0001) %MON ad_forcing_adqnet_mean       =   0.0000000000000E+00
(PID.TID 0000.0001) %MON ad_forcing_adqnet_sd         =   0.0000000000000E+00
(PID.TID 0000.0001) %MON ad_forcing_adqnet_del2       =   0.0000000000000E+00
(PID.TID 0000.0001) %MON ad_forcing_adqsw_max         =   7.6189233655025E-04
(PID.TID 0000.0001) %MON ad_forcing_adqsw_min         =  -9.2874798532251E-04
(PID.TID 0000.0001) %MON ad_forcing_adqsw_mean        =   4.6518714182613E-05
(PID.TID 0000.0001) %MON ad_forcing_adqsw_sd          =   1.3116805405790E-04
(PID.TID 0000.0001) %MON ad_forcing_adqsw_del2        =   2.3508069240878E-06
(PID.TID 0000.0001) %MON ad_forcing_adempmr_max       =   0.0000000000000E+00
(PID.TID 0000.0001) %MON ad_forcing_adempmr_min       =   0.0000000000000E+00
(PID.TID 0000.0001) %MON ad_forcing_adempmr_mean      =   0.0000000000000E+00
(PID.TID 0000.0001) %MON ad_forcing_adempmr_sd        =   0.0000000000000E+00
(PID.TID 0000.0001) %MON ad_forcing_adempmr_del2      =   0.0000000000000E+00
(PID.TID 0000.0001) %MON ad_forcing_adfu_max          =   0.0000000000000E+00
(PID.TID 0000.0001) %MON ad_forcing_adfu_min          =   0.0000000000000E+00
(PID.TID 0000.0001) %MON ad_forcing_adfu_mean         =   0.0000000000000E+00
(PID.TID 0000.0001) %MON ad_forcing_adfu_sd           =   0.0000000000000E+00
(PID.TID 0000.0001) %MON ad_forcing_adfu_del2         =   0.0000000000000E+00
(PID.TID 0000.0001) %MON ad_forcing_adfv_max          =   0.0000000000000E+00
(PID.TID 0000.0001) %MON ad_forcing_adfv_min          =   0.0000000000000E+00
(PID.TID 0000.0001) %MON ad_forcing_adfv_mean         =   0.0000000000000E+00
(PID.TID 0000.0001) %MON ad_forcing_adfv_sd           =   0.0000000000000E+00
(PID.TID 0000.0001) %MON ad_forcing_adfv_del2         =   0.0000000000000E+00
(PID.TID 0000.0001) // =======================================================
(PID.TID 0000.0001) // End AD_MONITOR dynamic field statistics
(PID.TID 0000.0001) // =======================================================
 Calling cg2d from S/R CG2D_SAD
 cg2d: Sum(rhs),rhsMax =  -1.51788304147971E-18  2.97812614094291E-03
 EXTERNAL_FIELDS_LOAD, it=     72000 : Reading new data, i0,i1=   12    1 (prev=   12    1 )
(PID.TID 0000.0001) SOLVE_FOR_PRESSURE: putPmEinXvector =    F
 cg2d: Sum(rhs),rhsMax =  -9.91917659121100E-12  4.28293538309627E+00
(PID.TID 0000.0001) // =======================================================
(PID.TID 0000.0001) // Begin AD_MONITOR dynamic field statistics
(PID.TID 0000.0001) // =======================================================
(PID.TID 0000.0001) %MON ad_time_tsnumber             =                 72001
(PID.TID 0000.0001) %MON ad_time_secondsf             =   6.2208864000000E+09
(PID.TID 0000.0001) %MON ad_dynstat_adeta_max         =   0.0000000000000E+00
(PID.TID 0000.0001) %MON ad_dynstat_adeta_min         =   0.0000000000000E+00
(PID.TID 0000.0001) %MON ad_dynstat_adeta_mean        =   0.0000000000000E+00
(PID.TID 0000.0001) %MON ad_dynstat_adeta_sd          =   0.0000000000000E+00
(PID.TID 0000.0001) %MON ad_dynstat_adeta_del2        =   0.0000000000000E+00
(PID.TID 0000.0001) %MON ad_dynstat_aduvel_max        =   7.3745520483320E+01
(PID.TID 0000.0001) %MON ad_dynstat_aduvel_min        =  -1.8996228575860E+02
(PID.TID 0000.0001) %MON ad_dynstat_aduvel_mean       =   2.3074048015938E-01
(PID.TID 0000.0001) %MON ad_dynstat_aduvel_sd         =   4.2085720005595E+00
(PID.TID 0000.0001) %MON ad_dynstat_aduvel_del2       =   4.0378018003256E-02
(PID.TID 0000.0001) %MON ad_dynstat_advvel_max        =   1.0223989908298E+02
(PID.TID 0000.0001) %MON ad_dynstat_advvel_min        =  -5.9172989670903E+01
(PID.TID 0000.0001) %MON ad_dynstat_advvel_mean       =   6.4417617625121E-02
(PID.TID 0000.0001) %MON ad_dynstat_advvel_sd         =   4.0064676253028E+00
(PID.TID 0000.0001) %MON ad_dynstat_advvel_del2       =   3.3572267269094E-02
(PID.TID 0000.0001) %MON ad_dynstat_adwvel_max        =   1.5428612969666E+02
(PID.TID 0000.0001) %MON ad_dynstat_adwvel_min        =  -1.1823990697789E+02
(PID.TID 0000.0001) %MON ad_dynstat_adwvel_mean       =  -1.2766498437276E-04
(PID.TID 0000.0001) %MON ad_dynstat_adwvel_sd         =   1.3961411857319E+00
(PID.TID 0000.0001) %MON ad_dynstat_adwvel_del2       =   1.9167403500375E-02
(PID.TID 0000.0001) %MON ad_dynstat_adtheta_max       =   1.8782118275526E+01
(PID.TID 0000.0001) %MON ad_dynstat_adtheta_min       =  -2.0062653186741E+01
(PID.TID 0000.0001) %MON ad_dynstat_adtheta_mean      =   6.1319448308861E-01
(PID.TID 0000.0001) %MON ad_dynstat_adtheta_sd        =   1.8929590061854E+00
(PID.TID 0000.0001) %MON ad_dynstat_adtheta_del2      =   8.4676202782390E-03
(PID.TID 0000.0001) %MON ad_dynstat_adsalt_max        =   7.4423687881251E+01
(PID.TID 0000.0001) %MON ad_dynstat_adsalt_min        =  -7.2323039582595E+01
(PID.TID 0000.0001) %MON ad_dynstat_adsalt_mean       =  -1.3559454552830E-02
(PID.TID 0000.0001) %MON ad_dynstat_adsalt_sd         =   8.8141194187718E-01
(PID.TID 0000.0001) %MON ad_dynstat_adsalt_del2       =   1.7298458570895E-02
(PID.TID 0000.0001) %MON ad_forcing_adqnet_max        =   0.0000000000000E+00
(PID.TID 0000.0001) %MON ad_forcing_adqnet_min        =   0.0000000000000E+00
(PID.TID 0000.0001) %MON ad_forcing_adqnet_mean       =   0.0000000000000E+00
(PID.TID 0000.0001) %MON ad_forcing_adqnet_sd         =   0.0000000000000E+00
(PID.TID 0000.0001) %MON ad_forcing_adqnet_del2       =   0.0000000000000E+00
(PID.TID 0000.0001) %MON ad_forcing_adqsw_max         =   1.0111060210185E-03
(PID.TID 0000.0001) %MON ad_forcing_adqsw_min         =  -1.5262725651592E-03
(PID.TID 0000.0001) %MON ad_forcing_adqsw_mean        =   6.2042793786547E-05
(PID.TID 0000.0001) %MON ad_forcing_adqsw_sd          =   1.7416752534944E-04
(PID.TID 0000.0001) %MON ad_forcing_adqsw_del2        =   3.2673740970987E-06
(PID.TID 0000.0001) %MON ad_forcing_adempmr_max       =   0.0000000000000E+00
(PID.TID 0000.0001) %MON ad_forcing_adempmr_min       =   0.0000000000000E+00
(PID.TID 0000.0001) %MON ad_forcing_adempmr_mean      =   0.0000000000000E+00
(PID.TID 0000.0001) %MON ad_forcing_adempmr_sd        =   0.0000000000000E+00
(PID.TID 0000.0001) %MON ad_forcing_adempmr_del2      =   0.0000000000000E+00
(PID.TID 0000.0001) %MON ad_forcing_adfu_max          =   0.0000000000000E+00
(PID.TID 0000.0001) %MON ad_forcing_adfu_min          =   0.0000000000000E+00
(PID.TID 0000.0001) %MON ad_forcing_adfu_mean         =   0.0000000000000E+00
(PID.TID 0000.0001) %MON ad_forcing_adfu_sd           =   0.0000000000000E+00
(PID.TID 0000.0001) %MON ad_forcing_adfu_del2         =   0.0000000000000E+00
(PID.TID 0000.0001) %MON ad_forcing_adfv_max          =   0.0000000000000E+00
(PID.TID 0000.0001) %MON ad_forcing_adfv_min          =   0.0000000000000E+00
(PID.TID 0000.0001) %MON ad_forcing_adfv_mean         =   0.0000000000000E+00
(PID.TID 0000.0001) %MON ad_forcing_adfv_sd           =   0.0000000000000E+00
(PID.TID 0000.0001) %MON ad_forcing_adfv_del2         =   0.0000000000000E+00
(PID.TID 0000.0001) // =======================================================
(PID.TID 0000.0001) // End AD_MONITOR dynamic field statistics
(PID.TID 0000.0001) // =======================================================
 Calling cg2d from S/R CG2D_SAD
 cg2d: Sum(rhs),rhsMax =   1.73472347597681E-18  2.73831339130236E-03
(PID.TID 0000.0001)  nRecords = 123 ; filePrec =  64 ; fileIter =     72000
(PID.TID 0000.0001)     nDims =   2 , dims:
(PID.TID 0000.0001)    1: 192   1 192
(PID.TID 0000.0001)    2:  32   1  32
(PID.TID 0000.0001)     nFlds =  11 , nFl3D =   8 , fields:
(PID.TID 0000.0001)  >Uvel    < >GuNm1   < >Vvel    < >GvNm1   < >Theta   < >GtNm1   < >Salt    < >GsNm1   < >EtaN    < >dEtaHdt < >EtaH    <
(PID.TID 0000.0001) missingVal=  1.00000000000000E+00 ; nTimRec =   0 , timeList:
(PID.TID 0000.0001) READ_MFLDS_3D_RL: read field: "Uvel    ", #   1 in fldList, rec=   1
(PID.TID 0000.0001) READ_MFLDS_3D_RL: read field: "Vvel    ", #   3 in fldList, rec=   3
(PID.TID 0000.0001) READ_MFLDS_3D_RL: read field: "Theta   ", #   5 in fldList, rec=   5
(PID.TID 0000.0001) READ_MFLDS_3D_RL: read field: "Salt    ", #   7 in fldList, rec=   7
(PID.TID 0000.0001) READ_MFLDS_3D_RL: read field: "GuNm1   ", #   2 in fldList, rec=   2
(PID.TID 0000.0001) READ_MFLDS_3D_RL: field: "GuNm2   " missing in file: pickup.0000072000
(PID.TID 0000.0001) READ_MFLDS_3D_RL: read field: "GvNm1   ", #   4 in fldList, rec=   4
(PID.TID 0000.0001) READ_MFLDS_3D_RL: field: "GvNm2   " missing in file: pickup.0000072000
(PID.TID 0000.0001) READ_MFLDS_3D_RL: read field: "EtaN    ", #   9 in fldList, rec= 121
(PID.TID 0000.0001) READ_MFLDS_3D_RL: read field: "dEtaHdt ", #  10 in fldList, rec= 122
(PID.TID 0000.0001) READ_MFLDS_3D_RL: read field: "EtaH    ", #  11 in fldList, rec= 123
(PID.TID 0000.0001) // =======================================================
(PID.TID 0000.0001) // Begin AD_MONITOR dynamic field statistics
(PID.TID 0000.0001) // =======================================================
(PID.TID 0000.0001) %MON ad_time_tsnumber             =                 72000
(PID.TID 0000.0001) %MON ad_time_secondsf             =   6.2208000000000E+09
(PID.TID 0000.0001) %MON ad_dynstat_adeta_max         =   0.0000000000000E+00
(PID.TID 0000.0001) %MON ad_dynstat_adeta_min         =   0.0000000000000E+00
(PID.TID 0000.0001) %MON ad_dynstat_adeta_mean        =   0.0000000000000E+00
(PID.TID 0000.0001) %MON ad_dynstat_adeta_sd          =   0.0000000000000E+00
(PID.TID 0000.0001) %MON ad_dynstat_adeta_del2        =   0.0000000000000E+00
(PID.TID 0000.0001) %MON ad_dynstat_aduvel_max        =   8.4659227458146E+01
(PID.TID 0000.0001) %MON ad_dynstat_aduvel_min        =  -2.2998763110595E+02
(PID.TID 0000.0001) %MON ad_dynstat_aduvel_mean       =   2.6288773842192E-01
(PID.TID 0000.0001) %MON ad_dynstat_aduvel_sd         =   5.1187097927903E+00
(PID.TID 0000.0001) %MON ad_dynstat_aduvel_del2       =   4.8337478164258E-02
(PID.TID 0000.0001) %MON ad_dynstat_advvel_max        =   1.2315250302166E+02
(PID.TID 0000.0001) %MON ad_dynstat_advvel_min        =  -7.1567614632869E+01
(PID.TID 0000.0001) %MON ad_dynstat_advvel_mean       =   1.0500191438162E-01
(PID.TID 0000.0001) %MON ad_dynstat_advvel_sd         =   4.8774700468645E+00
(PID.TID 0000.0001) %MON ad_dynstat_advvel_del2       =   4.0094367023702E-02
(PID.TID 0000.0001) %MON ad_dynstat_adwvel_max        =   1.1430727844807E+02
(PID.TID 0000.0001) %MON ad_dynstat_adwvel_min        =  -8.7215998562588E+01
(PID.TID 0000.0001) %MON ad_dynstat_adwvel_mean       =  -2.2911127133573E-04
(PID.TID 0000.0001) %MON ad_dynstat_adwvel_sd         =   1.0399925396705E+00
(PID.TID 0000.0001) %MON ad_dynstat_adwvel_del2       =   1.4080379751117E-02
(PID.TID 0000.0001) %MON ad_dynstat_adtheta_max       =   1.7912282334244E+01
(PID.TID 0000.0001) %MON ad_dynstat_adtheta_min       =  -1.9861763278026E+01
(PID.TID 0000.0001) %MON ad_dynstat_adtheta_mean      =   6.1409814237076E-01
(PID.TID 0000.0001) %MON ad_dynstat_adtheta_sd        =   1.8917318375676E+00
(PID.TID 0000.0001) %MON ad_dynstat_adtheta_del2      =   8.3381330099333E-03
(PID.TID 0000.0001) %MON ad_dynstat_adsalt_max        =   9.1195166971105E+01
(PID.TID 0000.0001) %MON ad_dynstat_adsalt_min        =  -9.0049117528924E+01
(PID.TID 0000.0001) %MON ad_dynstat_adsalt_mean       =  -1.9555584361083E-02
(PID.TID 0000.0001) %MON ad_dynstat_adsalt_sd         =   1.1483279179483E+00
(PID.TID 0000.0001) %MON ad_dynstat_adsalt_del2       =   1.8508056400940E-02
(PID.TID 0000.0001) %MON ad_forcing_adqnet_max        =   0.0000000000000E+00
(PID.TID 0000.0001) %MON ad_forcing_adqnet_min        =   0.0000000000000E+00
(PID.TID 0000.0001) %MON ad_forcing_adqnet_mean       =   0.0000000000000E+00
(PID.TID 0000.0001) %MON ad_forcing_adqnet_sd         =   0.0000000000000E+00
(PID.TID 0000.0001) %MON ad_forcing_adqnet_del2       =   0.0000000000000E+00
(PID.TID 0000.0001) %MON ad_forcing_adqsw_max         =   1.2579513746039E-03
(PID.TID 0000.0001) %MON ad_forcing_adqsw_min         =  -1.8802120662236E-03
(PID.TID 0000.0001) %MON ad_forcing_adqsw_mean        =   7.7577235668327E-05
(PID.TID 0000.0001) %MON ad_forcing_adqsw_sd          =   2.1599002916255E-04
(PID.TID 0000.0001) %MON ad_forcing_adqsw_del2        =   4.0920076216170E-06
(PID.TID 0000.0001) %MON ad_forcing_adempmr_max       =   0.0000000000000E+00
(PID.TID 0000.0001) %MON ad_forcing_adempmr_min       =   0.0000000000000E+00
(PID.TID 0000.0001) %MON ad_forcing_adempmr_mean      =   0.0000000000000E+00
(PID.TID 0000.0001) %MON ad_forcing_adempmr_sd        =   0.0000000000000E+00
(PID.TID 0000.0001) %MON ad_forcing_adempmr_del2      =   0.0000000000000E+00
(PID.TID 0000.0001) %MON ad_forcing_adfu_max          =   0.0000000000000E+00
(PID.TID 0000.0001) %MON ad_forcing_adfu_min          =   0.0000000000000E+00
(PID.TID 0000.0001) %MON ad_forcing_adfu_mean         =   0.0000000000000E+00
(PID.TID 0000.0001) %MON ad_forcing_adfu_sd           =   0.0000000000000E+00
(PID.TID 0000.0001) %MON ad_forcing_adfu_del2         =   0.0000000000000E+00
(PID.TID 0000.0001) %MON ad_forcing_adfv_max          =   0.0000000000000E+00
(PID.TID 0000.0001) %MON ad_forcing_adfv_min          =   0.0000000000000E+00
(PID.TID 0000.0001) %MON ad_forcing_adfv_mean         =   0.0000000000000E+00
(PID.TID 0000.0001) %MON ad_forcing_adfv_sd           =   0.0000000000000E+00
(PID.TID 0000.0001) %MON ad_forcing_adfv_del2         =   0.0000000000000E+00
(PID.TID 0000.0001) // =======================================================
(PID.TID 0000.0001) // End AD_MONITOR dynamic field statistics
(PID.TID 0000.0001) // =======================================================
(PID.TID 0000.0001) // =======================================================
(PID.TID 0000.0001) // Gradient-check starts (grdchk_main)
(PID.TID 0000.0001) // =======================================================
(PID.TID 0000.0001) grdchk reference fc: fcref       =  9.62450968838777E+04
grad-res -------------------------------
 grad-res  proc    #    i    j    k   bi   bj iobc       fc ref            fc + eps           fc - eps
 grad-res  proc    #    i    j    k   bi   bj iobc      adj grad            fd grad          1 - fd/adj
(PID.TID 0000.0001) ====== Starts gradient-check number   1 (=ichknum) =======
 ph-test icomp, ncvarcomp, ichknum            1       55522           1
 ph-grd _loc: bi, bj, icomptest, ichknum            1           1           0           1
 ph-grd -->hit<--            1           1           1           1
(PID.TID 0000.0001) grdchk pos: i,j,k=    1    1    1 ; bi,bj=   1   1 ; iobc=  1 ; rec=   1
(PID.TID 0000.0001)  nRecords = 123 ; filePrec =  64 ; fileIter =     72000
(PID.TID 0000.0001)     nDims =   2 , dims:
(PID.TID 0000.0001)    1: 192   1 192
(PID.TID 0000.0001)    2:  32   1  32
(PID.TID 0000.0001)     nFlds =  11 , nFl3D =   8 , fields:
(PID.TID 0000.0001)  >Uvel    < >GuNm1   < >Vvel    < >GvNm1   < >Theta   < >GtNm1   < >Salt    < >GsNm1   < >EtaN    < >dEtaHdt < >EtaH    <
(PID.TID 0000.0001) missingVal=  1.00000000000000E+00 ; nTimRec =   0 , timeList:
(PID.TID 0000.0001) READ_MFLDS_3D_RL: read field: "Uvel    ", #   1 in fldList, rec=   1
(PID.TID 0000.0001) READ_MFLDS_3D_RL: read field: "Vvel    ", #   3 in fldList, rec=   3
(PID.TID 0000.0001) READ_MFLDS_3D_RL: read field: "Theta   ", #   5 in fldList, rec=   5
(PID.TID 0000.0001) READ_MFLDS_3D_RL: read field: "Salt    ", #   7 in fldList, rec=   7
(PID.TID 0000.0001) READ_MFLDS_3D_RL: read field: "GuNm1   ", #   2 in fldList, rec=   2
(PID.TID 0000.0001) READ_MFLDS_3D_RL: field: "GuNm2   " missing in file: pickup.0000072000
(PID.TID 0000.0001) READ_MFLDS_3D_RL: read field: "GvNm1   ", #   4 in fldList, rec=   4
(PID.TID 0000.0001) READ_MFLDS_3D_RL: field: "GvNm2   " missing in file: pickup.0000072000
(PID.TID 0000.0001) READ_MFLDS_3D_RL: read field: "EtaN    ", #   9 in fldList, rec= 121
(PID.TID 0000.0001) READ_MFLDS_3D_RL: read field: "dEtaHdt ", #  10 in fldList, rec= 122
(PID.TID 0000.0001) READ_MFLDS_3D_RL: read field: "EtaH    ", #  11 in fldList, rec= 123
(PID.TID 0000.0001) // =======================================================
(PID.TID 0000.0001) // Model current state
(PID.TID 0000.0001) // =======================================================
(PID.TID 0000.0001) 
 EXTERNAL_FIELDS_LOAD, it=     72000 : Reading new data, i0,i1=   12    1 (prev=   12    0 )
(PID.TID 0000.0001) SOLVE_FOR_PRESSURE: putPmEinXvector =    F
 cg2d: Sum(rhs),rhsMax =  -9.94759830064140E-12  4.28293538309627E+00
 cg2d: Sum(rhs),rhsMax =  -9.63495949690696E-12  4.28169923309178E+00
 cg2d: Sum(rhs),rhsMax =  -9.57811607804615E-12  4.26963529374297E+00
 cg2d: Sum(rhs),rhsMax =  -9.77706804405898E-12  4.26825643086161E+00
 cg2d: Sum(rhs),rhsMax =  -9.57811607804615E-12  4.26314508061259E+00
(PID.TID 0000.0001) Did not write pickup because writePickupAtEnd = FALSE
(PID.TID 0000.0001)   early fc =  0.000000000000000D+00
 --> objf_test(bi,bj)   =  0.112643372566242D+05
 --> objf_test(bi,bj)   =  0.925748325772629D+04
 --> objf_test(bi,bj)   =  0.646782340662449D+04
 --> objf_test(bi,bj)   =  0.425114892282026D+04
 --> objf_test(bi,bj)   =  0.468651159539714D+04
 --> objf_test(bi,bj)   =  0.131971832167080D+05
 --> objf_test(bi,bj)   =  0.111682590459499D+05
 --> objf_test(bi,bj)   =  0.109410446673657D+05
 --> objf_test(bi,bj)   =  0.691550498899515D+04
 --> objf_test(bi,bj)   =  0.683247680663149D+04
 --> objf_test(bi,bj)   =  0.520040324847601D+04
 --> objf_test(bi,bj)   =  0.606296259953934D+04
(PID.TID 0000.0001)   local fc =  0.962451390128580D+05
(PID.TID 0000.0001)  global fc =  0.962451390128580D+05
(PID.TID 0000.0001) grdchk perturb(+)fc: fcpertplus  =  9.62451390128580E+04
(PID.TID 0000.0001)  nRecords = 123 ; filePrec =  64 ; fileIter =     72000
(PID.TID 0000.0001)     nDims =   2 , dims:
(PID.TID 0000.0001)    1: 192   1 192
(PID.TID 0000.0001)    2:  32   1  32
(PID.TID 0000.0001)     nFlds =  11 , nFl3D =   8 , fields:
(PID.TID 0000.0001)  >Uvel    < >GuNm1   < >Vvel    < >GvNm1   < >Theta   < >GtNm1   < >Salt    < >GsNm1   < >EtaN    < >dEtaHdt < >EtaH    <
(PID.TID 0000.0001) missingVal=  1.00000000000000E+00 ; nTimRec =   0 , timeList:
(PID.TID 0000.0001) READ_MFLDS_3D_RL: read field: "Uvel    ", #   1 in fldList, rec=   1
(PID.TID 0000.0001) READ_MFLDS_3D_RL: read field: "Vvel    ", #   3 in fldList, rec=   3
(PID.TID 0000.0001) READ_MFLDS_3D_RL: read field: "Theta   ", #   5 in fldList, rec=   5
(PID.TID 0000.0001) READ_MFLDS_3D_RL: read field: "Salt    ", #   7 in fldList, rec=   7
(PID.TID 0000.0001) READ_MFLDS_3D_RL: read field: "GuNm1   ", #   2 in fldList, rec=   2
(PID.TID 0000.0001) READ_MFLDS_3D_RL: field: "GuNm2   " missing in file: pickup.0000072000
(PID.TID 0000.0001) READ_MFLDS_3D_RL: read field: "GvNm1   ", #   4 in fldList, rec=   4
(PID.TID 0000.0001) READ_MFLDS_3D_RL: field: "GvNm2   " missing in file: pickup.0000072000
(PID.TID 0000.0001) READ_MFLDS_3D_RL: read field: "EtaN    ", #   9 in fldList, rec= 121
(PID.TID 0000.0001) READ_MFLDS_3D_RL: read field: "dEtaHdt ", #  10 in fldList, rec= 122
(PID.TID 0000.0001) READ_MFLDS_3D_RL: read field: "EtaH    ", #  11 in fldList, rec= 123
(PID.TID 0000.0001) // =======================================================
(PID.TID 0000.0001) // Model current state
(PID.TID 0000.0001) // =======================================================
(PID.TID 0000.0001) 
 EXTERNAL_FIELDS_LOAD, it=     72000 : Reading new data, i0,i1=   12    1 (prev=   12    0 )
(PID.TID 0000.0001) SOLVE_FOR_PRESSURE: putPmEinXvector =    F
 cg2d: Sum(rhs),rhsMax =  -9.91917659121100E-12  4.28293538309627E+00
 cg2d: Sum(rhs),rhsMax =  -9.66338120633736E-12  4.28169923334260E+00
 cg2d: Sum(rhs),rhsMax =  -9.69180291576777E-12  4.26963529403000E+00
 cg2d: Sum(rhs),rhsMax =  -9.94759830064140E-12  4.26825643184865E+00
 cg2d: Sum(rhs),rhsMax =  -9.74864633462857E-12  4.26314508230317E+00
(PID.TID 0000.0001) Did not write pickup because writePickupAtEnd = FALSE
(PID.TID 0000.0001)   early fc =  0.000000000000000D+00
 --> objf_test(bi,bj)   =  0.112642609216037D+05
 --> objf_test(bi,bj)   =  0.925748325745063D+04
 --> objf_test(bi,bj)   =  0.646782340679691D+04
 --> objf_test(bi,bj)   =  0.425114892285235D+04
 --> objf_test(bi,bj)   =  0.468651159540515D+04
 --> objf_test(bi,bj)   =  0.131971832168058D+05
 --> objf_test(bi,bj)   =  0.111682590459818D+05
 --> objf_test(bi,bj)   =  0.109410446673247D+05
 --> objf_test(bi,bj)   =  0.691550498891398D+04
 --> objf_test(bi,bj)   =  0.683247342298352D+04
 --> objf_test(bi,bj)   =  0.520040324837028D+04
 --> objf_test(bi,bj)   =  0.606295817365044D+04
(PID.TID 0000.0001)   local fc =  0.962450548681393D+05
(PID.TID 0000.0001)  global fc =  0.962450548681393D+05
(PID.TID 0000.0001) grdchk perturb(-)fc: fcpertminus =  9.62450548681393E+04
grad-res -------------------------------
 grad-res     0    1    1    1    1    1    1    1   9.62450968839E+04  9.62451390129E+04  9.62450548681E+04
 grad-res     0    1    1    1    0    1    1    1   4.20725616108E+00  4.20723593925E+00  4.80641879164E-06
(PID.TID 0000.0001)  ADM  ref_cost_function      =  9.62450968838777E+04
(PID.TID 0000.0001)  ADM  adjoint_gradient       =  4.20725616108284E+00
(PID.TID 0000.0001)  ADM  finite-diff_grad       =  4.20723593924777E+00
(PID.TID 0000.0001) ====== End of gradient-check number   1 (ierr=  0) =======
(PID.TID 0000.0001) ====== Starts gradient-check number   2 (=ichknum) =======
 ph-test icomp, ncvarcomp, ichknum            2       55522           2
 ph-grd _loc: bi, bj, icomptest, ichknum            1           1           1           2
 ph-grd -->hit<--            2           1           1           1
(PID.TID 0000.0001) grdchk pos: i,j,k=    2    1    1 ; bi,bj=   1   1 ; iobc=  1 ; rec=   1
(PID.TID 0000.0001)  nRecords = 123 ; filePrec =  64 ; fileIter =     72000
(PID.TID 0000.0001)     nDims =   2 , dims:
(PID.TID 0000.0001)    1: 192   1 192
(PID.TID 0000.0001)    2:  32   1  32
(PID.TID 0000.0001)     nFlds =  11 , nFl3D =   8 , fields:
(PID.TID 0000.0001)  >Uvel    < >GuNm1   < >Vvel    < >GvNm1   < >Theta   < >GtNm1   < >Salt    < >GsNm1   < >EtaN    < >dEtaHdt < >EtaH    <
(PID.TID 0000.0001) missingVal=  1.00000000000000E+00 ; nTimRec =   0 , timeList:
(PID.TID 0000.0001) READ_MFLDS_3D_RL: read field: "Uvel    ", #   1 in fldList, rec=   1
(PID.TID 0000.0001) READ_MFLDS_3D_RL: read field: "Vvel    ", #   3 in fldList, rec=   3
(PID.TID 0000.0001) READ_MFLDS_3D_RL: read field: "Theta   ", #   5 in fldList, rec=   5
(PID.TID 0000.0001) READ_MFLDS_3D_RL: read field: "Salt    ", #   7 in fldList, rec=   7
(PID.TID 0000.0001) READ_MFLDS_3D_RL: read field: "GuNm1   ", #   2 in fldList, rec=   2
(PID.TID 0000.0001) READ_MFLDS_3D_RL: field: "GuNm2   " missing in file: pickup.0000072000
(PID.TID 0000.0001) READ_MFLDS_3D_RL: read field: "GvNm1   ", #   4 in fldList, rec=   4
(PID.TID 0000.0001) READ_MFLDS_3D_RL: field: "GvNm2   " missing in file: pickup.0000072000
(PID.TID 0000.0001) READ_MFLDS_3D_RL: read field: "EtaN    ", #   9 in fldList, rec= 121
(PID.TID 0000.0001) READ_MFLDS_3D_RL: read field: "dEtaHdt ", #  10 in fldList, rec= 122
(PID.TID 0000.0001) READ_MFLDS_3D_RL: read field: "EtaH    ", #  11 in fldList, rec= 123
(PID.TID 0000.0001) // =======================================================
(PID.TID 0000.0001) // Model current state
(PID.TID 0000.0001) // =======================================================
(PID.TID 0000.0001) 
 EXTERNAL_FIELDS_LOAD, it=     72000 : Reading new data, i0,i1=   12    1 (prev=   12    0 )
(PID.TID 0000.0001) SOLVE_FOR_PRESSURE: putPmEinXvector =    F
 cg2d: Sum(rhs),rhsMax =  -9.91917659121100E-12  4.28293538309627E+00
 cg2d: Sum(rhs),rhsMax =  -9.26547727431171E-12  4.28169923323468E+00
 cg2d: Sum(rhs),rhsMax =  -9.60653778747655E-12  4.26963529351408E+00
 cg2d: Sum(rhs),rhsMax =  -9.63495949690696E-12  4.26825643055480E+00
 cg2d: Sum(rhs),rhsMax =  -9.54969436861575E-12  4.26314508002631E+00
(PID.TID 0000.0001) Did not write pickup because writePickupAtEnd = FALSE
(PID.TID 0000.0001)   early fc =  0.000000000000000D+00
 --> objf_test(bi,bj)   =  0.112643378735474D+05
 --> objf_test(bi,bj)   =  0.925748325782452D+04
 --> objf_test(bi,bj)   =  0.646782340656220D+04
 --> objf_test(bi,bj)   =  0.425114892280886D+04
 --> objf_test(bi,bj)   =  0.468651159539393D+04
 --> objf_test(bi,bj)   =  0.131971832166721D+05
 --> objf_test(bi,bj)   =  0.111682590459387D+05
 --> objf_test(bi,bj)   =  0.109410446673796D+05
 --> objf_test(bi,bj)   =  0.691550498902364D+04
 --> objf_test(bi,bj)   =  0.683247522999841D+04
 --> objf_test(bi,bj)   =  0.520040324851358D+04
 --> objf_test(bi,bj)   =  0.606296159243508D+04
(PID.TID 0000.0001)   local fc =  0.962451370460980D+05
(PID.TID 0000.0001)  global fc =  0.962451370460980D+05
(PID.TID 0000.0001) grdchk perturb(+)fc: fcpertplus  =  9.62451370460980E+04
(PID.TID 0000.0001)  nRecords = 123 ; filePrec =  64 ; fileIter =     72000
(PID.TID 0000.0001)     nDims =   2 , dims:
(PID.TID 0000.0001)    1: 192   1 192
(PID.TID 0000.0001)    2:  32   1  32
(PID.TID 0000.0001)     nFlds =  11 , nFl3D =   8 , fields:
(PID.TID 0000.0001)  >Uvel    < >GuNm1   < >Vvel    < >GvNm1   < >Theta   < >GtNm1   < >Salt    < >GsNm1   < >EtaN    < >dEtaHdt < >EtaH    <
(PID.TID 0000.0001) missingVal=  1.00000000000000E+00 ; nTimRec =   0 , timeList:
(PID.TID 0000.0001) READ_MFLDS_3D_RL: read field: "Uvel    ", #   1 in fldList, rec=   1
(PID.TID 0000.0001) READ_MFLDS_3D_RL: read field: "Vvel    ", #   3 in fldList, rec=   3
(PID.TID 0000.0001) READ_MFLDS_3D_RL: read field: "Theta   ", #   5 in fldList, rec=   5
(PID.TID 0000.0001) READ_MFLDS_3D_RL: read field: "Salt    ", #   7 in fldList, rec=   7
(PID.TID 0000.0001) READ_MFLDS_3D_RL: read field: "GuNm1   ", #   2 in fldList, rec=   2
(PID.TID 0000.0001) READ_MFLDS_3D_RL: field: "GuNm2   " missing in file: pickup.0000072000
(PID.TID 0000.0001) READ_MFLDS_3D_RL: read field: "GvNm1   ", #   4 in fldList, rec=   4
(PID.TID 0000.0001) READ_MFLDS_3D_RL: field: "GvNm2   " missing in file: pickup.0000072000
(PID.TID 0000.0001) READ_MFLDS_3D_RL: read field: "EtaN    ", #   9 in fldList, rec= 121
(PID.TID 0000.0001) READ_MFLDS_3D_RL: read field: "dEtaHdt ", #  10 in fldList, rec= 122
(PID.TID 0000.0001) READ_MFLDS_3D_RL: read field: "EtaH    ", #  11 in fldList, rec= 123
(PID.TID 0000.0001) // =======================================================
(PID.TID 0000.0001) // Model current state
(PID.TID 0000.0001) // =======================================================
(PID.TID 0000.0001) 
 EXTERNAL_FIELDS_LOAD, it=     72000 : Reading new data, i0,i1=   12    1 (prev=   12    0 )
(PID.TID 0000.0001) SOLVE_FOR_PRESSURE: putPmEinXvector =    F
 cg2d: Sum(rhs),rhsMax =  -9.91917659121100E-12  4.28293538309627E+00
 cg2d: Sum(rhs),rhsMax =  -9.57811607804615E-12  4.28169923320466E+00
 cg2d: Sum(rhs),rhsMax =  -9.63495949690696E-12  4.26963529425432E+00
 cg2d: Sum(rhs),rhsMax =  -9.74864633462857E-12  4.26825643215114E+00
 cg2d: Sum(rhs),rhsMax =  -9.69180291576777E-12  4.26314508288620E+00
(PID.TID 0000.0001) Did not write pickup because writePickupAtEnd = FALSE
(PID.TID 0000.0001)   early fc =  0.000000000000000D+00
 --> objf_test(bi,bj)   =  0.112642603199910D+05
 --> objf_test(bi,bj)   =  0.925748325735236D+04
 --> objf_test(bi,bj)   =  0.646782340685920D+04
 --> objf_test(bi,bj)   =  0.425114892286375D+04
 --> objf_test(bi,bj)   =  0.468651159540838D+04
 --> objf_test(bi,bj)   =  0.131971832168416D+05
 --> objf_test(bi,bj)   =  0.111682590459930D+05
 --> objf_test(bi,bj)   =  0.109410446673108D+05
 --> objf_test(bi,bj)   =  0.691550498888552D+04
 --> objf_test(bi,bj)   =  0.683247499739626D+04
 --> objf_test(bi,bj)   =  0.520040324833276D+04
 --> objf_test(bi,bj)   =  0.606295917973303D+04
(PID.TID 0000.0001)   local fc =  0.962450568469676D+05
(PID.TID 0000.0001)  global fc =  0.962450568469676D+05
(PID.TID 0000.0001) grdchk perturb(-)fc: fcpertminus =  9.62450568469676E+04
grad-res -------------------------------
 grad-res     0    2    2    1    1    1    1    1   9.62450968839E+04  9.62451370461E+04  9.62450568470E+04
 grad-res     0    2    2    2    0    1    1    1   4.00967431391E+00  4.00995652017E+00 -7.03813416996E-05
(PID.TID 0000.0001)  ADM  ref_cost_function      =  9.62450968838777E+04
(PID.TID 0000.0001)  ADM  adjoint_gradient       =  4.00967431390919E+00
(PID.TID 0000.0001)  ADM  finite-diff_grad       =  4.00995652016718E+00
(PID.TID 0000.0001) ====== End of gradient-check number   2 (ierr=  0) =======
(PID.TID 0000.0001) ====== Starts gradient-check number   3 (=ichknum) =======
 ph-test icomp, ncvarcomp, ichknum            3       55522           3
 ph-grd _loc: bi, bj, icomptest, ichknum            1           1           2           3
 ph-grd -->hit<--            3           1           1           1
(PID.TID 0000.0001) grdchk pos: i,j,k=    3    1    1 ; bi,bj=   1   1 ; iobc=  1 ; rec=   1
(PID.TID 0000.0001)  nRecords = 123 ; filePrec =  64 ; fileIter =     72000
(PID.TID 0000.0001)     nDims =   2 , dims:
(PID.TID 0000.0001)    1: 192   1 192
(PID.TID 0000.0001)    2:  32   1  32
(PID.TID 0000.0001)     nFlds =  11 , nFl3D =   8 , fields:
(PID.TID 0000.0001)  >Uvel    < >GuNm1   < >Vvel    < >GvNm1   < >Theta   < >GtNm1   < >Salt    < >GsNm1   < >EtaN    < >dEtaHdt < >EtaH    <
(PID.TID 0000.0001) missingVal=  1.00000000000000E+00 ; nTimRec =   0 , timeList:
(PID.TID 0000.0001) READ_MFLDS_3D_RL: read field: "Uvel    ", #   1 in fldList, rec=   1
(PID.TID 0000.0001) READ_MFLDS_3D_RL: read field: "Vvel    ", #   3 in fldList, rec=   3
(PID.TID 0000.0001) READ_MFLDS_3D_RL: read field: "Theta   ", #   5 in fldList, rec=   5
(PID.TID 0000.0001) READ_MFLDS_3D_RL: read field: "Salt    ", #   7 in fldList, rec=   7
(PID.TID 0000.0001) READ_MFLDS_3D_RL: read field: "GuNm1   ", #   2 in fldList, rec=   2
(PID.TID 0000.0001) READ_MFLDS_3D_RL: field: "GuNm2   " missing in file: pickup.0000072000
(PID.TID 0000.0001) READ_MFLDS_3D_RL: read field: "GvNm1   ", #   4 in fldList, rec=   4
(PID.TID 0000.0001) READ_MFLDS_3D_RL: field: "GvNm2   " missing in file: pickup.0000072000
(PID.TID 0000.0001) READ_MFLDS_3D_RL: read field: "EtaN    ", #   9 in fldList, rec= 121
(PID.TID 0000.0001) READ_MFLDS_3D_RL: read field: "dEtaHdt ", #  10 in fldList, rec= 122
(PID.TID 0000.0001) READ_MFLDS_3D_RL: read field: "EtaH    ", #  11 in fldList, rec= 123
(PID.TID 0000.0001) // =======================================================
(PID.TID 0000.0001) // Model current state
(PID.TID 0000.0001) // =======================================================
(PID.TID 0000.0001) 
 EXTERNAL_FIELDS_LOAD, it=     72000 : Reading new data, i0,i1=   12    1 (prev=   12    0 )
(PID.TID 0000.0001) SOLVE_FOR_PRESSURE: putPmEinXvector =    F
 cg2d: Sum(rhs),rhsMax =  -9.91917659121100E-12  4.28293538309627E+00
 cg2d: Sum(rhs),rhsMax =  -9.63495949690696E-12  4.28169923309388E+00
 cg2d: Sum(rhs),rhsMax =  -9.12336872715969E-12  4.26963529344947E+00
 cg2d: Sum(rhs),rhsMax =  -9.80548975348938E-12  4.26825643024617E+00
 cg2d: Sum(rhs),rhsMax =  -9.69180291576777E-12  4.26314507949465E+00
(PID.TID 0000.0001) Did not write pickup because writePickupAtEnd = FALSE
(PID.TID 0000.0001)   early fc =  0.000000000000000D+00
 --> objf_test(bi,bj)   =  0.112643321766277D+05
 --> objf_test(bi,bj)   =  0.925748325789755D+04
 --> objf_test(bi,bj)   =  0.646782340651146D+04
 --> objf_test(bi,bj)   =  0.425114892279978D+04
 --> objf_test(bi,bj)   =  0.468651159539181D+04
 --> objf_test(bi,bj)   =  0.131971832166432D+05
 --> objf_test(bi,bj)   =  0.111682590459291D+05
 --> objf_test(bi,bj)   =  0.109410446673916D+05
 --> objf_test(bi,bj)   =  0.691550498904577D+04
 --> objf_test(bi,bj)   =  0.683247511773938D+04
 --> objf_test(bi,bj)   =  0.520040324854381D+04
 --> objf_test(bi,bj)   =  0.606296088778619D+04
(PID.TID 0000.0001)   local fc =  0.962451305323074D+05
(PID.TID 0000.0001)  global fc =  0.962451305323074D+05
(PID.TID 0000.0001) grdchk perturb(+)fc: fcpertplus  =  9.62451305323074E+04
(PID.TID 0000.0001)  nRecords = 123 ; filePrec =  64 ; fileIter =     72000
(PID.TID 0000.0001)     nDims =   2 , dims:
(PID.TID 0000.0001)    1: 192   1 192
(PID.TID 0000.0001)    2:  32   1  32
(PID.TID 0000.0001)     nFlds =  11 , nFl3D =   8 , fields:
(PID.TID 0000.0001)  >Uvel    < >GuNm1   < >Vvel    < >GvNm1   < >Theta   < >GtNm1   < >Salt    < >GsNm1   < >EtaN    < >dEtaHdt < >EtaH    <
(PID.TID 0000.0001) missingVal=  1.00000000000000E+00 ; nTimRec =   0 , timeList:
(PID.TID 0000.0001) READ_MFLDS_3D_RL: read field: "Uvel    ", #   1 in fldList, rec=   1
(PID.TID 0000.0001) READ_MFLDS_3D_RL: read field: "Vvel    ", #   3 in fldList, rec=   3
(PID.TID 0000.0001) READ_MFLDS_3D_RL: read field: "Theta   ", #   5 in fldList, rec=   5
(PID.TID 0000.0001) READ_MFLDS_3D_RL: read field: "Salt    ", #   7 in fldList, rec=   7
(PID.TID 0000.0001) READ_MFLDS_3D_RL: read field: "GuNm1   ", #   2 in fldList, rec=   2
(PID.TID 0000.0001) READ_MFLDS_3D_RL: field: "GuNm2   " missing in file: pickup.0000072000
(PID.TID 0000.0001) READ_MFLDS_3D_RL: read field: "GvNm1   ", #   4 in fldList, rec=   4
(PID.TID 0000.0001) READ_MFLDS_3D_RL: field: "GvNm2   " missing in file: pickup.0000072000
(PID.TID 0000.0001) READ_MFLDS_3D_RL: read field: "EtaN    ", #   9 in fldList, rec= 121
(PID.TID 0000.0001) READ_MFLDS_3D_RL: read field: "dEtaHdt ", #  10 in fldList, rec= 122
(PID.TID 0000.0001) READ_MFLDS_3D_RL: read field: "EtaH    ", #  11 in fldList, rec= 123
(PID.TID 0000.0001) // =======================================================
(PID.TID 0000.0001) // Model current state
(PID.TID 0000.0001) // =======================================================
(PID.TID 0000.0001) 
 EXTERNAL_FIELDS_LOAD, it=     72000 : Reading new data, i0,i1=   12    1 (prev=   12    0 )
(PID.TID 0000.0001) SOLVE_FOR_PRESSURE: putPmEinXvector =    F
 cg2d: Sum(rhs),rhsMax =  -9.91917659121100E-12  4.28293538309627E+00
 cg2d: Sum(rhs),rhsMax =  -9.77706804405898E-12  4.28169923334344E+00
 cg2d: Sum(rhs),rhsMax =  -9.52127265918534E-12  4.26963529431928E+00
 cg2d: Sum(rhs),rhsMax =  -9.72022462519817E-12  4.26825643245986E+00
 cg2d: Sum(rhs),rhsMax =  -9.80548975348938E-12  4.26314508342227E+00
(PID.TID 0000.0001) Did not write pickup because writePickupAtEnd = FALSE
(PID.TID 0000.0001)   early fc =  0.000000000000000D+00
 --> objf_test(bi,bj)   =  0.112642660239594D+05
 --> objf_test(bi,bj)   =  0.925748325727943D+04
 --> objf_test(bi,bj)   =  0.646782340690992D+04
 --> objf_test(bi,bj)   =  0.425114892287281D+04
 --> objf_test(bi,bj)   =  0.468651159541045D+04
 --> objf_test(bi,bj)   =  0.131971832168705D+05
 --> objf_test(bi,bj)   =  0.111682590460026D+05
 --> objf_test(bi,bj)   =  0.109410446672987D+05
 --> objf_test(bi,bj)   =  0.691550498886338D+04
 --> objf_test(bi,bj)   =  0.683247510961204D+04
 --> objf_test(bi,bj)   =  0.520040324830252D+04
 --> objf_test(bi,bj)   =  0.606295988379960D+04
(PID.TID 0000.0001)   local fc =  0.962450633671813D+05
(PID.TID 0000.0001)  global fc =  0.962450633671813D+05
(PID.TID 0000.0001) grdchk perturb(-)fc: fcpertminus =  9.62450633671813E+04
grad-res -------------------------------
 grad-res     0    3    3    1    1    1    1    1   9.62450968839E+04  9.62451305323E+04  9.62450633672E+04
 grad-res     0    3    3    3    0    1    1    1   3.35835980991E+00  3.35825630609E+00  3.08197539184E-05
(PID.TID 0000.0001)  ADM  ref_cost_function      =  9.62450968838777E+04
(PID.TID 0000.0001)  ADM  adjoint_gradient       =  3.35835980991470E+00
(PID.TID 0000.0001)  ADM  finite-diff_grad       =  3.35825630609179E+00
(PID.TID 0000.0001) ====== End of gradient-check number   3 (ierr=  0) =======
(PID.TID 0000.0001) ====== Starts gradient-check number   4 (=ichknum) =======
 ph-test icomp, ncvarcomp, ichknum            4       55522           4
 ph-grd _loc: bi, bj, icomptest, ichknum            1           1           3           4
 ph-grd -->hit<--            4           1           1           1
(PID.TID 0000.0001) grdchk pos: i,j,k=    4    1    1 ; bi,bj=   1   1 ; iobc=  1 ; rec=   1
(PID.TID 0000.0001)  nRecords = 123 ; filePrec =  64 ; fileIter =     72000
(PID.TID 0000.0001)     nDims =   2 , dims:
(PID.TID 0000.0001)    1: 192   1 192
(PID.TID 0000.0001)    2:  32   1  32
(PID.TID 0000.0001)     nFlds =  11 , nFl3D =   8 , fields:
(PID.TID 0000.0001)  >Uvel    < >GuNm1   < >Vvel    < >GvNm1   < >Theta   < >GtNm1   < >Salt    < >GsNm1   < >EtaN    < >dEtaHdt < >EtaH    <
(PID.TID 0000.0001) missingVal=  1.00000000000000E+00 ; nTimRec =   0 , timeList:
(PID.TID 0000.0001) READ_MFLDS_3D_RL: read field: "Uvel    ", #   1 in fldList, rec=   1
(PID.TID 0000.0001) READ_MFLDS_3D_RL: read field: "Vvel    ", #   3 in fldList, rec=   3
(PID.TID 0000.0001) READ_MFLDS_3D_RL: read field: "Theta   ", #   5 in fldList, rec=   5
(PID.TID 0000.0001) READ_MFLDS_3D_RL: read field: "Salt    ", #   7 in fldList, rec=   7
(PID.TID 0000.0001) READ_MFLDS_3D_RL: read field: "GuNm1   ", #   2 in fldList, rec=   2
(PID.TID 0000.0001) READ_MFLDS_3D_RL: field: "GuNm2   " missing in file: pickup.0000072000
(PID.TID 0000.0001) READ_MFLDS_3D_RL: read field: "GvNm1   ", #   4 in fldList, rec=   4
(PID.TID 0000.0001) READ_MFLDS_3D_RL: field: "GvNm2   " missing in file: pickup.0000072000
(PID.TID 0000.0001) READ_MFLDS_3D_RL: read field: "EtaN    ", #   9 in fldList, rec= 121
(PID.TID 0000.0001) READ_MFLDS_3D_RL: read field: "dEtaHdt ", #  10 in fldList, rec= 122
(PID.TID 0000.0001) READ_MFLDS_3D_RL: read field: "EtaH    ", #  11 in fldList, rec= 123
(PID.TID 0000.0001) // =======================================================
(PID.TID 0000.0001) // Model current state
(PID.TID 0000.0001) // =======================================================
(PID.TID 0000.0001) 
 EXTERNAL_FIELDS_LOAD, it=     72000 : Reading new data, i0,i1=   12    1 (prev=   12    0 )
(PID.TID 0000.0001) SOLVE_FOR_PRESSURE: putPmEinXvector =    F
 cg2d: Sum(rhs),rhsMax =  -9.94759830064140E-12  4.28293538309627E+00
 cg2d: Sum(rhs),rhsMax =  -9.86233317235019E-12  4.28169923304180E+00
 cg2d: Sum(rhs),rhsMax =  -9.80548975348938E-12  4.26963529336835E+00
 cg2d: Sum(rhs),rhsMax =  -9.52127265918534E-12  4.26825642999380E+00
 cg2d: Sum(rhs),rhsMax =  -9.69180291576777E-12  4.26314507905506E+00
(PID.TID 0000.0001) Did not write pickup because writePickupAtEnd = FALSE
(PID.TID 0000.0001)   early fc =  0.000000000000000D+00
 --> objf_test(bi,bj)   =  0.112643265444518D+05
 --> objf_test(bi,bj)   =  0.925748325796112D+04
 --> objf_test(bi,bj)   =  0.646782340647029D+04
 --> objf_test(bi,bj)   =  0.425114892279187D+04
 --> objf_test(bi,bj)   =  0.468651159538956D+04
 --> objf_test(bi,bj)   =  0.131971832166208D+05
 --> objf_test(bi,bj)   =  0.111682590459217D+05
 --> objf_test(bi,bj)   =  0.109410446674004D+05
 --> objf_test(bi,bj)   =  0.691550498906475D+04
 --> objf_test(bi,bj)   =  0.683247511357332D+04
 --> objf_test(bi,bj)   =  0.520040324856871D+04
 --> objf_test(bi,bj)   =  0.606296053240681D+04
(PID.TID 0000.0001)   local fc =  0.962451245406211D+05
(PID.TID 0000.0001)  global fc =  0.962451245406211D+05
(PID.TID 0000.0001) grdchk perturb(+)fc: fcpertplus  =  9.62451245406211E+04
(PID.TID 0000.0001)  nRecords = 123 ; filePrec =  64 ; fileIter =     72000
(PID.TID 0000.0001)     nDims =   2 , dims:
(PID.TID 0000.0001)    1: 192   1 192
(PID.TID 0000.0001)    2:  32   1  32
(PID.TID 0000.0001)     nFlds =  11 , nFl3D =   8 , fields:
(PID.TID 0000.0001)  >Uvel    < >GuNm1   < >Vvel    < >GvNm1   < >Theta   < >GtNm1   < >Salt    < >GsNm1   < >EtaN    < >dEtaHdt < >EtaH    <
(PID.TID 0000.0001) missingVal=  1.00000000000000E+00 ; nTimRec =   0 , timeList:
(PID.TID 0000.0001) READ_MFLDS_3D_RL: read field: "Uvel    ", #   1 in fldList, rec=   1
(PID.TID 0000.0001) READ_MFLDS_3D_RL: read field: "Vvel    ", #   3 in fldList, rec=   3
(PID.TID 0000.0001) READ_MFLDS_3D_RL: read field: "Theta   ", #   5 in fldList, rec=   5
(PID.TID 0000.0001) READ_MFLDS_3D_RL: read field: "Salt    ", #   7 in fldList, rec=   7
(PID.TID 0000.0001) READ_MFLDS_3D_RL: read field: "GuNm1   ", #   2 in fldList, rec=   2
(PID.TID 0000.0001) READ_MFLDS_3D_RL: field: "GuNm2   " missing in file: pickup.0000072000
(PID.TID 0000.0001) READ_MFLDS_3D_RL: read field: "GvNm1   ", #   4 in fldList, rec=   4
(PID.TID 0000.0001) READ_MFLDS_3D_RL: field: "GvNm2   " missing in file: pickup.0000072000
(PID.TID 0000.0001) READ_MFLDS_3D_RL: read field: "EtaN    ", #   9 in fldList, rec= 121
(PID.TID 0000.0001) READ_MFLDS_3D_RL: read field: "dEtaHdt ", #  10 in fldList, rec= 122
(PID.TID 0000.0001) READ_MFLDS_3D_RL: read field: "EtaH    ", #  11 in fldList, rec= 123
(PID.TID 0000.0001) // =======================================================
(PID.TID 0000.0001) // Model current state
(PID.TID 0000.0001) // =======================================================
(PID.TID 0000.0001) 
 EXTERNAL_FIELDS_LOAD, it=     72000 : Reading new data, i0,i1=   12    1 (prev=   12    0 )
(PID.TID 0000.0001) SOLVE_FOR_PRESSURE: putPmEinXvector =    F
 cg2d: Sum(rhs),rhsMax =  -9.94759830064140E-12  4.28293538309627E+00
 cg2d: Sum(rhs),rhsMax =  -9.43600753089413E-12  4.28169923339218E+00
 cg2d: Sum(rhs),rhsMax =  -9.60653778747655E-12  4.26963529440930E+00
 cg2d: Sum(rhs),rhsMax =  -9.72022462519817E-12  4.26825643271412E+00
 cg2d: Sum(rhs),rhsMax =  -9.89075488178059E-12  4.26314508386083E+00
(PID.TID 0000.0001) Did not write pickup because writePickupAtEnd = FALSE
(PID.TID 0000.0001)   early fc =  0.000000000000000D+00
 --> objf_test(bi,bj)   =  0.112642716578244D+05
 --> objf_test(bi,bj)   =  0.925748325721584D+04
 --> objf_test(bi,bj)   =  0.646782340695108D+04
 --> objf_test(bi,bj)   =  0.425114892288071D+04
 --> objf_test(bi,bj)   =  0.468651159541272D+04
 --> objf_test(bi,bj)   =  0.131971832168929D+05
 --> objf_test(bi,bj)   =  0.111682590460102D+05
 --> objf_test(bi,bj)   =  0.109410446672901D+05
 --> objf_test(bi,bj)   =  0.691550498884438D+04
 --> objf_test(bi,bj)   =  0.683247511377698D+04
 --> objf_test(bi,bj)   =  0.520040324827764D+04
 --> objf_test(bi,bj)   =  0.606296023884126D+04
(PID.TID 0000.0001)   local fc =  0.962450693602183D+05
(PID.TID 0000.0001)  global fc =  0.962450693602183D+05
(PID.TID 0000.0001) grdchk perturb(-)fc: fcpertminus =  9.62450693602183E+04
grad-res -------------------------------
 grad-res     0    4    4    1    1    1    1    1   9.62450968839E+04  9.62451245406E+04  9.62450693602E+04
 grad-res     0    4    4    4    0    1    1    1   2.75902173676E+00  2.75902014109E+00  5.78345545121E-07
(PID.TID 0000.0001)  ADM  ref_cost_function      =  9.62450968838777E+04
(PID.TID 0000.0001)  ADM  adjoint_gradient       =  2.75902173676099E+00
(PID.TID 0000.0001)  ADM  finite-diff_grad       =  2.75902014109306E+00
(PID.TID 0000.0001) ====== End of gradient-check number   4 (ierr=  0) =======
(PID.TID 0000.0001) 
(PID.TID 0000.0001) // =======================================================
(PID.TID 0000.0001) // Gradient check results  >>> START <<<
(PID.TID 0000.0001) // =======================================================
(PID.TID 0000.0001) 
(PID.TID 0000.0001)  EPS =   1.000000E-02
(PID.TID 0000.0001) 
(PID.TID 0000.0001) grdchk output h.p:  Id Itile Jtile LAYER   bi   bj   X(Id)           X(Id)+/-EPS
(PID.TID 0000.0001) grdchk output h.c:  Id  FC                   FC1                  FC2
(PID.TID 0000.0001) grdchk output h.g:  Id     FC1-FC2/(2*EPS)      ADJ GRAD(FC)         1-FDGRD/ADGRD
(PID.TID 0000.0001) 
(PID.TID 0000.0001) grdchk output (p):   1     1     1     1    1    1   0.000000000E+00 -1.000000000E-02
(PID.TID 0000.0001) grdchk output (c):   1  9.6245096883878E+04  9.6245139012858E+04  9.6245054868139E+04
(PID.TID 0000.0001) grdchk output (g):   1     4.2072359392478E+00  4.2072561610828E+00  4.8064187916363E-06
(PID.TID 0000.0001) 
(PID.TID 0000.0001) grdchk output (p):   2     2     1     1    1    1   0.000000000E+00 -1.000000000E-02
(PID.TID 0000.0001) grdchk output (c):   2  9.6245096883878E+04  9.6245137046098E+04  9.6245056846968E+04
(PID.TID 0000.0001) grdchk output (g):   2     4.0099565201672E+00  4.0096743139092E+00 -7.0381341699566E-05
(PID.TID 0000.0001) 
(PID.TID 0000.0001) grdchk output (p):   3     3     1     1    1    1   0.000000000E+00 -1.000000000E-02
(PID.TID 0000.0001) grdchk output (c):   3  9.6245096883878E+04  9.6245130532307E+04  9.6245063367181E+04
(PID.TID 0000.0001) grdchk output (g):   3     3.3582563060918E+00  3.3583598099147E+00  3.0819753918387E-05
(PID.TID 0000.0001) 
(PID.TID 0000.0001) grdchk output (p):   4     4     1     1    1    1   0.000000000E+00 -1.000000000E-02
(PID.TID 0000.0001) grdchk output (c):   4  9.6245096883878E+04  9.6245124540621E+04  9.6245069360218E+04
(PID.TID 0000.0001) grdchk output (g):   4     2.7590201410931E+00  2.7590217367610E+00  5.7834554512137E-07
(PID.TID 0000.0001) 
(PID.TID 0000.0001) grdchk  summary  :  RMS of    4 ratios =  3.8492942977224E-05
(PID.TID 0000.0001) 
(PID.TID 0000.0001) // =======================================================
(PID.TID 0000.0001) // Gradient check results  >>> END <<<
(PID.TID 0000.0001) // =======================================================
(PID.TID 0000.0001) 
(PID.TID 0000.0001)   Seconds in section "ALL                    [THE_MODEL_MAIN]":
(PID.TID 0000.0001)           User time:   102.98787696985528
(PID.TID 0000.0001)         System time:   1.9876000077929348
(PID.TID 0000.0001)     Wall clock time:   111.53867411613464
(PID.TID 0000.0001)          No. starts:           1
(PID.TID 0000.0001)           No. stops:           1
(PID.TID 0000.0001)   Seconds in section "INITIALISE_FIXED       [THE_MODEL_MAIN]":
(PID.TID 0000.0001)           User time:  0.39953200612217188
(PID.TID 0000.0001)         System time:  0.18646199302747846
(PID.TID 0000.0001)     Wall clock time:   1.0692040920257568
(PID.TID 0000.0001)          No. starts:           1
(PID.TID 0000.0001)           No. stops:           1
(PID.TID 0000.0001)   Seconds in section "ADTHE_MAIN_LOOP          [ADJOINT RUN]":
(PID.TID 0000.0001)           User time:   50.531846880912781
(PID.TID 0000.0001)         System time:   1.6922229528427124
(PID.TID 0000.0001)     Wall clock time:   58.247796058654785
(PID.TID 0000.0001)          No. starts:           1
(PID.TID 0000.0001)           No. stops:           1
(PID.TID 0000.0001)   Seconds in section "FORWARD_STEP        [MAIN_DO_LOOP]":
(PID.TID 0000.0001)           User time:   62.975676536560059
(PID.TID 0000.0001)         System time:  0.22050869464874268
(PID.TID 0000.0001)     Wall clock time:   68.559278964996338
(PID.TID 0000.0001)          No. starts:          50
(PID.TID 0000.0001)           No. stops:          50
(PID.TID 0000.0001)   Seconds in section "UPDATE_R_STAR       [FORWARD_STEP]":
(PID.TID 0000.0001)           User time:   2.1235886812210083
(PID.TID 0000.0001)         System time:   7.8656673431396484E-003
(PID.TID 0000.0001)     Wall clock time:   2.1319692134857178
(PID.TID 0000.0001)          No. starts:         100
(PID.TID 0000.0001)           No. stops:         100
(PID.TID 0000.0001)   Seconds in section "DO_STATEVARS_DIAGS  [FORWARD_STEP]":
(PID.TID 0000.0001)           User time:  0.14128601551055908
(PID.TID 0000.0001)         System time:   3.0297040939331055E-004
(PID.TID 0000.0001)     Wall clock time:  0.14226388931274414
(PID.TID 0000.0001)          No. starts:          15
(PID.TID 0000.0001)           No. stops:          15
(PID.TID 0000.0001)   Seconds in section "LOAD_FIELDS_DRIVER  [FORWARD_STEP]":
(PID.TID 0000.0001)           User time:  0.14677417278289795
(PID.TID 0000.0001)         System time:   1.0095864534378052E-002
(PID.TID 0000.0001)     Wall clock time:  0.16747927665710449
(PID.TID 0000.0001)          No. starts:          50
(PID.TID 0000.0001)           No. stops:          50
(PID.TID 0000.0001)   Seconds in section "EXTERNAL_FLDS_LOAD [LOAD_FLDS_DRIVER]":
(PID.TID 0000.0001)           User time:  0.16023433208465576
(PID.TID 0000.0001)         System time:   1.0346621274948120E-002
(PID.TID 0000.0001)     Wall clock time:  0.18125486373901367
(PID.TID 0000.0001)          No. starts:          55
(PID.TID 0000.0001)           No. stops:          55
(PID.TID 0000.0001)   Seconds in section "CTRL_MAP_FORCING  [FORWARD_STEP]":
(PID.TID 0000.0001)           User time:   2.6766419410705566E-002
(PID.TID 0000.0001)         System time:   7.0090293884277344E-003
(PID.TID 0000.0001)     Wall clock time:   3.3800363540649414E-002
(PID.TID 0000.0001)          No. starts:          50
(PID.TID 0000.0001)           No. stops:          50
(PID.TID 0000.0001)   Seconds in section "DO_ATMOSPHERIC_PHYS [FORWARD_STEP]":
(PID.TID 0000.0001)           User time:   6.3764572143554688E-002
(PID.TID 0000.0001)         System time:   1.2460947036743164E-003
(PID.TID 0000.0001)     Wall clock time:   6.5029382705688477E-002
(PID.TID 0000.0001)          No. starts:          50
(PID.TID 0000.0001)           No. stops:          50
(PID.TID 0000.0001)   Seconds in section "DO_OCEANIC_PHYS     [FORWARD_STEP]":
(PID.TID 0000.0001)           User time:   8.7457138299942017
(PID.TID 0000.0001)         System time:   2.7597963809967041E-002
(PID.TID 0000.0001)     Wall clock time:   8.7740797996520996
(PID.TID 0000.0001)          No. starts:          50
(PID.TID 0000.0001)           No. stops:          50
(PID.TID 0000.0001)   Seconds in section "DYNAMICS            [FORWARD_STEP]":
(PID.TID 0000.0001)           User time:   17.208805203437805
(PID.TID 0000.0001)         System time:   1.8482506275177002E-002
(PID.TID 0000.0001)     Wall clock time:   17.233401298522949
(PID.TID 0000.0001)          No. starts:          50
(PID.TID 0000.0001)           No. stops:          50
(PID.TID 0000.0001)   Seconds in section "UPDATE_CG2D         [FORWARD_STEP]":
(PID.TID 0000.0001)           User time:  0.38160896301269531
(PID.TID 0000.0001)         System time:   6.0796737670898438E-006
(PID.TID 0000.0001)     Wall clock time:  0.38167881965637207
(PID.TID 0000.0001)          No. starts:          50
(PID.TID 0000.0001)           No. stops:          50
(PID.TID 0000.0001)   Seconds in section "SOLVE_FOR_PRESSURE  [FORWARD_STEP]":
(PID.TID 0000.0001)           User time:   5.4297885894775391
(PID.TID 0000.0001)         System time:   1.2011051177978516E-002
(PID.TID 0000.0001)     Wall clock time:   5.4425432682037354
(PID.TID 0000.0001)          No. starts:          50
(PID.TID 0000.0001)           No. stops:          50
(PID.TID 0000.0001)   Seconds in section "MOM_CORRECTION_STEP [FORWARD_STEP]":
(PID.TID 0000.0001)           User time:  0.58998656272888184
(PID.TID 0000.0001)         System time:   5.3197145462036133E-004
(PID.TID 0000.0001)     Wall clock time:  0.59064698219299316
(PID.TID 0000.0001)          No. starts:          50
(PID.TID 0000.0001)           No. stops:          50
(PID.TID 0000.0001)   Seconds in section "INTEGR_CONTINUITY   [FORWARD_STEP]":
(PID.TID 0000.0001)           User time:   1.0314719676971436
(PID.TID 0000.0001)         System time:   1.7982721328735352E-004
(PID.TID 0000.0001)     Wall clock time:   1.0322830677032471
(PID.TID 0000.0001)          No. starts:          50
(PID.TID 0000.0001)           No. stops:          50
(PID.TID 0000.0001)   Seconds in section "CALC_R_STAR         [FORWARD_STEP]":
(PID.TID 0000.0001)           User time:  0.19647312164306641
(PID.TID 0000.0001)         System time:   3.4260153770446777E-003
(PID.TID 0000.0001)     Wall clock time:  0.19996166229248047
(PID.TID 0000.0001)          No. starts:          50
(PID.TID 0000.0001)           No. stops:          50
(PID.TID 0000.0001)   Seconds in section "BLOCKING_EXCHANGES  [FORWARD_STEP]":
(PID.TID 0000.0001)           User time:  0.99823069572448730
(PID.TID 0000.0001)         System time:   9.2089176177978516E-004
(PID.TID 0000.0001)     Wall clock time:  0.99968004226684570
(PID.TID 0000.0001)          No. starts:         100
(PID.TID 0000.0001)           No. stops:         100
(PID.TID 0000.0001)   Seconds in section "THERMODYNAMICS      [FORWARD_STEP]":
(PID.TID 0000.0001)           User time:   24.105115413665771
(PID.TID 0000.0001)         System time:   3.7648081779479980E-002
(PID.TID 0000.0001)     Wall clock time:   24.151645183563232
(PID.TID 0000.0001)          No. starts:          50
(PID.TID 0000.0001)           No. stops:          50
(PID.TID 0000.0001)   Seconds in section "TRC_CORRECTION_STEP [FORWARD_STEP]":
(PID.TID 0000.0001)           User time:   3.9243698120117188E-004
(PID.TID 0000.0001)         System time:   9.0599060058593750E-006
(PID.TID 0000.0001)     Wall clock time:   4.2915344238281250E-004
(PID.TID 0000.0001)          No. starts:          50
(PID.TID 0000.0001)           No. stops:          50
(PID.TID 0000.0001)   Seconds in section "MONITOR             [FORWARD_STEP]":
(PID.TID 0000.0001)           User time:  0.58045578002929688
(PID.TID 0000.0001)         System time:   8.3094835281372070E-004
(PID.TID 0000.0001)     Wall clock time:  0.58319139480590820
(PID.TID 0000.0001)          No. starts:          50
(PID.TID 0000.0001)           No. stops:          50
(PID.TID 0000.0001)   Seconds in section "COST_TILE           [FORWARD_STEP]":
(PID.TID 0000.0001)           User time:   1.0100240707397461
(PID.TID 0000.0001)         System time:   8.1591010093688965E-003
(PID.TID 0000.0001)     Wall clock time:   1.0182843208312988
(PID.TID 0000.0001)          No. starts:          50
(PID.TID 0000.0001)           No. stops:          50
(PID.TID 0000.0001)   Seconds in section "DO_THE_MODEL_IO     [FORWARD_STEP]":
(PID.TID 0000.0001)           User time:  0.15630316734313965
(PID.TID 0000.0001)         System time:   5.2180171012878418E-002
(PID.TID 0000.0001)     Wall clock time:   5.5091598033905029
(PID.TID 0000.0001)          No. starts:          50
(PID.TID 0000.0001)           No. stops:          50
(PID.TID 0000.0001)   Seconds in section "DO_WRITE_PICKUP     [FORWARD_STEP]":
(PID.TID 0000.0001)           User time:   2.4650335311889648E-002
(PID.TID 0000.0001)         System time:   3.1577944755554199E-002
(PID.TID 0000.0001)     Wall clock time:   8.8330507278442383E-002
(PID.TID 0000.0001)          No. starts:          50
(PID.TID 0000.0001)           No. stops:          50
(PID.TID 0000.0001)   Seconds in section "I/O (WRITE)        [ADJOINT LOOP]":
(PID.TID 0000.0001)           User time:   9.6145629882812500E-002
(PID.TID 0000.0001)         System time:   5.1983952522277832E-002
(PID.TID 0000.0001)     Wall clock time:  0.25853586196899414
(PID.TID 0000.0001)          No. starts:           3
(PID.TID 0000.0001)           No. stops:           3
(PID.TID 0000.0001)   Seconds in section "GRDCHK_MAIN         [THE_MODEL_MAIN]":
(PID.TID 0000.0001)           User time:   52.056419372558594
(PID.TID 0000.0001)         System time:  0.10889005661010742
(PID.TID 0000.0001)     Wall clock time:   52.221603870391846
(PID.TID 0000.0001)          No. starts:           1
(PID.TID 0000.0001)           No. stops:           1
(PID.TID 0000.0001)   Seconds in section "INITIALISE_VARIA    [THE_MAIN_LOOP]":
(PID.TID 0000.0001)           User time:   1.7301101684570312
(PID.TID 0000.0001)         System time:   5.1981091499328613E-002
(PID.TID 0000.0001)     Wall clock time:   1.7822539806365967
(PID.TID 0000.0001)          No. starts:           8
(PID.TID 0000.0001)           No. stops:           8
(PID.TID 0000.0001)   Seconds in section "MAIN LOOP           [THE_MAIN_LOOP]":
(PID.TID 0000.0001)           User time:   50.176841735839844
(PID.TID 0000.0001)         System time:   4.9998760223388672E-003
(PID.TID 0000.0001)     Wall clock time:   50.184705018997192
(PID.TID 0000.0001)          No. starts:           8
(PID.TID 0000.0001)           No. stops:           8
(PID.TID 0000.0001)   Seconds in section "MAIN_DO_LOOP        [THE_MAIN_LOOP]":
(PID.TID 0000.0001)           User time:   49.442863464355469
(PID.TID 0000.0001)         System time:   4.8096179962158203E-003
(PID.TID 0000.0001)     Wall clock time:   49.450445413589478
(PID.TID 0000.0001)          No. starts:          40
(PID.TID 0000.0001)           No. stops:          40
(PID.TID 0000.0001)   Seconds in section "COST_FINAL         [ADJOINT SPIN-DOWN]":
(PID.TID 0000.0001)           User time:   5.9474945068359375E-002
(PID.TID 0000.0001)         System time:   7.0333480834960938E-006
(PID.TID 0000.0001)     Wall clock time:   5.9497833251953125E-002
(PID.TID 0000.0001)          No. starts:           8
(PID.TID 0000.0001)           No. stops:           8
(PID.TID 0000.0001) // ======================================================
(PID.TID 0000.0001) // Tile <-> Tile communication statistics
(PID.TID 0000.0001) // ======================================================
(PID.TID 0000.0001) // o Tile number: 000001
(PID.TID 0000.0001) //         No. X exchanges =              0
(PID.TID 0000.0001) //            Max. X spins =              0
(PID.TID 0000.0001) //            Min. X spins =     1000000000
(PID.TID 0000.0001) //          Total. X spins =              0
(PID.TID 0000.0001) //            Avg. X spins =       0.00E+00
(PID.TID 0000.0001) //         No. Y exchanges =              0
(PID.TID 0000.0001) //            Max. Y spins =              0
(PID.TID 0000.0001) //            Min. Y spins =     1000000000
(PID.TID 0000.0001) //          Total. Y spins =              0
(PID.TID 0000.0001) //            Avg. Y spins =       0.00E+00
(PID.TID 0000.0001) // o Tile number: 000002
(PID.TID 0000.0001) //         No. X exchanges =              0
(PID.TID 0000.0001) //            Max. X spins =              0
(PID.TID 0000.0001) //            Min. X spins =     1000000000
(PID.TID 0000.0001) //          Total. X spins =              0
(PID.TID 0000.0001) //            Avg. X spins =       0.00E+00
(PID.TID 0000.0001) //         No. Y exchanges =              0
(PID.TID 0000.0001) //            Max. Y spins =              0
(PID.TID 0000.0001) //            Min. Y spins =     1000000000
(PID.TID 0000.0001) //          Total. Y spins =              0
(PID.TID 0000.0001) //            Avg. Y spins =       0.00E+00
(PID.TID 0000.0001) // o Tile number: 000003
(PID.TID 0000.0001) //         No. X exchanges =              0
(PID.TID 0000.0001) //            Max. X spins =              0
(PID.TID 0000.0001) //            Min. X spins =     1000000000
(PID.TID 0000.0001) //          Total. X spins =              0
(PID.TID 0000.0001) //            Avg. X spins =       0.00E+00
(PID.TID 0000.0001) //         No. Y exchanges =              0
(PID.TID 0000.0001) //            Max. Y spins =              0
(PID.TID 0000.0001) //            Min. Y spins =     1000000000
(PID.TID 0000.0001) //          Total. Y spins =              0
(PID.TID 0000.0001) //            Avg. Y spins =       0.00E+00
(PID.TID 0000.0001) // o Tile number: 000004
(PID.TID 0000.0001) //         No. X exchanges =              0
(PID.TID 0000.0001) //            Max. X spins =              0
(PID.TID 0000.0001) //            Min. X spins =     1000000000
(PID.TID 0000.0001) //          Total. X spins =              0
(PID.TID 0000.0001) //            Avg. X spins =       0.00E+00
(PID.TID 0000.0001) //         No. Y exchanges =              0
(PID.TID 0000.0001) //            Max. Y spins =              0
(PID.TID 0000.0001) //            Min. Y spins =     1000000000
(PID.TID 0000.0001) //          Total. Y spins =              0
(PID.TID 0000.0001) //            Avg. Y spins =       0.00E+00
(PID.TID 0000.0001) // o Tile number: 000005
(PID.TID 0000.0001) //         No. X exchanges =              0
(PID.TID 0000.0001) //            Max. X spins =              0
(PID.TID 0000.0001) //            Min. X spins =     1000000000
(PID.TID 0000.0001) //          Total. X spins =              0
(PID.TID 0000.0001) //            Avg. X spins =       0.00E+00
(PID.TID 0000.0001) //         No. Y exchanges =              0
(PID.TID 0000.0001) //            Max. Y spins =              0
(PID.TID 0000.0001) //            Min. Y spins =     1000000000
(PID.TID 0000.0001) //          Total. Y spins =              0
(PID.TID 0000.0001) //            Avg. Y spins =       0.00E+00
(PID.TID 0000.0001) // o Tile number: 000006
(PID.TID 0000.0001) //         No. X exchanges =              0
(PID.TID 0000.0001) //            Max. X spins =              0
(PID.TID 0000.0001) //            Min. X spins =     1000000000
(PID.TID 0000.0001) //          Total. X spins =              0
(PID.TID 0000.0001) //            Avg. X spins =       0.00E+00
(PID.TID 0000.0001) //         No. Y exchanges =              0
(PID.TID 0000.0001) //            Max. Y spins =              0
(PID.TID 0000.0001) //            Min. Y spins =     1000000000
(PID.TID 0000.0001) //          Total. Y spins =              0
(PID.TID 0000.0001) //            Avg. Y spins =       0.00E+00
(PID.TID 0000.0001) // o Tile number: 000007
(PID.TID 0000.0001) //         No. X exchanges =              0
(PID.TID 0000.0001) //            Max. X spins =              0
(PID.TID 0000.0001) //            Min. X spins =     1000000000
(PID.TID 0000.0001) //          Total. X spins =              0
(PID.TID 0000.0001) //            Avg. X spins =       0.00E+00
(PID.TID 0000.0001) //         No. Y exchanges =              0
(PID.TID 0000.0001) //            Max. Y spins =              0
(PID.TID 0000.0001) //            Min. Y spins =     1000000000
(PID.TID 0000.0001) //          Total. Y spins =              0
(PID.TID 0000.0001) //            Avg. Y spins =       0.00E+00
(PID.TID 0000.0001) // o Tile number: 000008
(PID.TID 0000.0001) //         No. X exchanges =              0
(PID.TID 0000.0001) //            Max. X spins =              0
(PID.TID 0000.0001) //            Min. X spins =     1000000000
(PID.TID 0000.0001) //          Total. X spins =              0
(PID.TID 0000.0001) //            Avg. X spins =       0.00E+00
(PID.TID 0000.0001) //         No. Y exchanges =              0
(PID.TID 0000.0001) //            Max. Y spins =              0
(PID.TID 0000.0001) //            Min. Y spins =     1000000000
(PID.TID 0000.0001) //          Total. Y spins =              0
(PID.TID 0000.0001) //            Avg. Y spins =       0.00E+00
(PID.TID 0000.0001) // o Tile number: 000009
(PID.TID 0000.0001) //         No. X exchanges =              0
(PID.TID 0000.0001) //            Max. X spins =              0
(PID.TID 0000.0001) //            Min. X spins =     1000000000
(PID.TID 0000.0001) //          Total. X spins =              0
(PID.TID 0000.0001) //            Avg. X spins =       0.00E+00
(PID.TID 0000.0001) //         No. Y exchanges =              0
(PID.TID 0000.0001) //            Max. Y spins =              0
(PID.TID 0000.0001) //            Min. Y spins =     1000000000
(PID.TID 0000.0001) //          Total. Y spins =              0
(PID.TID 0000.0001) //            Avg. Y spins =       0.00E+00
(PID.TID 0000.0001) // o Tile number: 000010
(PID.TID 0000.0001) //         No. X exchanges =              0
(PID.TID 0000.0001) //            Max. X spins =              0
(PID.TID 0000.0001) //            Min. X spins =     1000000000
(PID.TID 0000.0001) //          Total. X spins =              0
(PID.TID 0000.0001) //            Avg. X spins =       0.00E+00
(PID.TID 0000.0001) //         No. Y exchanges =              0
(PID.TID 0000.0001) //            Max. Y spins =              0
(PID.TID 0000.0001) //            Min. Y spins =     1000000000
(PID.TID 0000.0001) //          Total. Y spins =              0
(PID.TID 0000.0001) //            Avg. Y spins =       0.00E+00
(PID.TID 0000.0001) // o Tile number: 000011
(PID.TID 0000.0001) //         No. X exchanges =              0
(PID.TID 0000.0001) //            Max. X spins =              0
(PID.TID 0000.0001) //            Min. X spins =     1000000000
(PID.TID 0000.0001) //          Total. X spins =              0
(PID.TID 0000.0001) //            Avg. X spins =       0.00E+00
(PID.TID 0000.0001) //         No. Y exchanges =              0
(PID.TID 0000.0001) //            Max. Y spins =              0
(PID.TID 0000.0001) //            Min. Y spins =     1000000000
(PID.TID 0000.0001) //          Total. Y spins =              0
(PID.TID 0000.0001) //            Avg. Y spins =       0.00E+00
(PID.TID 0000.0001) // o Tile number: 000012
(PID.TID 0000.0001) //         No. X exchanges =              0
(PID.TID 0000.0001) //            Max. X spins =              0
(PID.TID 0000.0001) //            Min. X spins =     1000000000
(PID.TID 0000.0001) //          Total. X spins =              0
(PID.TID 0000.0001) //            Avg. X spins =       0.00E+00
(PID.TID 0000.0001) //         No. Y exchanges =              0
(PID.TID 0000.0001) //            Max. Y spins =              0
(PID.TID 0000.0001) //            Min. Y spins =     1000000000
(PID.TID 0000.0001) //          Total. Y spins =              0
(PID.TID 0000.0001) //            Avg. Y spins =       0.00E+00
(PID.TID 0000.0001) // o Thread number: 000001
(PID.TID 0000.0001) //            No. barriers =          50586
(PID.TID 0000.0001) //      Max. barrier spins =              1
(PID.TID 0000.0001) //      Min. barrier spins =              1
(PID.TID 0000.0001) //     Total barrier spins =          50586
(PID.TID 0000.0001) //      Avg. barrier spins =       1.00E+00
PROGRAM MAIN: Execution ended Normally
