(PID.TID 0000.0001) 
(PID.TID 0000.0001) // ======================================================
(PID.TID 0000.0001) //                      MITgcm UV
(PID.TID 0000.0001) //                      =========
(PID.TID 0000.0001) // ======================================================
(PID.TID 0000.0001) // execution environment starting up...
(PID.TID 0000.0001) 
(PID.TID 0000.0001) // MITgcmUV version:  checkpoint67z
(PID.TID 0000.0001) // Build user:        jm_c
(PID.TID 0000.0001) // Build host:        villon
(PID.TID 0000.0001) // Build date:        Wed Jul 28 11:24:53 EDT 2021
(PID.TID 0000.0001) 
(PID.TID 0000.0001) // =======================================================
(PID.TID 0000.0001) // Execution Environment parameter file "eedata"
(PID.TID 0000.0001) // =======================================================
(PID.TID 0000.0001) ># Example "eedata" file
(PID.TID 0000.0001) ># Lines beginning "#" are comments
(PID.TID 0000.0001) >#  nTx      :: No. threads per process in X
(PID.TID 0000.0001) >#  nTy      :: No. threads per process in Y
(PID.TID 0000.0001) ># debugMode :: print debug msg (sequence of S/R calls)
(PID.TID 0000.0001) > &EEPARMS
(PID.TID 0000.0001) > useCubedSphereExchange=.TRUE.,
(PID.TID 0000.0001) > nTx=1,
(PID.TID 0000.0001) > nTy=1,
(PID.TID 0000.0001) > /
(PID.TID 0000.0001) ># Note: Some systems use & as the namelist terminator (as shown here).
(PID.TID 0000.0001) >#       Other systems use a / character.
(PID.TID 0000.0001) 
(PID.TID 0000.0001) // =======================================================
(PID.TID 0000.0001) // Computational Grid Specification ( see files "SIZE.h" )
(PID.TID 0000.0001) //                                  ( and "eedata"       )
(PID.TID 0000.0001) // =======================================================
(PID.TID 0000.0001)      nPx =    1 ; /* No. processes in X */
(PID.TID 0000.0001)      nPy =    1 ; /* No. processes in Y */
(PID.TID 0000.0001)      nSx =   12 ; /* No. tiles in X per process */
(PID.TID 0000.0001)      nSy =    1 ; /* No. tiles in Y per process */
(PID.TID 0000.0001)      sNx =   32 ; /* Tile size in X */
(PID.TID 0000.0001)      sNy =   16 ; /* Tile size in Y */
(PID.TID 0000.0001)      OLx =    4 ; /* Tile overlap distance in X */
(PID.TID 0000.0001)      OLy =    4 ; /* Tile overlap distance in Y */
(PID.TID 0000.0001)      nTx =    1 ; /* No. threads in X per process */
(PID.TID 0000.0001)      nTy =    1 ; /* No. threads in Y per process */
(PID.TID 0000.0001)       Nr =   15 ; /* No. levels in the vertical   */
(PID.TID 0000.0001)       Nx =  384 ; /* Total domain size in X ( = nPx*nSx*sNx ) */
(PID.TID 0000.0001)       Ny =   16 ; /* Total domain size in Y ( = nPy*nSy*sNy ) */
(PID.TID 0000.0001)   nTiles =   12 ; /* Total no. tiles per process ( = nSx*nSy ) */
(PID.TID 0000.0001)   nProcs =    1 ; /* Total no. processes ( = nPx*nPy ) */
(PID.TID 0000.0001) nThreads =    1 ; /* Total no. threads per process ( = nTx*nTy ) */
(PID.TID 0000.0001) usingMPI =    F ; /* Flag used to control whether MPI is in use */
(PID.TID 0000.0001)                   /*  note: To execute a program with MPI calls */
(PID.TID 0000.0001)                   /*  it must be launched appropriately e.g     */
(PID.TID 0000.0001)                   /*  "mpirun -np 64 ......"                    */
(PID.TID 0000.0001) useCoupler=   F ; /* Flag used to control communications with   */
(PID.TID 0000.0001)                   /*  other model components, through a coupler */
(PID.TID 0000.0001) useNest2W_parent =    F ;/* Control 2-W Nesting comm */
(PID.TID 0000.0001) useNest2W_child  =    F ;/* Control 2-W Nesting comm */
(PID.TID 0000.0001) debugMode =    F ; /* print debug msg. (sequence of S/R calls)  */
(PID.TID 0000.0001) printMapIncludesZeros=    F ; /* print zeros in Std.Output maps */
(PID.TID 0000.0001) maxLengthPrt1D=   65 /* maxLength of 1D array printed to StdOut */
(PID.TID 0000.0001) 
(PID.TID 0000.0001) // ======================================================
(PID.TID 0000.0001) // Mapping of tiles to threads
(PID.TID 0000.0001) // ======================================================
(PID.TID 0000.0001) // -o- Thread   1, tiles (   1:  12,   1:   1)
(PID.TID 0000.0001) 
(PID.TID 0000.0001) W2_READPARMS: file data.exch2 not found
(PID.TID 0000.0001) => use W2_EXCH2 default: regular 6-facets Cube
(PID.TID 0000.0001) W2_useE2ioLayOut=    T ;/* T: use Exch2 glob IO map; F: use model default */
(PID.TID 0000.0001) W2_mapIO        =  -1 ; /* select option for Exch2 global-IO map */
(PID.TID 0000.0001) W2_printMsg     =  -1 ; /* select option for printing information */
(PID.TID 0000.0001) ===== Start setting W2 TOPOLOGY:
(PID.TID 0000.0001)  write to log-file: w2_tile_topology.0000.log
(PID.TID 0000.0001) =====       setting W2 TOPOLOGY: Done
(PID.TID 0000.0001) 
(PID.TID 0000.0001)  INI_PARMS: opening model parameter file "data"
(PID.TID 0000.0001)  OPEN_COPY_DATA_FILE: opening file data
(PID.TID 0000.0001) // =======================================================
(PID.TID 0000.0001) // Parameter file "data"
(PID.TID 0000.0001) // =======================================================
(PID.TID 0000.0001) ># ====================
(PID.TID 0000.0001) ># | Model parameters |
(PID.TID 0000.0001) ># ====================
(PID.TID 0000.0001) >#
(PID.TID 0000.0001) ># Continuous equation parameters
(PID.TID 0000.0001) > &PARM01
(PID.TID 0000.0001) > tRef=15*20.,
(PID.TID 0000.0001) > sRef=15*35.,
(PID.TID 0000.0001) > viscAh = 3.E5,
(PID.TID 0000.0001) ># background dissipation will be taken care of by IDEMIX
(PID.TID 0000.0001) ># so we turn it off here
(PID.TID 0000.0001) >#viscAr = 1.030905162225000e+05,
(PID.TID 0000.0001) >#viscAr = 1.E-3,
(PID.TID 0000.0001) >#diffKrT= 3.092715486675000e+03,
(PID.TID 0000.0001) >#diffKrT= 3.E-5,
(PID.TID 0000.0001) >#diffKrS= 3.092715486675000e+03,
(PID.TID 0000.0001) >#diffKrS= 3.E-5,
(PID.TID 0000.0001) ># should use this with ggl90 for avoiding local instabilities
(PID.TID 0000.0001) > ivdc_kappa= 1.030905162225000e+08,
(PID.TID 0000.0001) >#ivdc_kappa= 1.,
(PID.TID 0000.0001) > implicitDiffusion=.TRUE.,
(PID.TID 0000.0001) > implicitViscosity=.TRUE.,
(PID.TID 0000.0001) > gravity=9.81,
(PID.TID 0000.0001) > rhoConst=1035.,
(PID.TID 0000.0001) > rhoConstFresh=1000.,
(PID.TID 0000.0001) > buoyancyRelation='OCEANICP',
(PID.TID 0000.0001) > integr_GeoPot=1,
(PID.TID 0000.0001) > eosType='JMD95P',
(PID.TID 0000.0001) > staggerTimeStep=.TRUE.,
(PID.TID 0000.0001) > vectorInvariantMomentum=.TRUE.,
(PID.TID 0000.0001) > implicitFreeSurface=.TRUE.,
(PID.TID 0000.0001) > exactConserv=.TRUE.,
(PID.TID 0000.0001) > select_rStar=2,
(PID.TID 0000.0001) > nonlinFreeSurf=4,
(PID.TID 0000.0001) > hFacInf=0.2,
(PID.TID 0000.0001) > hFacSup=2.0,
(PID.TID 0000.0001) > useRealFreshWaterFlux=.TRUE.,
(PID.TID 0000.0001) > hFacMin=.1,
(PID.TID 0000.0001) ># 20 m
(PID.TID 0000.0001) > hFacMinDr=203067.0,
(PID.TID 0000.0001) >#- to check that it has no impact:
(PID.TID 0000.0001) > doResetHFactors=.TRUE.,
(PID.TID 0000.0001) >#tempAdvScheme=77,
(PID.TID 0000.0001) >#saltAdvScheme=77,
(PID.TID 0000.0001) > readBinaryPrec=64,
(PID.TID 0000.0001) > writeBinaryPrec=64,
(PID.TID 0000.0001) > useSingleCpuIO=.TRUE.,
(PID.TID 0000.0001) > debugLevel = 2,
(PID.TID 0000.0001) > plotLevel=0,
(PID.TID 0000.0001) > /
(PID.TID 0000.0001) >
(PID.TID 0000.0001) ># Elliptic solver parameters
(PID.TID 0000.0001) > &PARM02
(PID.TID 0000.0001) > cg2dMaxIters=200,
(PID.TID 0000.0001) > cg2dTargetResidual=1.E-9,
(PID.TID 0000.0001) >#cg2dTargetResWunit=1.E-14,
(PID.TID 0000.0001) > /
(PID.TID 0000.0001) >
(PID.TID 0000.0001) ># Time stepping parameters
(PID.TID 0000.0001) > &PARM03
(PID.TID 0000.0001) >#nIter0=72000,
(PID.TID 0000.0001) > nIter0=0,
(PID.TID 0000.0001) > nTimeSteps=10,
(PID.TID 0000.0001) >#endTime=31104000.,
(PID.TID 0000.0001) > deltaTMom   =1200.,
(PID.TID 0000.0001) > deltaTtracer=86400.,
(PID.TID 0000.0001) > deltaTFreeSurf=86400.,
(PID.TID 0000.0001) > deltaTClock =86400.,
(PID.TID 0000.0001) > abEps = 0.1,
(PID.TID 0000.0001) > forcing_In_AB=.FALSE.,
(PID.TID 0000.0001) > pickupStrictlyMatch=.FALSE.,
(PID.TID 0000.0001) > pChkptFreq   =3110400000.,
(PID.TID 0000.0001) > chkptFreq    = 155520000.,
(PID.TID 0000.0001) >#tave_lastIter=0.,
(PID.TID 0000.0001) >#taveFreq     = 2592000.,
(PID.TID 0000.0001) >#dumpFreq     =  864000.,
(PID.TID 0000.0001) > monitorFreq  = 15552000.,
(PID.TID 0000.0001) > periodicExternalForcing=.TRUE.,
(PID.TID 0000.0001) > externForcingPeriod=2592000.,
(PID.TID 0000.0001) > externForcingCycle=31104000.,
(PID.TID 0000.0001) ># 6 months restoring timescale for temperature
(PID.TID 0000.0001) >#tauThetaClimRelax = 15552000.,
(PID.TID 0000.0001) ># 2 months restoring timescale for tsalinity
(PID.TID 0000.0001) >#tauSaltClimRelax = 5184000.,
(PID.TID 0000.0001) >#latBandClimRelax=60.,
(PID.TID 0000.0001) > monitorFreq =1.,
(PID.TID 0000.0001) > /
(PID.TID 0000.0001) >
(PID.TID 0000.0001) ># Gridding parameters
(PID.TID 0000.0001) > &PARM04
(PID.TID 0000.0001) > usingCurvilinearGrid=.TRUE.,
(PID.TID 0000.0001) > horizGridFile='grid_cs32',
(PID.TID 0000.0001) ># radius_fromHorizGrid=64676839500.,
(PID.TID 0000.0001) > radius_fromHorizGrid=6370.E3,
(PID.TID 0000.0001) > delR = 7105181.631178, 6571679.735642, 6042512.265968,
(PID.TID 0000.0001) >        5517067.241693, 4995190.435925, 4476390.802366,
(PID.TID 0000.0001) >        3960087.645808, 3446365.011284, 2934956.237702,
(PID.TID 0000.0001) >        2425564.880893, 1917984.297155, 1411815.607161,
(PID.TID 0000.0001) >        1007433.323163,  704400.618506,  502655.686646,
(PID.TID 0000.0001) > /
(PID.TID 0000.0001) >
(PID.TID 0000.0001) ># Input datasets
(PID.TID 0000.0001) > &PARM05
(PID.TID 0000.0001) > bathyFile      ='bathy_in_P.bin',
(PID.TID 0000.0001) > geoPotAnomFile ='geopotanom.bin',
(PID.TID 0000.0001) > hydrogThetaFile='lev_T_cs_flip15.bin',
(PID.TID 0000.0001) > hydrogSaltFile ='lev_S_cs_flip15.bin',
(PID.TID 0000.0001) > /
(PID.TID 0000.0001) 
(PID.TID 0000.0001)  INI_PARMS ; starts to read PARM01
(PID.TID 0000.0001)  INI_PARMS ; read PARM01 : OK
(PID.TID 0000.0001)  INI_PARMS ; starts to read PARM02
(PID.TID 0000.0001)  INI_PARMS ; read PARM02 : OK
(PID.TID 0000.0001)  INI_PARMS ; starts to read PARM03
(PID.TID 0000.0001)  INI_PARMS ; read PARM03 : OK
(PID.TID 0000.0001)  INI_PARMS ; starts to read PARM04
(PID.TID 0000.0001)  INI_PARMS ; read PARM04 : OK
(PID.TID 0000.0001)  INI_PARMS ; starts to read PARM05
(PID.TID 0000.0001)  INI_PARMS ; read PARM05 : OK
(PID.TID 0000.0001)  INI_PARMS: finished reading file "data"
(PID.TID 0000.0001)  PACKAGES_BOOT: opening data.pkg
(PID.TID 0000.0001)  OPEN_COPY_DATA_FILE: opening file data.pkg
(PID.TID 0000.0001) // =======================================================
(PID.TID 0000.0001) // Parameter file "data.pkg"
(PID.TID 0000.0001) // =======================================================
(PID.TID 0000.0001) ># Packages
(PID.TID 0000.0001) > &PACKAGES
(PID.TID 0000.0001) >#useGMRedi=.TRUE.,
(PID.TID 0000.0001) > useEXF   =.TRUE.,
(PID.TID 0000.0001) > useCAL   =.TRUE.,
(PID.TID 0000.0001) > useSEAICE=.TRUE.,
(PID.TID 0000.0001) > useGGL90 =.TRUE.,
(PID.TID 0000.0001) > useDiagnostics=.TRUE.,
(PID.TID 0000.0001) >#useMNC = .TRUE.,
(PID.TID 0000.0001) > /
(PID.TID 0000.0001) 
(PID.TID 0000.0001)  PACKAGES_BOOT: finished reading data.pkg
(PID.TID 0000.0001)  PACKAGES_BOOT: On/Off package Summary
 --------  pkgs with a standard "usePKG" On/Off switch in "data.pkg":  --------
 pkg/ggl90                compiled   and   used ( useGGL90                 = T )
 pkg/gmredi               compiled but not used ( useGMRedi                = F )
 pkg/cal                  compiled   and   used ( useCAL                   = T )
 pkg/exf                  compiled   and   used ( useEXF                   = T )
 pkg/bulk_force           compiled but not used ( useBulkForce             = F )
 pkg/seaice               compiled   and   used ( useSEAICE                = T )
 pkg/thsice               compiled but not used ( useThSIce                = F )
 pkg/diagnostics          compiled   and   used ( useDiagnostics           = T )
 pkg/mnc                  compiled but not used ( useMNC                   = F )
 -------- pkgs without standard "usePKG" On/Off switch in "data.pkg":  --------
 pkg/generic_advdiff      compiled   and   used ( useGAD                   = T )
 pkg/mom_common           compiled   and   used ( momStepping              = T )
 pkg/mom_vecinv           compiled   and   used ( +vectorInvariantMomentum = T )
 pkg/mom_fluxform         compiled but not used ( & not vectorInvariantMom = F )
 pkg/monitor              compiled   and   used ( monitorFreq > 0.         = T )
 pkg/timeave              compiled but not used ( taveFreq > 0.            = F )
 pkg/debug                compiled but not used ( debugMode                = F )
 pkg/exch2                compiled   and   used
 pkg/rw                   compiled   and   used
 pkg/mdsio                compiled   and   used
(PID.TID 0000.0001)  PACKAGES_BOOT: End of package Summary
(PID.TID 0000.0001) 
(PID.TID 0000.0001) CAL_READPARMS: opening data.cal
(PID.TID 0000.0001)  OPEN_COPY_DATA_FILE: opening file data.cal
(PID.TID 0000.0001) // =======================================================
(PID.TID 0000.0001) // Parameter file "data.cal"
(PID.TID 0000.0001) // =======================================================
(PID.TID 0000.0001) >#
(PID.TID 0000.0001) ># *******************
(PID.TID 0000.0001) ># Calendar Parameters
(PID.TID 0000.0001) ># *******************
(PID.TID 0000.0001) > &CAL_NML
(PID.TID 0000.0001) > TheCalendar='model',
(PID.TID 0000.0001) > startDate_1=00010101,
(PID.TID 0000.0001) > startDate_2=000000,
(PID.TID 0000.0001) > /
(PID.TID 0000.0001) 
(PID.TID 0000.0001) CAL_READPARMS: finished reading data.cal
(PID.TID 0000.0001) EXF_READPARMS: opening data.exf
(PID.TID 0000.0001)  OPEN_COPY_DATA_FILE: opening file data.exf
(PID.TID 0000.0001) // =======================================================
(PID.TID 0000.0001) // Parameter file "data.exf"
(PID.TID 0000.0001) // =======================================================
(PID.TID 0000.0001) ># *********************
(PID.TID 0000.0001) ># External Forcing Data
(PID.TID 0000.0001) ># *********************
(PID.TID 0000.0001) > &EXF_NML_01
(PID.TID 0000.0001) >#exf_debugLev      = 3,
(PID.TID 0000.0001) >#useExfCheckRange  = .TRUE.,
(PID.TID 0000.0001) >#useStabilityFct_overIce=.TRUE.,
(PID.TID 0000.0001) >#snow_emissivity   = 0.98,
(PID.TID 0000.0001) >#ice_emissivity    = 0.98,
(PID.TID 0000.0001) > ocean_emissivity  = 1.,
(PID.TID 0000.0001) > atmrho            = 1.22,
(PID.TID 0000.0001) > humid_fac         = .608,
(PID.TID 0000.0001) > ht                = 10.,
(PID.TID 0000.0001) > exf_albedo        = 0.066,
(PID.TID 0000.0001) >#readStressOnAgrid = .TRUE.,
(PID.TID 0000.0001) > readStressOnCgrid = .TRUE.,
(PID.TID 0000.0001) > exf_monFreq       = 0.,
(PID.TID 0000.0001) > repeatPeriod      = 31104000.,
(PID.TID 0000.0001) > exf_iprec         = 64,
(PID.TID 0000.0001) > /
(PID.TID 0000.0001) >
(PID.TID 0000.0001) ># *********************
(PID.TID 0000.0001) > &EXF_NML_02
(PID.TID 0000.0001) >#
(PID.TID 0000.0001) > atempstartdate1   = 00010116,
(PID.TID 0000.0001) >#atempstartdate2   = 180000,
(PID.TID 0000.0001) > atempperiod       = 2592000.0,
(PID.TID 0000.0001) >#
(PID.TID 0000.0001) > aqhstartdate1     = 00010116,
(PID.TID 0000.0001) >#aqhstartdate2     = 180000,
(PID.TID 0000.0001) > aqhperiod         = 2592000.0,
(PID.TID 0000.0001) >#
(PID.TID 0000.0001) > precipstartdate1  = 00010116,
(PID.TID 0000.0001) >#precipstartdate2  = 180000,
(PID.TID 0000.0001) > precipperiod      = 2592000.0,
(PID.TID 0000.0001) >#
(PID.TID 0000.0001) > snowprecipstartdate1= 00010116,
(PID.TID 0000.0001) >#snowprecipstartdate2= 180000,
(PID.TID 0000.0001) > snowprecipperiod    = 2592000.,
(PID.TID 0000.0001) >#
(PID.TID 0000.0001) > runoffstartdate1  = 00010116,
(PID.TID 0000.0001) >#runoffstartdate2  = 180000,
(PID.TID 0000.0001) > runoffperiod      = 2592000.0,
(PID.TID 0000.0001) >#
(PID.TID 0000.0001) > uwindstartdate1   = 00010116,
(PID.TID 0000.0001) >#uwindstartdate2   = 180000,
(PID.TID 0000.0001) > uwindperiod       = 2592000.0,
(PID.TID 0000.0001) >#
(PID.TID 0000.0001) > vwindstartdate1   = 00010116,
(PID.TID 0000.0001) >#vwindstartdate2   = 180000,
(PID.TID 0000.0001) > vwindperiod       = 2592000.0,
(PID.TID 0000.0001) >#
(PID.TID 0000.0001) > ustressstartdate1 = 00010116,
(PID.TID 0000.0001) >#ustressstartdate2 = 180000,
(PID.TID 0000.0001) > ustressperiod     = 2592000.0,
(PID.TID 0000.0001) >#
(PID.TID 0000.0001) > vstressstartdate1 = 00010116,
(PID.TID 0000.0001) >#vstressstartdate2 = 180000,
(PID.TID 0000.0001) > vstressperiod     = 2592000.0,
(PID.TID 0000.0001) >#
(PID.TID 0000.0001) > wspeedstartdate1  = 00010116,
(PID.TID 0000.0001) >#wspeedstartdate2  = 180000,
(PID.TID 0000.0001) > wspeedperiod      = 2592000.0,
(PID.TID 0000.0001) >#
(PID.TID 0000.0001) > swdownstartdate1  = 00010116,
(PID.TID 0000.0001) >#swdownstartdate2  = 180000,
(PID.TID 0000.0001) > swdownperiod      = 2592000.0,
(PID.TID 0000.0001) >#
(PID.TID 0000.0001) > lwdownstartdate1  = 00010116,
(PID.TID 0000.0001) >#lwdownstartdate2  = 180000,
(PID.TID 0000.0001) > lwdownperiod      = 2592000.0,
(PID.TID 0000.0001) >#
(PID.TID 0000.0001) > climsssstartdate1  = 00010116,
(PID.TID 0000.0001) >#climsssstartdate2  = 180000,
(PID.TID 0000.0001) > climsssperiod      = 2592000.0,
(PID.TID 0000.0001) >#
(PID.TID 0000.0001) > climsststartdate1  = 00010116,
(PID.TID 0000.0001) >#climsststartdate2  = 180000,
(PID.TID 0000.0001) > climsstperiod      = 2592000.0,
(PID.TID 0000.0001) >#
(PID.TID 0000.0001) > atempfile         = 'core_t_Air_cs32.bin',
(PID.TID 0000.0001) > aqhfile           = 'core_q_air_cs32.bin',
(PID.TID 0000.0001) > ustressfile       = 'trenberth_taux.bin',
(PID.TID 0000.0001) > vstressfile       = 'trenberth_tauy.bin',
(PID.TID 0000.0001) >#uwindfile         = 'core_u_wind_cs32.bin',
(PID.TID 0000.0001) >#vwindfile         = 'core_v_wind_cs32.bin',
(PID.TID 0000.0001) > wspeedfile        = 'core_wndSpd_cs32.bin',
(PID.TID 0000.0001) > precipfile        = 'core_prec_1_cs32.bin',
(PID.TID 0000.0001) >#snowprecipfile    = 'core_snwP_1_cs32.bin',
(PID.TID 0000.0001) > lwdownfile        = 'core_dwnLw_cs32.bin',
(PID.TID 0000.0001) > swdownfile        = 'core_dwnSw_cs32.bin',
(PID.TID 0000.0001) > runoffFile        = 'core_rnof_1_cs32.bin'
(PID.TID 0000.0001) > runoftempFile     = 'runoff_temperature.bin'
(PID.TID 0000.0001) > climsstfile       = 'lev_surfT_cs_12m.bin',
(PID.TID 0000.0001) > climsssfile       = 'lev_surfS_cs_12m.bin',
(PID.TID 0000.0001) >#
(PID.TID 0000.0001) > /
(PID.TID 0000.0001) >
(PID.TID 0000.0001) ># *********************
(PID.TID 0000.0001) > &EXF_NML_03
(PID.TID 0000.0001) > /
(PID.TID 0000.0001) >
(PID.TID 0000.0001) ># *********************
(PID.TID 0000.0001) > &EXF_NML_04
(PID.TID 0000.0001) > /
(PID.TID 0000.0001) 
(PID.TID 0000.0001) EXF_READPARMS: reading EXF_NML_01
(PID.TID 0000.0001) EXF_READPARMS: reading EXF_NML_02
(PID.TID 0000.0001) EXF_READPARMS: reading EXF_NML_03
(PID.TID 0000.0001) EXF_READPARMS: finished reading data.exf
(PID.TID 0000.0001)  GGL90_READPARMS: opening data.ggl90
(PID.TID 0000.0001)  OPEN_COPY_DATA_FILE: opening file data.ggl90
(PID.TID 0000.0001) // =======================================================
(PID.TID 0000.0001) // Parameter file "data.ggl90"
(PID.TID 0000.0001) // =======================================================
(PID.TID 0000.0001) ># Parameters for Gaspar et al. (1990)'s TKE vertical mixing scheme  |
(PID.TID 0000.0001) > &GGL90_PARM01
(PID.TID 0000.0001) >#GGL90dumpFreq=,
(PID.TID 0000.0001) >#GGL90taveFreq=,
(PID.TID 0000.0001) > GGL90diffTKEh=0.E3,
(PID.TID 0000.0001) > GGL90mixingMaps=.FALSE.,
(PID.TID 0000.0001) > GGL90writeState=.FALSE.,
(PID.TID 0000.0001) > GGL90ck = 0.1,
(PID.TID 0000.0001) > GGL90ceps = 0.7,
(PID.TID 0000.0001) > GGL90alpha=30.,
(PID.TID 0000.0001) > GGL90m2 = 3.0,
(PID.TID 0000.0001) > GGL90TKEmin = 0.E-6,
(PID.TID 0000.0001) > GGL90TKEbottom=4.E-6,
(PID.TID 0000.0001) > GGL90TKEsurfMin=1.E-4,
(PID.TID 0000.0001) >#GGL90mixingLengthMin=,
(PID.TID 0000.0001) > mxlMaxFlag=2,
(PID.TID 0000.0001) > GGL90viscMax=1.E2,
(PID.TID 0000.0001) > GGL90diffMax=1.E2,
(PID.TID 0000.0001) >#GGL90TKEFile=,
(PID.TID 0000.0001) > GGL90_dirichlet=.FALSE.,
(PID.TID 0000.0001) > useIDEMIX  = .TRUE.,
(PID.TID 0000.0001) > /
(PID.TID 0000.0001) >
(PID.TID 0000.0001) > &GGL90_PARM02
(PID.TID 0000.0001) > IDEMIX_include_GM_bottom = .FALSE.,
(PID.TID 0000.0001) > IDEMIX_include_GM        = .FALSE.,
(PID.TID 0000.0001) > IDEMIX_tidal_file = 'idemix_tidal_forcing.192x32.bin',
(PID.TID 0000.0001) > IDEMIX_wind_file  = 'idemix_wind_forcing.192x32.bin',
(PID.TID 0000.0001) > /
(PID.TID 0000.0001) 
(PID.TID 0000.0001)  GGL90_READPARMS ; starts to read GGL90_PARM01
(PID.TID 0000.0001)  GGL90_READPARMS: read GGL90_PARM01 : OK
(PID.TID 0000.0001)  GGL90_READPARMS ; starts to read GGL90_PARM02
(PID.TID 0000.0001)  GGL90_READPARMS: read GGL90_PARM02 : OK
(PID.TID 0000.0001)  GGL90_READPARMS: finished reading data.ggl90
(PID.TID 0000.0001) // =======================================================
(PID.TID 0000.0001) // GGL90 configuration
(PID.TID 0000.0001) // =======================================================
(PID.TID 0000.0001) GGL90dumpFreq =   /* GGL90 state write out interval ( s ). */
(PID.TID 0000.0001)                 0.000000000000000E+00
(PID.TID 0000.0001)     ;
(PID.TID 0000.0001) GGL90taveFreq =   /* GGL90 averaging interval ( s ). */
(PID.TID 0000.0001)                 0.000000000000000E+00
(PID.TID 0000.0001)     ;
(PID.TID 0000.0001) GGL90mixingMAPS =   /* GGL90 IO flag */
(PID.TID 0000.0001)                   F
(PID.TID 0000.0001)     ;
(PID.TID 0000.0001) GGL90writeState =   /* GGL90 IO flag */
(PID.TID 0000.0001)                   F
(PID.TID 0000.0001)     ;
(PID.TID 0000.0001) GGL90ck =   /* GGL90 viscosity parameter */
(PID.TID 0000.0001)                 1.000000000000000E-01
(PID.TID 0000.0001)     ;
(PID.TID 0000.0001) GGL90ceps =   /* GGL90 dissipation parameter */
(PID.TID 0000.0001)                 7.000000000000000E-01
(PID.TID 0000.0001)     ;
(PID.TID 0000.0001) GGL90alpha =   /* GGL90 TKE diffusivity parameter */
(PID.TID 0000.0001)                 3.000000000000000E+01
(PID.TID 0000.0001)     ;
(PID.TID 0000.0001) GGL90m2 =   /* GGL90 wind stress to vertical stress ratio */
(PID.TID 0000.0001)                 3.000000000000000E+00
(PID.TID 0000.0001)     ;
(PID.TID 0000.0001) GGL90TKEmin =   /* GGL90 minimum kinetic energy ( m^2/s^2 ) */
(PID.TID 0000.0001)                 0.000000000000000E+00
(PID.TID 0000.0001)     ;
(PID.TID 0000.0001) GGL90TKEsurfMin =   /* GGL90 minimum surface kinetic energy ( m^2/s^2 ) */
(PID.TID 0000.0001)                 1.000000000000000E-04
(PID.TID 0000.0001)     ;
(PID.TID 0000.0001) GGL90TKEbottom =   /* GGL90 bottom kinetic energy ( m^2/s^2 ) */
(PID.TID 0000.0001)                 4.000000000000000E-06
(PID.TID 0000.0001)     ;
(PID.TID 0000.0001) GGL90viscMax =   /* GGL90 upper limit for viscosity (m^2/s ) */
(PID.TID 0000.0001)                 1.000000000000000E+02
(PID.TID 0000.0001)     ;
(PID.TID 0000.0001) GGL90diffMax =   /* GGL90 upper limit for diffusivity (m^2/s ) */
(PID.TID 0000.0001)                 1.000000000000000E+02
(PID.TID 0000.0001)     ;
(PID.TID 0000.0001) GGL90diffTKEh =   /* GGL90 horizontal diffusivity for TKE ( m^2/s ) */
(PID.TID 0000.0001)                 0.000000000000000E+00
(PID.TID 0000.0001)     ;
(PID.TID 0000.0001) GGL90mixingLengthMin =   /* GGL90 minimum mixing length (m) */
(PID.TID 0000.0001)                 1.000000000000000E-08
(PID.TID 0000.0001)     ;
(PID.TID 0000.0001) mxlMaxFlag =   /* Flag for limiting mixing-length method */
(PID.TID 0000.0001)                       2
(PID.TID 0000.0001)     ;
(PID.TID 0000.0001) mxlSurfFlag =   /* GGL90 flag for near surface mixing */
(PID.TID 0000.0001)                   F
(PID.TID 0000.0001)     ;
(PID.TID 0000.0001) calcMeanVertShear = /* calc Mean of Vert.Shear (vs shear of Mean flow) */
(PID.TID 0000.0001)                   F
(PID.TID 0000.0001)     ;
(PID.TID 0000.0001) GGL90: GGL90TKEFile =
(PID.TID 0000.0001) GGL90_dirichlet =   /* GGL90 Boundary condition flag */
(PID.TID 0000.0001)                   F
(PID.TID 0000.0001)     ;
(PID.TID 0000.0001) useIDEMIX =   /* turn on IDEMIX contribution. */
(PID.TID 0000.0001)                   T
(PID.TID 0000.0001)     ;
(PID.TID 0000.0001) IDEMIX_tau_v =   /* IDEMIX vertical group speed parameter. */
(PID.TID 0000.0001)                 8.640000000000000E+04
(PID.TID 0000.0001)     ;
(PID.TID 0000.0001) IDEMIX_tau_h =   /* IDEMIX horizontal group speed parameter. */
(PID.TID 0000.0001)                 8.640000000000000E+05
(PID.TID 0000.0001)     ;
(PID.TID 0000.0001) IDEMIX_gamma =   /* IDEMIX group speed parameter. */
(PID.TID 0000.0001)                 1.570000000000000E+00
(PID.TID 0000.0001)     ;
(PID.TID 0000.0001) IDEMIX_jstar =   /* IDEMIX baroclinic mode bandwidth. */
(PID.TID 0000.0001)                 1.000000000000000E+01
(PID.TID 0000.0001)     ;
(PID.TID 0000.0001) IDEMIX_mu0 =   /* IDEMIX dissipation parameter. */
(PID.TID 0000.0001)                 1.333333333333333E+00
(PID.TID 0000.0001)     ;
(PID.TID 0000.0001) IDEMIX_mixing_efficiency =   /* IDEMIX mixing efficiency. */
(PID.TID 0000.0001)                 1.666000000000000E-01
(PID.TID 0000.0001)     ;
(PID.TID 0000.0001) IDEMIX_diff_max =   /* IDEMIX maximal diffusivity. */
(PID.TID 0000.0001)                 1.000000000000000E+00
(PID.TID 0000.0001)     ;
(PID.TID 0000.0001) IDEMIX_diff_min =   /* IDEMIX minimal diffusivity. */
(PID.TID 0000.0001)                 1.000000000000000E-09
(PID.TID 0000.0001)     ;
(PID.TID 0000.0001) IDEMIX_frac_F_b =   /* Fraction of F_b which enters IW field. */
(PID.TID 0000.0001)                 1.000000000000000E+00
(PID.TID 0000.0001)     ;
(PID.TID 0000.0001) IDEMIX_frac_F_s =   /* Fraction of F_s which enters IW field. */
(PID.TID 0000.0001)                 2.000000000000000E-01
(PID.TID 0000.0001)     ;
(PID.TID 0000.0001) IDEMIX_include_GM =   /* IDEMIX GM flag */
(PID.TID 0000.0001)                   F
(PID.TID 0000.0001)     ;
(PID.TID 0000.0001) IDEMIX_include_GM_bottom =   /* IDEMIX GM flag */
(PID.TID 0000.0001)                   F
(PID.TID 0000.0001)     ;
(PID.TID 0000.0001) IDEMIX_tidal_file = /* file name of tidal energy field */
(PID.TID 0000.0001)               'idemix_tidal_forcing.192x32.bin'
(PID.TID 0000.0001)     ;
(PID.TID 0000.0001) IDEMIX_wind_file  = /* file name of wind energy field */
(PID.TID 0000.0001)               'idemix_wind_forcing.192x32.bin'
(PID.TID 0000.0001)     ;
(PID.TID 0000.0001) // =======================================================
(PID.TID 0000.0001) // End of GGL90 config. summary
(PID.TID 0000.0001) // =======================================================
(PID.TID 0000.0001) 
(PID.TID 0000.0001) 
(PID.TID 0000.0001)  SEAICE_READPARMS: opening data.seaice
(PID.TID 0000.0001)  OPEN_COPY_DATA_FILE: opening file data.seaice
(PID.TID 0000.0001) // =======================================================
(PID.TID 0000.0001) // Parameter file "data.seaice"
(PID.TID 0000.0001) // =======================================================
(PID.TID 0000.0001) ># SEAICE parameters
(PID.TID 0000.0001) > &SEAICE_PARM01
(PID.TID 0000.0001) > LSR_ERROR             = 1.E-12,
(PID.TID 0000.0001) ># test strong implicit coupling method for LSR
(PID.TID 0000.0001) > SEAICEuseStrImpCpl    = .TRUE.,
(PID.TID 0000.0001) >#SEAICE_deltaTevp = 60.,
(PID.TID 0000.0001) > SEAICE_clipVelocities = .TRUE.,
(PID.TID 0000.0001) >#
(PID.TID 0000.0001) > SEAICE_salt0          = 4.,
(PID.TID 0000.0001) > SEAICE_multDim        = 7,
(PID.TID 0000.0001) > SEAICE_wetAlbTemp     = 0.,
(PID.TID 0000.0001) > SEAICE_mcPheePiston   = 0.00057,
(PID.TID 0000.0001) > SEAICE_areaLossFormula= 2,
(PID.TID 0000.0001) > SEAICEheatConsFix     = .TRUE.,
(PID.TID 0000.0001) >#SEAICE_monFreq        = 2592000.,
(PID.TID 0000.0001) >#SEAICEwriteState      = .TRUE.,
(PID.TID 0000.0001) > /
(PID.TID 0000.0001) >
(PID.TID 0000.0001) > &SEAICE_PARM03
(PID.TID 0000.0001) > /
(PID.TID 0000.0001) 
(PID.TID 0000.0001)  SEAICE_READPARMS: finished reading data.seaice
(PID.TID 0000.0001)  DIAGNOSTICS_READPARMS: opening data.diagnostics
(PID.TID 0000.0001)  OPEN_COPY_DATA_FILE: opening file data.diagnostics
(PID.TID 0000.0001) // =======================================================
(PID.TID 0000.0001) // Parameter file "data.diagnostics"
(PID.TID 0000.0001) // =======================================================
(PID.TID 0000.0001) ># Diagnostic Package Choices
(PID.TID 0000.0001) >#--------------------
(PID.TID 0000.0001) >#  dumpAtLast (logical): always write output at the end of simulation (default=F)
(PID.TID 0000.0001) >#  diag_mnc   (logical): write to NetCDF files (default=useMNC)
(PID.TID 0000.0001) >#--for each output-stream:
(PID.TID 0000.0001) >#  fileName(n) : prefix of the output file name (max 80c long) for outp.stream n
(PID.TID 0000.0001) >#  frequency(n):< 0 : write snap-shot output every |frequency| seconds
(PID.TID 0000.0001) >#               > 0 : write time-average output every frequency seconds
(PID.TID 0000.0001) >#  timePhase(n)     : write at time = timePhase + multiple of |frequency|
(PID.TID 0000.0001) >#    averagingFreq  : frequency (in s) for periodic averaging interval
(PID.TID 0000.0001) >#    averagingPhase : phase     (in s) for periodic averaging interval
(PID.TID 0000.0001) >#    repeatCycle    : number of averaging intervals in 1 cycle
(PID.TID 0000.0001) >#  levels(:,n) : list of levels to write to file (Notes: declared as REAL)
(PID.TID 0000.0001) >#                when this entry is missing, select all common levels of this list
(PID.TID 0000.0001) >#  fields(:,n) : list of selected diagnostics fields (8.c) in outp.stream n
(PID.TID 0000.0001) >#                (see "available_diagnostics.log" file for the full list of diags)
(PID.TID 0000.0001) >#  missing_value(n) : missing value for real-type fields in output file "n"
(PID.TID 0000.0001) >#  fileFlags(n)     : specific code (8c string) for output file "n"
(PID.TID 0000.0001) >#--------------------
(PID.TID 0000.0001) > &DIAGNOSTICS_LIST
(PID.TID 0000.0001) ># diag_mnc     = .FALSE.,
(PID.TID 0000.0001) ># dumpAtLast   = .TRUE.,
(PID.TID 0000.0001) >#--
(PID.TID 0000.0001) >  fields(1:11,1) = 'ETAN    ','ETANSQ  ','DETADT2 ','PHIBOT  ','PHIBOTSQ',
(PID.TID 0000.0001) >                   'oceTAUX ','oceTAUY ',
(PID.TID 0000.0001) >                   'oceQnet ','oceSflux','oceFWflx','MXLDEPTH',
(PID.TID 0000.0001) >#                  'surForcT','surForcS','TFLUX   ','SFLUX   ','oceFreez',
(PID.TID 0000.0001) >#                  'TRELAX  ','SRELAX  ',
(PID.TID 0000.0001) >#                  'GM_VisbK',
(PID.TID 0000.0001) >   fileName(1) = 'surfDiag',
(PID.TID 0000.0001) >  frequency(1) = 15552000.,
(PID.TID 0000.0001) ># frequency(1) = 1.,
(PID.TID 0000.0001) >  fields(1:15,2) = 'UVEL    ','VVEL    ','WVEL    ','PHIHYD  ',
(PID.TID 0000.0001) >                   'VVELMASS','UVELMASS','WVELSQ  ',
(PID.TID 0000.0001) >                   'THETA   ','UTHMASS ','VTHMASS ','WTHMASS ',
(PID.TID 0000.0001) >                   'SALT    ','USLTMASS','VSLTMASS','WSLTMASS',
(PID.TID 0000.0001) ># do not specify levels => all levels are selected
(PID.TID 0000.0001) >   fileName(2) = 'dynDiag',
(PID.TID 0000.0001) >  frequency(2) = 15552000.,
(PID.TID 0000.0001) >
(PID.TID 0000.0001) >  fields(1:7,3)  = 'DRHODR  ','RHOAnoma',
(PID.TID 0000.0001) >                   'GGL90TKE','GGL90Kr ','GGL90Lmx',
(PID.TID 0000.0001) >		   'IDEMIX_E','IDEMIX_K',
(PID.TID 0000.0001) >#                  'GM_PsiX ','GM_PsiY ',
(PID.TID 0000.0001) >#                  'GM_Kwx  ','GM_Kwy  ','GM_Kwz  ',
(PID.TID 0000.0001) >#                  'GM_Kux  ','GM_Kvy  ',
(PID.TID 0000.0001) >#                  'GM_Kuz  ','GM_Kvz  ',
(PID.TID 0000.0001) >#- disable this output list by commenting out the file name
(PID.TID 0000.0001) >   fileName(3) = 'oceDiag',
(PID.TID 0000.0001) >  frequency(3) = 15552000.,
(PID.TID 0000.0001) >
(PID.TID 0000.0001) >  fields(1:7,4)  = 'ADVx_TH ','ADVy_TH ','ADVr_TH ',
(PID.TID 0000.0001) >                   'DIFx_TH ','DIFy_TH ','DFrE_TH ',
(PID.TID 0000.0001) >                   'DFrI_TH ',
(PID.TID 0000.0001) >#                  'ADVx_SLT',
(PID.TID 0000.0001) >#  fileName(4) = 'flxDiag',
(PID.TID 0000.0001) >  frequency(4) = 1728000.,
(PID.TID 0000.0001) >
(PID.TID 0000.0001) >  fields(1:5,5)  = 'SIheff  ','SIarea  ','SIhsnow ',
(PID.TID 0000.0001) >                   'SIuice  ','SIvice  ',
(PID.TID 0000.0001) >  fileName(5) = 'seaiceDiag',
(PID.TID 0000.0001) >  frequency(5) = 15552000.,
(PID.TID 0000.0001) ># frequency(5) = 1.,
(PID.TID 0000.0001) >#averagingFreq(5) = 2592000.,
(PID.TID 0000.0001) >#  repeatCycle(5) = 12,
(PID.TID 0000.0001) >#---
(PID.TID 0000.0001) >  frequency(6) = 86400.0,
(PID.TID 0000.0001) >  fields(1:12,6) ='UVELMASS','VVELMASS',
(PID.TID 0000.0001) >                 'ADVx_TH ','ADVy_TH ','DFxE_TH ','DFyE_TH ',
(PID.TID 0000.0001) >                 'ADVx_SLT','ADVy_SLT','DFxE_SLT','DFyE_SLT',
(PID.TID 0000.0001) >                 'AB_gT   ','AB_gS   ',
(PID.TID 0000.0001) >#  filename(6) = 'budg2d_hflux_set2',
(PID.TID 0000.0001) >   fileFlags(6) = 'DI      ',
(PID.TID 0000.0001) >#---
(PID.TID 0000.0001) >  frequency(7) = -86400.0,
(PID.TID 0000.0001) >   fields(1:3,7) = 'ETAN    ','SIheff  ','SIhsnow ',
(PID.TID 0000.0001) >#  filename(7) = 'budg2d_snap_set1',
(PID.TID 0000.0001) >   timePhase(7)= 0.,
(PID.TID 0000.0001) >   fileFlags(7) = 'D       ',
(PID.TID 0000.0001) >#---
(PID.TID 0000.0001) >  frequency(8) = -86400.0,
(PID.TID 0000.0001) >   fields(1:2,8) = 'THETA   ','SALT    ',
(PID.TID 0000.0001) >#  filename(8) = 'budg2d_snap_set2',
(PID.TID 0000.0001) >   timePhase(8)= 0.,
(PID.TID 0000.0001) >   fileFlags(8) = 'DI      ',
(PID.TID 0000.0001) >#---
(PID.TID 0000.0001) >  frequency(9) = 86400.0,
(PID.TID 0000.0001) >  frequency(9) = 1.0,
(PID.TID 0000.0001) >   fields(1:16,9) = 'oceFWflx','SIatmFW ','TFLUX   ','SItflux ','SFLUX   ',
(PID.TID 0000.0001) >                  'SRELAX  ','TRELAX  ','oceSflux','oceQnet ','SIatmQnt','oceQsw  ',
(PID.TID 0000.0001) >#                 'WTHMASS ','WSLTMASS','SIaaflux','SIsnPrcp','SIacSubl',
(PID.TID 0000.0001) >   	          'EXFlwdn ','EXFswdn ','EXFlwnet','EXFhs   ','EXFhl   ',
(PID.TID 0000.0001) >   levels(1,9) = 1.,
(PID.TID 0000.0001) >#  filename(9) = 'budg2d_zflux_set1',
(PID.TID 0000.0001) >   fileFlags(9) = 'D       ',
(PID.TID 0000.0001) >#---
(PID.TID 0000.0001) >  frequency(10) = 86400.0,
(PID.TID 0000.0001) >   fields(1:8,10) ='ADVxHEFF','ADVyHEFF','DFxEHEFF','DFyEHEFF',
(PID.TID 0000.0001) >                 'ADVxSNOW','ADVySNOW','DFxESNOW','DFyESNOW',
(PID.TID 0000.0001) >#  filename(10) = 'budg2d_hflux_set1',
(PID.TID 0000.0001) >   fileFlags(10) = 'D       ',
(PID.TID 0000.0001) > /
(PID.TID 0000.0001) >
(PID.TID 0000.0001) >#--------------------
(PID.TID 0000.0001) ># Parameter for Diagnostics of per level statistics:
(PID.TID 0000.0001) >#--------------------
(PID.TID 0000.0001) >#  diagSt_mnc (logical): write stat-diags to NetCDF files (default=diag_mnc)
(PID.TID 0000.0001) >#  diagSt_regMaskFile : file containing the region-mask to read-in
(PID.TID 0000.0001) >#  nSetRegMskFile   : number of region-mask sets within the region-mask file
(PID.TID 0000.0001) >#  set_regMask(i)   : region-mask set-index that identifies the region "i"
(PID.TID 0000.0001) >#  val_regMask(i)   : region "i" identifier value in the region mask
(PID.TID 0000.0001) >#--for each output-stream:
(PID.TID 0000.0001) >#  stat_fName(n) : prefix of the output file name (max 80c long) for outp.stream n
(PID.TID 0000.0001) >#  stat_freq(n):< 0 : write snap-shot output every |stat_freq| seconds
(PID.TID 0000.0001) >#               > 0 : write time-average output every stat_freq seconds
(PID.TID 0000.0001) >#  stat_phase(n)    : write at time = stat_phase + multiple of |stat_freq|
(PID.TID 0000.0001) >#  stat_region(:,n) : list of "regions" (default: 1 region only=global)
(PID.TID 0000.0001) >#  stat_fields(:,n) : list of selected diagnostics fields (8.c) in outp.stream n
(PID.TID 0000.0001) >#                (see "available_diagnostics.log" file for the full list of diags)
(PID.TID 0000.0001) >#--------------------
(PID.TID 0000.0001) > &DIAG_STATIS_PARMS
(PID.TID 0000.0001) >#- regional mask: 3 lat. band: 1 : y <= -24 ; 2 : -24<y<24 ; 3 : 24 <= y
(PID.TID 0000.0001) > diagSt_regMaskFile='regMask_lat24.bin',
(PID.TID 0000.0001) > nSetRegMskFile = 1,
(PID.TID 0000.0001) > set_regMask(1:3) = 1,  1,  1,
(PID.TID 0000.0001) > val_regMask(1:3) = 1., 2., 3.,
(PID.TID 0000.0001) >#---
(PID.TID 0000.0001) > stat_fields(1:8,1)  = 'ETAN    ','UVEL    ','VVEL    ','WVEL    ',
(PID.TID 0000.0001) >                       'THETA   ','SALT    ','CONVADJ ','DETADT2 ',
(PID.TID 0000.0001) >  stat_fName(1) = 'dynStDiag',
(PID.TID 0000.0001) >   stat_freq(1) = 864000.,
(PID.TID 0000.0001) > stat_fields(1:5,5)  = 'SIheff  ','SIarea  ','SIhsnow ',
(PID.TID 0000.0001) >                       'SIuice  ','SIvice  ',
(PID.TID 0000.0001) > stat_region(1:3,5)  = 1, 3, 0,
(PID.TID 0000.0001) >  stat_fName(5) = 'seaiceStDiag',
(PID.TID 0000.0001) >   stat_freq(5) = 864000.,
(PID.TID 0000.0001) > /
(PID.TID 0000.0001) >
(PID.TID 0000.0001) 
(PID.TID 0000.0001) S/R DIAGNOSTICS_READPARMS, read namelist "diagnostics_list": start
(PID.TID 0000.0001) S/R DIAGNOSTICS_READPARMS, read namelist "diagnostics_list": OK
(PID.TID 0000.0001) S/R DIAGNOSTICS_READPARMS, read namelist "DIAG_STATIS_PARMS": start
(PID.TID 0000.0001) S/R DIAGNOSTICS_READPARMS, read namelist "DIAG_STATIS_PARMS": OK
(PID.TID 0000.0001)  DIAGNOSTICS_READPARMS: global parameter summary:
(PID.TID 0000.0001)  dumpAtLast = /* always write time-ave diags at the end */
(PID.TID 0000.0001)                   F
(PID.TID 0000.0001)     ;
(PID.TID 0000.0001)  diag_mnc =   /* write NetCDF output files */
(PID.TID 0000.0001)                   F
(PID.TID 0000.0001)     ;
(PID.TID 0000.0001)  useMissingValue = /* put MissingValue where mask = 0 */
(PID.TID 0000.0001)                   F
(PID.TID 0000.0001)     ;
(PID.TID 0000.0001)  diagCG_maxIters = /* max number of iters in diag_cg2d */
(PID.TID 0000.0001)                     200
(PID.TID 0000.0001)     ;
(PID.TID 0000.0001)  diagCG_resTarget = /* residual target for diag_cg2d */
(PID.TID 0000.0001)                 1.000000000000000E-09
(PID.TID 0000.0001)     ;
(PID.TID 0000.0001)  diagCG_pcOffDFac = /* preconditioner off-diagonal factor */
(PID.TID 0000.0001)                 9.611687812379854E-01
(PID.TID 0000.0001)     ;
(PID.TID 0000.0001) -----------------------------------------------------
(PID.TID 0000.0001)  DIAGNOSTICS_READPARMS: active diagnostics summary:
(PID.TID 0000.0001) -----------------------------------------------------
(PID.TID 0000.0001) Creating Output Stream: surfDiag
(PID.TID 0000.0001) Output Frequency:   15552000.000000 ; Phase:           0.000000
(PID.TID 0000.0001)  Averaging Freq.:   15552000.000000 , Phase:           0.000000 , Cycle:   1
(PID.TID 0000.0001)  missing value: -9.990000000000E+02
(PID.TID 0000.0001)  Levels:    will be set later
(PID.TID 0000.0001)  Fields:    ETAN     ETANSQ   DETADT2  PHIBOT   PHIBOTSQ oceTAUX  oceTAUY  oceQnet  oceSflux oceFWflx
(PID.TID 0000.0001)  Fields:    MXLDEPTH
(PID.TID 0000.0001) Creating Output Stream: dynDiag
(PID.TID 0000.0001) Output Frequency:   15552000.000000 ; Phase:           0.000000
(PID.TID 0000.0001)  Averaging Freq.:   15552000.000000 , Phase:           0.000000 , Cycle:   1
(PID.TID 0000.0001)  missing value: -9.990000000000E+02
(PID.TID 0000.0001)  Levels:    will be set later
(PID.TID 0000.0001)  Fields:    UVEL     VVEL     WVEL     PHIHYD   VVELMASS UVELMASS WVELSQ   THETA    UTHMASS  VTHMASS
(PID.TID 0000.0001)  Fields:    WTHMASS  SALT     USLTMASS VSLTMASS WSLTMASS
(PID.TID 0000.0001) Creating Output Stream: oceDiag
(PID.TID 0000.0001) Output Frequency:   15552000.000000 ; Phase:           0.000000
(PID.TID 0000.0001)  Averaging Freq.:   15552000.000000 , Phase:           0.000000 , Cycle:   1
(PID.TID 0000.0001)  missing value: -9.990000000000E+02
(PID.TID 0000.0001)  Levels:    will be set later
(PID.TID 0000.0001)  Fields:    DRHODR   RHOAnoma GGL90TKE GGL90Kr  GGL90Lmx IDEMIX_E IDEMIX_K
(PID.TID 0000.0001) Creating Output Stream: seaiceDiag
(PID.TID 0000.0001) Output Frequency:   15552000.000000 ; Phase:           0.000000
(PID.TID 0000.0001)  Averaging Freq.:   15552000.000000 , Phase:           0.000000 , Cycle:   1
(PID.TID 0000.0001)  missing value: -9.990000000000E+02
(PID.TID 0000.0001)  Levels:    will be set later
(PID.TID 0000.0001)  Fields:    SIheff   SIarea   SIhsnow  SIuice   SIvice
(PID.TID 0000.0001) -----------------------------------------------------
(PID.TID 0000.0001)  DIAGNOSTICS_READPARMS: statistics diags. summary:
(PID.TID 0000.0001) Creating Stats. Output Stream: dynStDiag
(PID.TID 0000.0001) Output Frequency:     864000.000000 ; Phase:           0.000000
(PID.TID 0000.0001)  Regions:   0
(PID.TID 0000.0001)  Fields:    ETAN     UVEL     VVEL     WVEL     THETA    SALT     CONVADJ  DETADT2
(PID.TID 0000.0001) Creating Stats. Output Stream: seaiceStDiag
(PID.TID 0000.0001) Output Frequency:     864000.000000 ; Phase:           0.000000
(PID.TID 0000.0001)  Regions:   0  1  3
(PID.TID 0000.0001)  Fields:    SIheff   SIarea   SIhsnow  SIuice   SIvice
(PID.TID 0000.0001) -----------------------------------------------------
(PID.TID 0000.0001) 
(PID.TID 0000.0001) SET_PARMS: done
(PID.TID 0000.0001) Enter INI_VERTICAL_GRID: setInterFDr=    T ; setCenterDr=    F
(PID.TID 0000.0001) tile:   1 ; Read from file grid_cs32.face001.bin
(PID.TID 0000.0001)   => xC yC dxF dyF rA xG yG dxV dyU rAz dxC dyC rAw rAs dxG dyG AngleCS AngleSN
(PID.TID 0000.0001) tile:   2 ; Read from file grid_cs32.face001.bin
(PID.TID 0000.0001)   => xC yC dxF dyF rA xG yG dxV dyU rAz dxC dyC rAw rAs dxG dyG AngleCS AngleSN
(PID.TID 0000.0001) tile:   3 ; Read from file grid_cs32.face002.bin
(PID.TID 0000.0001)   => xC yC dxF dyF rA xG yG dxV dyU rAz dxC dyC rAw rAs dxG dyG AngleCS AngleSN
(PID.TID 0000.0001) tile:   4 ; Read from file grid_cs32.face002.bin
(PID.TID 0000.0001)   => xC yC dxF dyF rA xG yG dxV dyU rAz dxC dyC rAw rAs dxG dyG AngleCS AngleSN
(PID.TID 0000.0001) tile:   5 ; Read from file grid_cs32.face003.bin
(PID.TID 0000.0001)   => xC yC dxF dyF rA xG yG dxV dyU rAz dxC dyC rAw rAs dxG dyG AngleCS AngleSN
(PID.TID 0000.0001) tile:   6 ; Read from file grid_cs32.face003.bin
(PID.TID 0000.0001)   => xC yC dxF dyF rA xG yG dxV dyU rAz dxC dyC rAw rAs dxG dyG AngleCS AngleSN
(PID.TID 0000.0001) tile:   7 ; Read from file grid_cs32.face004.bin
(PID.TID 0000.0001)   => xC yC dxF dyF rA xG yG dxV dyU rAz dxC dyC rAw rAs dxG dyG AngleCS AngleSN
(PID.TID 0000.0001) tile:   8 ; Read from file grid_cs32.face004.bin
(PID.TID 0000.0001)   => xC yC dxF dyF rA xG yG dxV dyU rAz dxC dyC rAw rAs dxG dyG AngleCS AngleSN
(PID.TID 0000.0001) tile:   9 ; Read from file grid_cs32.face005.bin
(PID.TID 0000.0001)   => xC yC dxF dyF rA xG yG dxV dyU rAz dxC dyC rAw rAs dxG dyG AngleCS AngleSN
(PID.TID 0000.0001) tile:  10 ; Read from file grid_cs32.face005.bin
(PID.TID 0000.0001)   => xC yC dxF dyF rA xG yG dxV dyU rAz dxC dyC rAw rAs dxG dyG AngleCS AngleSN
(PID.TID 0000.0001) tile:  11 ; Read from file grid_cs32.face006.bin
(PID.TID 0000.0001)   => xC yC dxF dyF rA xG yG dxV dyU rAz dxC dyC rAw rAs dxG dyG AngleCS AngleSN
(PID.TID 0000.0001) tile:  12 ; Read from file grid_cs32.face006.bin
(PID.TID 0000.0001)   => xC yC dxF dyF rA xG yG dxV dyU rAz dxC dyC rAw rAs dxG dyG AngleCS AngleSN
(PID.TID 0000.0001) %MON XC_max                       =   1.7854351589505E+02
(PID.TID 0000.0001) %MON XC_min                       =  -1.7854351589505E+02
(PID.TID 0000.0001) %MON XC_mean                      =  -1.4199289892029E-14
(PID.TID 0000.0001) %MON XC_sd                        =   1.0355545336287E+02
(PID.TID 0000.0001) %MON XG_max                       =   1.8000000000000E+02
(PID.TID 0000.0001) %MON XG_min                       =  -1.7708797161002E+02
(PID.TID 0000.0001) %MON XG_mean                      =   1.8603515625000E+00
(PID.TID 0000.0001) %MON XG_sd                        =   1.0357130300504E+02
(PID.TID 0000.0001) %MON DXC_max                      =   3.2375185836900E+05
(PID.TID 0000.0001) %MON DXC_min                      =   1.1142031410131E+05
(PID.TID 0000.0001) %MON DXC_mean                     =   2.8605689051214E+05
(PID.TID 0000.0001) %MON DXC_sd                       =   3.4042087138252E+04
(PID.TID 0000.0001) %MON DXF_max                      =   3.2369947500827E+05
(PID.TID 0000.0001) %MON DXF_min                      =   1.2020820513318E+05
(PID.TID 0000.0001) %MON DXF_mean                     =   2.8605437324820E+05
(PID.TID 0000.0001) %MON DXF_sd                       =   3.4050524252539E+04
(PID.TID 0000.0001) %MON DXG_max                      =   3.2375195872773E+05
(PID.TID 0000.0001) %MON DXG_min                      =   1.0098378008791E+05
(PID.TID 0000.0001) %MON DXG_mean                     =   2.8603818508931E+05
(PID.TID 0000.0001) %MON DXG_sd                       =   3.4140406908005E+04
(PID.TID 0000.0001) %MON DXV_max                      =   3.2380418162750E+05
(PID.TID 0000.0001) %MON DXV_min                      =   8.0152299824136E+04
(PID.TID 0000.0001) %MON DXV_mean                     =   2.8603970633619E+05
(PID.TID 0000.0001) %MON DXV_sd                       =   3.4145142117723E+04
(PID.TID 0000.0001) %MON YC_max                       =   8.7940663871962E+01
(PID.TID 0000.0001) %MON YC_min                       =  -8.7940663871962E+01
(PID.TID 0000.0001) %MON YC_mean                      =  -2.3684757858670E-15
(PID.TID 0000.0001) %MON YC_sd                        =   3.8676242969072E+01
(PID.TID 0000.0001) %MON YG_max                       =   9.0000000000000E+01
(PID.TID 0000.0001) %MON YG_min                       =  -9.0000000000000E+01
(PID.TID 0000.0001) %MON YG_mean                      =  -4.1448326252673E-15
(PID.TID 0000.0001) %MON YG_sd                        =   3.8676895860710E+01
(PID.TID 0000.0001) %MON DYC_max                      =   3.2375185836900E+05
(PID.TID 0000.0001) %MON DYC_min                      =   1.1142031410131E+05
(PID.TID 0000.0001) %MON DYC_mean                     =   2.8605689051214E+05
(PID.TID 0000.0001) %MON DYC_sd                       =   3.4042087138252E+04
(PID.TID 0000.0001) %MON DYF_max                      =   3.2369947500827E+05
(PID.TID 0000.0001) %MON DYF_min                      =   1.2020820513318E+05
(PID.TID 0000.0001) %MON DYF_mean                     =   2.8605437324820E+05
(PID.TID 0000.0001) %MON DYF_sd                       =   3.4050524252539E+04
(PID.TID 0000.0001) %MON DYG_max                      =   3.2375195872773E+05
(PID.TID 0000.0001) %MON DYG_min                      =   1.0098378008791E+05
(PID.TID 0000.0001) %MON DYG_mean                     =   2.8603818508931E+05
(PID.TID 0000.0001) %MON DYG_sd                       =   3.4140406908005E+04
(PID.TID 0000.0001) %MON DYU_max                      =   3.2380418162750E+05
(PID.TID 0000.0001) %MON DYU_min                      =   8.0152299824136E+04
(PID.TID 0000.0001) %MON DYU_mean                     =   2.8603970633619E+05
(PID.TID 0000.0001) %MON DYU_sd                       =   3.4145142117723E+04
(PID.TID 0000.0001) %MON RA_max                       =   1.0479260248419E+11
(PID.TID 0000.0001) %MON RA_min                       =   1.4019007022556E+10
(PID.TID 0000.0001) %MON RA_mean                      =   8.2992246709265E+10
(PID.TID 0000.0001) %MON RA_sd                        =   1.7509089299457E+10
(PID.TID 0000.0001) %MON RAW_max                      =   1.0480965274559E+11
(PID.TID 0000.0001) %MON RAW_min                      =   1.2166903467143E+10
(PID.TID 0000.0001) %MON RAW_mean                     =   8.2992246709235E+10
(PID.TID 0000.0001) %MON RAW_sd                       =   1.7481917919656E+10
(PID.TID 0000.0001) %MON RAS_max                      =   1.0480965274559E+11
(PID.TID 0000.0001) %MON RAS_min                      =   1.2166903467143E+10
(PID.TID 0000.0001) %MON RAS_mean                     =   8.2992246709235E+10
(PID.TID 0000.0001) %MON RAS_sd                       =   1.7481917919656E+10
(PID.TID 0000.0001) %MON RAZ_max                      =   1.0484349334619E+11
(PID.TID 0000.0001) %MON RAZ_min                      =   8.8317900612505E+09
(PID.TID 0000.0001) %MON RAZ_mean                     =   8.2992246709235E+10
(PID.TID 0000.0001) %MON RAZ_sd                       =   1.7482297311044E+10
(PID.TID 0000.0001) %MON AngleCS_max                  =   9.9999994756719E-01
(PID.TID 0000.0001) %MON AngleCS_min                  =  -9.9968286884824E-01
(PID.TID 0000.0001) %MON AngleCS_mean                 =   3.3078922539000E-01
(PID.TID 0000.0001) %MON AngleCS_sd                   =   6.2496278958502E-01
(PID.TID 0000.0001) %MON AngleSN_max                  =   9.9968286884824E-01
(PID.TID 0000.0001) %MON AngleSN_min                  =  -9.9999994756719E-01
(PID.TID 0000.0001) %MON AngleSN_mean                 =  -3.3078922539000E-01
(PID.TID 0000.0001) %MON AngleSN_sd                   =   6.2496278958502E-01
(PID.TID 0000.0001)  MDS_READ_FIELD: opening global file: bathy_in_P.bin
(PID.TID 0000.0001) 
(PID.TID 0000.0001) // =======================================================
(PID.TID 0000.0001) // Calendar configuration >>> START <<<
(PID.TID 0000.0001) // =======================================================
(PID.TID 0000.0001) 
(PID.TID 0000.0001) modelstart = /* Start time of the model integration [s] */
(PID.TID 0000.0001)                 0.000000000000000E+00
(PID.TID 0000.0001)     ;
(PID.TID 0000.0001) modelend  = /* End time of the model integration [s] */
(PID.TID 0000.0001)                 8.640000000000000E+05
(PID.TID 0000.0001)     ;
(PID.TID 0000.0001) modelStep = /* Time interval for a model forward step [s] */
(PID.TID 0000.0001)                 8.640000000000000E+04
(PID.TID 0000.0001)     ;
(PID.TID 0000.0001) usingGregorianCalendar= /* Calendar Type: Gregorian Calendar */
(PID.TID 0000.0001)                   F
(PID.TID 0000.0001)     ;
(PID.TID 0000.0001) usingJulianCalendar = /* Calendar Type: Julian Calendar */
(PID.TID 0000.0001)                   F
(PID.TID 0000.0001)     ;
(PID.TID 0000.0001) usingNoLeapYearCal  = /* Calendar Type: without Leap Year */
(PID.TID 0000.0001)                   F
(PID.TID 0000.0001)     ;
(PID.TID 0000.0001) usingModelCalendar  = /* Calendar Type: Model Calendar */
(PID.TID 0000.0001)                   T
(PID.TID 0000.0001)     ;
(PID.TID 0000.0001) modelStartDate YYYYMMDD = /* Model start date YYYY-MM-DD */
(PID.TID 0000.0001)                   10101
(PID.TID 0000.0001)     ;
(PID.TID 0000.0001)   modelStartDate HHMMSS = /* Model start date HH-MM-SS  */
(PID.TID 0000.0001)                       0
(PID.TID 0000.0001)     ;
(PID.TID 0000.0001) modelEndDate   YYYYMMDD = /* Model end date YYYY-MM-DD */
(PID.TID 0000.0001)                   10111
(PID.TID 0000.0001)     ;
(PID.TID 0000.0001)   modelEndDate   HHMMSS = /* Model end date HH-MM-SS  */
(PID.TID 0000.0001)                       0
(PID.TID 0000.0001)     ;
(PID.TID 0000.0001) intyears = /* Number of calendar years affected by the integration */
(PID.TID 0000.0001)                       1
(PID.TID 0000.0001)     ;
(PID.TID 0000.0001) intmonths= /* Number of calendar months affected by the integration */
(PID.TID 0000.0001)                       1
(PID.TID 0000.0001)     ;
(PID.TID 0000.0001) intdays = /* Number of calendar days affected by the integration */
(PID.TID 0000.0001)                      10
(PID.TID 0000.0001)     ;
(PID.TID 0000.0001) modelIter0 = /* Base timestep number  */
(PID.TID 0000.0001)                       0
(PID.TID 0000.0001)     ;
(PID.TID 0000.0001) modelIterEnd = /* Final timestep number  */
(PID.TID 0000.0001)                      10
(PID.TID 0000.0001)     ;
(PID.TID 0000.0001) modelIntSteps= /* Number of model timesteps  */
(PID.TID 0000.0001)                      10
(PID.TID 0000.0001)     ;
(PID.TID 0000.0001) 
(PID.TID 0000.0001) // =======================================================
(PID.TID 0000.0001) // Calendar configuration  >>> END <<<
(PID.TID 0000.0001) // =======================================================
(PID.TID 0000.0001) 
(PID.TID 0000.0001) GAD_INIT_FIXED: GAD_OlMinSize=  1  0  1
(PID.TID 0000.0001) 
(PID.TID 0000.0001) // ===================================
(PID.TID 0000.0001) // GAD parameters :
(PID.TID 0000.0001) // ===================================
(PID.TID 0000.0001) tempAdvScheme =   /* Temp. Horiz.Advection scheme selector */
(PID.TID 0000.0001)                       2
(PID.TID 0000.0001)     ;
(PID.TID 0000.0001) tempVertAdvScheme =   /* Temp. Vert. Advection scheme selector */
(PID.TID 0000.0001)                       2
(PID.TID 0000.0001)     ;
(PID.TID 0000.0001) tempMultiDimAdvec =   /* use Muti-Dim Advec method for Temp */
(PID.TID 0000.0001)                   F
(PID.TID 0000.0001)     ;
(PID.TID 0000.0001) tempSOM_Advection = /* use 2nd Order Moment Advection for Temp */
(PID.TID 0000.0001)                   F
(PID.TID 0000.0001)     ;
(PID.TID 0000.0001) AdamsBashforthGt = /* apply Adams-Bashforth extrapolation on Gt */
(PID.TID 0000.0001)                   T
(PID.TID 0000.0001)     ;
(PID.TID 0000.0001) AdamsBashforth_T = /* apply Adams-Bashforth extrapolation on Temp */
(PID.TID 0000.0001)                   F
(PID.TID 0000.0001)     ;
(PID.TID 0000.0001) saltAdvScheme =   /* Salt. Horiz.advection scheme selector */
(PID.TID 0000.0001)                       2
(PID.TID 0000.0001)     ;
(PID.TID 0000.0001) saltVertAdvScheme =   /* Salt. Vert. Advection scheme selector */
(PID.TID 0000.0001)                       2
(PID.TID 0000.0001)     ;
(PID.TID 0000.0001) saltMultiDimAdvec =   /* use Muti-Dim Advec method for Salt */
(PID.TID 0000.0001)                   F
(PID.TID 0000.0001)     ;
(PID.TID 0000.0001) saltSOM_Advection = /* use 2nd Order Moment Advection for Salt */
(PID.TID 0000.0001)                   F
(PID.TID 0000.0001)     ;
(PID.TID 0000.0001) AdamsBashforthGs = /* apply Adams-Bashforth extrapolation on Gs */
(PID.TID 0000.0001)                   T
(PID.TID 0000.0001)     ;
(PID.TID 0000.0001) AdamsBashforth_S = /* apply Adams-Bashforth extrapolation on Salt */
(PID.TID 0000.0001)                   F
(PID.TID 0000.0001)     ;
(PID.TID 0000.0001) // ===================================
(PID.TID 0000.0001) 
(PID.TID 0000.0001) // =======================================================
(PID.TID 0000.0001) // External forcing (EXF) configuration >>> START <<<
(PID.TID 0000.0001) // =======================================================
(PID.TID 0000.0001) 
(PID.TID 0000.0001)  EXF general parameters:
(PID.TID 0000.0001) 
(PID.TID 0000.0001) exf_iprec = /* exf file precision */
(PID.TID 0000.0001)                      64
(PID.TID 0000.0001)     ;
(PID.TID 0000.0001) useExfYearlyFields = /* add extension _YEAR to input file names */
(PID.TID 0000.0001)                   F
(PID.TID 0000.0001)     ;
(PID.TID 0000.0001) twoDigitYear = /* use 2-digit year extension */
(PID.TID 0000.0001)                   F
(PID.TID 0000.0001)     ;
(PID.TID 0000.0001) useExfCheckRange = /* check for fields range */
(PID.TID 0000.0001)                   T
(PID.TID 0000.0001)     ;
(PID.TID 0000.0001) diags_opOceWeighted = /* weight flux diags by open-ocean fraction */
(PID.TID 0000.0001)                   T
(PID.TID 0000.0001)     ;
(PID.TID 0000.0001) exf_debugLev = /* select EXF-debug printing level */
(PID.TID 0000.0001)                       2
(PID.TID 0000.0001)     ;
(PID.TID 0000.0001) exf_monFreq  = /* EXF monitor frequency [ s ] */
(PID.TID 0000.0001)                 0.000000000000000E+00
(PID.TID 0000.0001)     ;
(PID.TID 0000.0001) repeatPeriod = /* period for cycling forcing dataset [ s ] */
(PID.TID 0000.0001)                 3.110400000000000E+07
(PID.TID 0000.0001)     ;
(PID.TID 0000.0001) climTempFreeze= /* Minimum climatological temperature [deg.C] */
(PID.TID 0000.0001)                -1.900000000000000E+00
(PID.TID 0000.0001)     ;
(PID.TID 0000.0001) windStressMax = /* Maximum absolute windstress [ Pa ] */
(PID.TID 0000.0001)                 2.000000000000000E+00
(PID.TID 0000.0001)     ;
(PID.TID 0000.0001) stressIsOnCgrid = /* set u,v_stress on Arakawa C-grid */
(PID.TID 0000.0001)                   T
(PID.TID 0000.0001)     ;
(PID.TID 0000.0001) rotateStressOnAgrid = /* rotate u,v_stress on Arakawa A-grid */
(PID.TID 0000.0001)                   F
(PID.TID 0000.0001)     ;
(PID.TID 0000.0001) cen2kel = /* conversion of deg. Centigrade to Kelvin [K] */
(PID.TID 0000.0001)                 2.731500000000000E+02
(PID.TID 0000.0001)     ;
(PID.TID 0000.0001) gravity_mks= /* gravitational acceleration [m/s^2] */
(PID.TID 0000.0001)                 9.810000000000000E+00
(PID.TID 0000.0001)     ;
(PID.TID 0000.0001) atmrho =  /* mean atmospheric density [kg/m^3] */
(PID.TID 0000.0001)                 1.220000000000000E+00
(PID.TID 0000.0001)     ;
(PID.TID 0000.0001) atmcp =  /* mean atmospheric specific heat [J/kg/K] */
(PID.TID 0000.0001)                 1.005000000000000E+03
(PID.TID 0000.0001)     ;
(PID.TID 0000.0001) flamb =  /* latent heat of evaporation [J/kg] */
(PID.TID 0000.0001)                 2.500000000000000E+06
(PID.TID 0000.0001)     ;
(PID.TID 0000.0001) flami =  /* latent heat of pure-ice melting [J/kg] */
(PID.TID 0000.0001)                 3.340000000000000E+05
(PID.TID 0000.0001)     ;
(PID.TID 0000.0001) cvapor_fac = /* const. for Saturation calculation [?] */
(PID.TID 0000.0001)                 6.403800000000000E+05
(PID.TID 0000.0001)     ;
(PID.TID 0000.0001) cvapor_exp = /* const. for Saturation calculation [?] */
(PID.TID 0000.0001)                 5.107400000000000E+03
(PID.TID 0000.0001)     ;
(PID.TID 0000.0001) cvapor_fac_ice= /* const. for Saturation calculation [?] */
(PID.TID 0000.0001)                 1.163780000000000E+07
(PID.TID 0000.0001)     ;
(PID.TID 0000.0001) cvapor_exp_ice= /* const. for Saturation calculation [?] */
(PID.TID 0000.0001)                 5.897800000000000E+03
(PID.TID 0000.0001)     ;
(PID.TID 0000.0001) humid_fac = /* humidity coef. in virtual temp. [(kg/kg)^-1] */
(PID.TID 0000.0001)                 6.080000000000000E-01
(PID.TID 0000.0001)     ;
(PID.TID 0000.0001) gamma_blk = /* adiabatic lapse rate [?] */
(PID.TID 0000.0001)                 1.000000000000000E-02
(PID.TID 0000.0001)     ;
(PID.TID 0000.0001) saltsat = /* reduction of Qsat over salty water [-] */
(PID.TID 0000.0001)                 9.800000000000000E-01
(PID.TID 0000.0001)     ;
(PID.TID 0000.0001) noNegativeEvap = /* prevent negative Evaporation */
(PID.TID 0000.0001)                   F
(PID.TID 0000.0001)     ;
(PID.TID 0000.0001) sstExtrapol = /* extrapolation coeff from lev. 1 & 2 to surf [-] */
(PID.TID 0000.0001)                 0.000000000000000E+00
(PID.TID 0000.0001)     ;
(PID.TID 0000.0001) cDrag_1 = /* coef used in drag calculation [?] */
(PID.TID 0000.0001)                 2.700000000000000E-03
(PID.TID 0000.0001)     ;
(PID.TID 0000.0001) cDrag_2 = /* coef used in drag calculation [?] */
(PID.TID 0000.0001)                 1.420000000000000E-04
(PID.TID 0000.0001)     ;
(PID.TID 0000.0001) cDrag_3 = /* coef used in drag calculation [?] */
(PID.TID 0000.0001)                 7.640000000000000E-05
(PID.TID 0000.0001)     ;
(PID.TID 0000.0001) cStanton_1 = /* coef used in Stanton number calculation [?] */
(PID.TID 0000.0001)                 3.270000000000000E-02
(PID.TID 0000.0001)     ;
(PID.TID 0000.0001) cStanton_2 = /* coef used in Stanton number calculation [?] */
(PID.TID 0000.0001)                 1.800000000000000E-02
(PID.TID 0000.0001)     ;
(PID.TID 0000.0001) cDalton = /* coef used in Dalton number calculation [?] */
(PID.TID 0000.0001)                 3.460000000000000E-02
(PID.TID 0000.0001)     ;
(PID.TID 0000.0001) exf_scal_BulkCdn= /* Drag coefficient scaling factor [-] */
(PID.TID 0000.0001)                 1.000000000000000E+00
(PID.TID 0000.0001)     ;
(PID.TID 0000.0001) zolmin = /* minimum stability parameter [?] */
(PID.TID 0000.0001)                -1.000000000000000E+02
(PID.TID 0000.0001)     ;
(PID.TID 0000.0001) psim_fac = /* coef used in turbulent fluxes calculation [-] */
(PID.TID 0000.0001)                 5.000000000000000E+00
(PID.TID 0000.0001)     ;
(PID.TID 0000.0001) zref =  /* reference height [ m ] */
(PID.TID 0000.0001)                 1.000000000000000E+01
(PID.TID 0000.0001)     ;
(PID.TID 0000.0001) hu =  /* height of mean wind [ m ] */
(PID.TID 0000.0001)                 1.000000000000000E+01
(PID.TID 0000.0001)     ;
(PID.TID 0000.0001) ht =  /* height of mean temperature [ m ] */
(PID.TID 0000.0001)                 1.000000000000000E+01
(PID.TID 0000.0001)     ;
(PID.TID 0000.0001) hq =  /* height of mean spec.humidity [ m ] */
(PID.TID 0000.0001)                 1.000000000000000E+01
(PID.TID 0000.0001)     ;
(PID.TID 0000.0001) uMin = /* minimum wind speed [m/s] */
(PID.TID 0000.0001)                 5.000000000000000E-01
(PID.TID 0000.0001)     ;
(PID.TID 0000.0001) useStabilityFct_overIce= /* transfert Coeffs over sea-ice depend on stability */
(PID.TID 0000.0001)                   F
(PID.TID 0000.0001)     ;
(PID.TID 0000.0001) exf_iceCd = /* drag coefficient over sea-ice (fixed) [-] */
(PID.TID 0000.0001)                 1.630000000000000E-03
(PID.TID 0000.0001)     ;
(PID.TID 0000.0001) exf_iceCe = /* transfert coeff. over sea-ice, for Evap (fixed) [-] */
(PID.TID 0000.0001)                 1.630000000000000E-03
(PID.TID 0000.0001)     ;
(PID.TID 0000.0001) exf_iceCh = /* transfert coeff. over sea-ice, Sens.Heat.(fixed)[-] */
(PID.TID 0000.0001)                 1.630000000000000E-03
(PID.TID 0000.0001)     ;
(PID.TID 0000.0001) exf_albedo =  /* Sea-water albedo [-] */
(PID.TID 0000.0001)                 6.600000000000000E-02
(PID.TID 0000.0001)     ;
(PID.TID 0000.0001) useExfZenAlbedo = /* Sea-water albedo varies with zenith angle */
(PID.TID 0000.0001)                   F
(PID.TID 0000.0001)     ;
(PID.TID 0000.0001) select_ZenAlbedo = /* Sea-water albedo computation method */
(PID.TID 0000.0001)                       0
(PID.TID 0000.0001)     ;
(PID.TID 0000.0001) useExfZenIncoming = /* compute incoming solar radiation */
(PID.TID 0000.0001)                   F
(PID.TID 0000.0001)     ;
(PID.TID 0000.0001) ocean_emissivity = /* longwave ocean-surface emissivity [-] */
(PID.TID 0000.0001)                 1.000000000000000E+00
(PID.TID 0000.0001)     ;
(PID.TID 0000.0001) ice_emissivity = /* longwave seaice emissivity [-] */
(PID.TID 0000.0001)                 9.500000000000000E-01
(PID.TID 0000.0001)     ;
(PID.TID 0000.0001) snow_emissivity = /* longwave snow  emissivity [-] */
(PID.TID 0000.0001)                 9.500000000000000E-01
(PID.TID 0000.0001)     ;
(PID.TID 0000.0001) 
(PID.TID 0000.0001)  EXF main CPP flags:
(PID.TID 0000.0001) 
(PID.TID 0000.0001) // USE_EXF_INTERPOLATION:          NOT defined
(PID.TID 0000.0001) // ALLOW_ATM_TEMP:                     defined
(PID.TID 0000.0001) // ALLOW_ATM_WIND (useAtmWind):    NOT defined
(PID.TID 0000.0001) // ALLOW_DOWNWARD_RADIATION:           defined
(PID.TID 0000.0001) // ALLOW_BULKFORMULAE:                 defined
(PID.TID 0000.0001) 
(PID.TID 0000.0001)    Zonal wind stress forcing starts at             1296000.
(PID.TID 0000.0001)    Zonal wind stress forcing period is             2592000.
(PID.TID 0000.0001)    Zonal wind stress forcing repeat-cycle is      31104000.
(PID.TID 0000.0001)    Zonal wind stress forcing is read from file:
(PID.TID 0000.0001)    >> trenberth_taux.bin <<
(PID.TID 0000.0001) 
(PID.TID 0000.0001)    Meridional wind stress forcing starts at        1296000.
(PID.TID 0000.0001)    Meridional wind stress forcing period is        2592000.
(PID.TID 0000.0001)    Meridional wind stress forcing rep-cycle is    31104000.
(PID.TID 0000.0001)    Meridional wind stress forcing is read from file:
(PID.TID 0000.0001)    >> trenberth_tauy.bin <<
(PID.TID 0000.0001) 
(PID.TID 0000.0001)    Surface wind speed starts at                    1296000.
(PID.TID 0000.0001)    Surface wind speed period is                    2592000.
(PID.TID 0000.0001)    Surface wind speed repeat-cycle is             31104000.
(PID.TID 0000.0001)    Surface wind speed is read from file:
(PID.TID 0000.0001)    >> core_wndSpd_cs32.bin <<
(PID.TID 0000.0001) 
(PID.TID 0000.0001)    Atmospheric temperature starts at               1296000.
(PID.TID 0000.0001)    Atmospheric temperature period is               2592000.
(PID.TID 0000.0001)    Atmospheric temperature repeat-cycle is        31104000.
(PID.TID 0000.0001)    Atmospheric temperature is read from file:
(PID.TID 0000.0001)    >> core_t_Air_cs32.bin <<
(PID.TID 0000.0001) 
(PID.TID 0000.0001)    Atmospheric specific humidity starts at         1296000.
(PID.TID 0000.0001)    Atmospheric specific humidity period is         2592000.
(PID.TID 0000.0001)    Atmospheric specific humidity rep-cycle is     31104000.
(PID.TID 0000.0001)    Atmospheric specific humidity is read from file:
(PID.TID 0000.0001)    >> core_q_air_cs32.bin <<
(PID.TID 0000.0001) 
(PID.TID 0000.0001) // ALLOW_READ_TURBFLUXES:          NOT defined
(PID.TID 0000.0001) // EXF_READ_EVAP:                  NOT defined
(PID.TID 0000.0001) 
(PID.TID 0000.0001)    Precipitation data starts at                    1296000.
(PID.TID 0000.0001)    Precipitation data period is                    2592000.
(PID.TID 0000.0001)    Precipitation data repeat-cycle is             31104000.
(PID.TID 0000.0001)    Precipitation data is read from file:
(PID.TID 0000.0001)    >> core_prec_1_cs32.bin <<
(PID.TID 0000.0001) 
(PID.TID 0000.0001) // ALLOW_RUNOFF:                       defined
(PID.TID 0000.0001)    Runoff data starts at                           1296000.
(PID.TID 0000.0001)    Runoff data period is                           2592000.
(PID.TID 0000.0001)    Runoff data repeat-cycle is                    31104000.
(PID.TID 0000.0001)    Runoff data is read from file:
(PID.TID 0000.0001)    >> core_rnof_1_cs32.bin <<
(PID.TID 0000.0001) 
(PID.TID 0000.0001) // ALLOW_RUNOFTEMP:                    defined
(PID.TID 0000.0001)    Runoff temp. is read from file:
(PID.TID 0000.0001)    >> runoff_temperature.bin <<
(PID.TID 0000.0001) 
(PID.TID 0000.0001) // ALLOW_SALTFLX:                  NOT defined
(PID.TID 0000.0001) 
(PID.TID 0000.0001)    Downward shortwave flux starts at               1296000.
(PID.TID 0000.0001)    Downward shortwave flux period is               2592000.
(PID.TID 0000.0001)    Downward shortwave flux repeat-cycle is        31104000.
(PID.TID 0000.0001)    Downward shortwave flux is read from file:
(PID.TID 0000.0001)    >> core_dwnSw_cs32.bin <<
(PID.TID 0000.0001) 
(PID.TID 0000.0001)    Downward longwave flux starts at                1296000.
(PID.TID 0000.0001)    Downward longwave flux period is                2592000.
(PID.TID 0000.0001)    Downward longwave flux repeat-cycle is         31104000.
(PID.TID 0000.0001)    Downward longwave flux is read from file:
(PID.TID 0000.0001)    >> core_dwnLw_cs32.bin <<
(PID.TID 0000.0001) 
(PID.TID 0000.0001) // =======================================================
(PID.TID 0000.0001) // External forcing (EXF) climatology configuration :
(PID.TID 0000.0001) // =======================================================
(PID.TID 0000.0001) 
(PID.TID 0000.0001) // ALLOW_CLIMSST_RELAXATION:           defined
(PID.TID 0000.0001)    Climatological SST starts at                    1296000.
(PID.TID 0000.0001)    Climatological SST period is                    2592000.
(PID.TID 0000.0001)    Climatological SST repeat-cycle is             31104000.
(PID.TID 0000.0001)    Climatological SST is read from file:
(PID.TID 0000.0001)    >> lev_surfT_cs_12m.bin <<
(PID.TID 0000.0001) 
(PID.TID 0000.0001) // ALLOW_CLIMSSS_RELAXATION:           defined
(PID.TID 0000.0001)    Climatological SSS starts at                    1296000.
(PID.TID 0000.0001)    Climatological SSS period is                    2592000.
(PID.TID 0000.0001)    Climatological SSS repeat-cycle is             31104000.
(PID.TID 0000.0001)    Climatological SSS is read from file:
(PID.TID 0000.0001)    >> lev_surfS_cs_12m.bin <<
(PID.TID 0000.0001) 
(PID.TID 0000.0001) // =======================================================
(PID.TID 0000.0001) // External forcing (EXF) configuration  >>> END <<<
(PID.TID 0000.0001) // =======================================================
(PID.TID 0000.0001) 
(PID.TID 0000.0001) // =======================================================
(PID.TID 0000.0001) // Seaice configuration (SEAICE_PARM01) >>> START <<<
(PID.TID 0000.0001) // =======================================================
(PID.TID 0000.0001) 
(PID.TID 0000.0001)    Seaice time stepping configuration   > START <
(PID.TID 0000.0001)    ----------------------------------------------
(PID.TID 0000.0001) SEAICE_deltaTtherm= /* thermodynamic timestep */
(PID.TID 0000.0001)                 8.640000000000000E+04
(PID.TID 0000.0001)     ;
(PID.TID 0000.0001) SEAICE_deltaTdyn  = /* dynamic timestep */
(PID.TID 0000.0001)                 8.640000000000000E+04
(PID.TID 0000.0001)     ;
(PID.TID 0000.0001) SEAICEuseBDF2  = /* use backw. differencing for mom. eq. */
(PID.TID 0000.0001)                   F
(PID.TID 0000.0001)     ;
(PID.TID 0000.0001) SEAICEupdateOceanStress= /* update Ocean surf. stress */
(PID.TID 0000.0001)                   T
(PID.TID 0000.0001)     ;
(PID.TID 0000.0001) SEAICErestoreUnderIce  = /* restore T and S under ice */
(PID.TID 0000.0001)                   F
(PID.TID 0000.0001)     ;
(PID.TID 0000.0001) 
(PID.TID 0000.0001)    Seaice dynamics configuration   > START <
(PID.TID 0000.0001)    ------------------------------------------
(PID.TID 0000.0001) SEAICEuseDYNAMICS = /* use dynamics */
(PID.TID 0000.0001)                   T
(PID.TID 0000.0001)     ;
(PID.TID 0000.0001) model grid type   = /* type of sea ice model grid */
(PID.TID 0000.0001)               'C-GRID'
(PID.TID 0000.0001)     ;
(PID.TID 0000.0001) SEAICEuseStrImpCpl = /* use strongly implicit coupling */
(PID.TID 0000.0001)                   T
(PID.TID 0000.0001)     ;
(PID.TID 0000.0001) SEAICEusePicardAsPrecon = /* Picard as preconditioner */
(PID.TID 0000.0001)                   F
(PID.TID 0000.0001)     ;
(PID.TID 0000.0001) SEAICEuseLSR      = /* use default Picard-LSR solver */
(PID.TID 0000.0001)                   T
(PID.TID 0000.0001)     ;
(PID.TID 0000.0001) SEAICEuseKrylov   = /* use Picard-Krylov solver */
(PID.TID 0000.0001)                   F
(PID.TID 0000.0001)     ;
(PID.TID 0000.0001) SEAICEuseEVP      = /* use EVP solver rather than LSR */
(PID.TID 0000.0001)                   F
(PID.TID 0000.0001)     ;
(PID.TID 0000.0001) SEAICEuseJFNK     = /* use JFNK solver */
(PID.TID 0000.0001)                   F
(PID.TID 0000.0001)     ;
(PID.TID 0000.0001) OCEAN_drag        = /* air-ocean drag coefficient */
(PID.TID 0000.0001)                 1.000000000000000E-03
(PID.TID 0000.0001)     ;
(PID.TID 0000.0001) SEAICE_drag       = /* air-ice drag coefficient */
(PID.TID 0000.0001)                 1.000000000000000E-03
(PID.TID 0000.0001)     ;
(PID.TID 0000.0001) SEAICE_drag_south      = /* Southern Ocean SEAICE_drag */
(PID.TID 0000.0001)                 1.000000000000000E-03
(PID.TID 0000.0001)     ;
(PID.TID 0000.0001) SEAICE_waterDrag  = /* water-ice drag (no units) */
(PID.TID 0000.0001)                 5.500000000000000E-03
(PID.TID 0000.0001)     ;
(PID.TID 0000.0001) SEAICE_waterDrag_south = /* Southern Ocean waterDrag (no units) */
(PID.TID 0000.0001)                 5.500000000000000E-03
(PID.TID 0000.0001)     ;
(PID.TID 0000.0001) SEAICEdWatMin = /* minimum linear water-ice drag (in m/s) */
(PID.TID 0000.0001)                 2.500000000000000E-01
(PID.TID 0000.0001)     ;
(PID.TID 0000.0001) SEAICEuseTilt     = /* include surface tilt in dyna. */
(PID.TID 0000.0001)                   T
(PID.TID 0000.0001)     ;
(PID.TID 0000.0001) SEAICEuseTEM      = /* use truncated ellipse rheology */
(PID.TID 0000.0001)                   F
(PID.TID 0000.0001)     ;
(PID.TID 0000.0001) SEAICE_strength   = /* sea-ice strength Pstar */
(PID.TID 0000.0001)                 2.750000000000000E+04
(PID.TID 0000.0001)     ;
(PID.TID 0000.0001) SEAICE_cStar      = /* sea-ice strength parameter cStar */
(PID.TID 0000.0001)                 2.000000000000000E+01
(PID.TID 0000.0001)     ;
(PID.TID 0000.0001) SEAICEpressReplFac= /* press. replacement method factor */
(PID.TID 0000.0001)                 1.000000000000000E+00
(PID.TID 0000.0001)     ;
(PID.TID 0000.0001) SEAICE_tensilFac  = /* sea-ice tensile strength factor */
(PID.TID 0000.0001)                 0.000000000000000E+00
(PID.TID 0000.0001)     ;
(PID.TID 0000.0001) SEAICE_tensilDepth= /* crit. depth for tensile strength */
(PID.TID 0000.0001)                 0.000000000000000E+00
(PID.TID 0000.0001)     ;
(PID.TID 0000.0001) SEAICEpresH0   = /* sea-ice strength Heff threshold */
(PID.TID 0000.0001)                 1.000000000000000E+00
(PID.TID 0000.0001)     ;
(PID.TID 0000.0001) SEAICEpresPow0 = /* exponent for Heff<SEAICEpresH0 */
(PID.TID 0000.0001)                       1
(PID.TID 0000.0001)     ;
(PID.TID 0000.0001) SEAICEpresPow1 = /* exponent for Heff>SEAICEpresH0 */
(PID.TID 0000.0001)                       1
(PID.TID 0000.0001)     ;
(PID.TID 0000.0001) SEAICEetaZmethod = /* method computing eta at Z-point */
(PID.TID 0000.0001)                       3
(PID.TID 0000.0001)     ;
(PID.TID 0000.0001) SEAICE_zetaMaxFac = /* factor for upper viscosity bound */
(PID.TID 0000.0001)                 2.500000000000000E+08
(PID.TID 0000.0001)     ;
(PID.TID 0000.0001) SEAICE_zetaMin    = /* lower bound for viscosity */
(PID.TID 0000.0001)                 0.000000000000000E+00
(PID.TID 0000.0001)     ;
(PID.TID 0000.0001) SEAICE_eccen    = /* elliptical yield curve eccent */
(PID.TID 0000.0001)                 2.000000000000000E+00
(PID.TID 0000.0001)     ;
(PID.TID 0000.0001) SEAICEstressFactor    = /* wind stress scaling factor */
(PID.TID 0000.0001)                 1.000000000000000E+00
(PID.TID 0000.0001)     ;
(PID.TID 0000.0001) SEAICE_airTurnAngle    = /* air-ice turning angle */
(PID.TID 0000.0001)                 0.000000000000000E+00
(PID.TID 0000.0001)     ;
(PID.TID 0000.0001) SEAICE_waterTurnAngle  = /* ice-water turning angle */
(PID.TID 0000.0001)                 0.000000000000000E+00
(PID.TID 0000.0001)     ;
(PID.TID 0000.0001) SEAICEuseMetricTerms = /* use metric terms */
(PID.TID 0000.0001)                   T
(PID.TID 0000.0001)     ;
(PID.TID 0000.0001) SEAICE_no_slip    = /* no slip boundary conditions */
(PID.TID 0000.0001)                   F
(PID.TID 0000.0001)     ;
(PID.TID 0000.0001) SEAICE_2ndOrderBC = /* 2nd order no slip boundary conditions */
(PID.TID 0000.0001)                   F
(PID.TID 0000.0001)     ;
(PID.TID 0000.0001) SEAICE_clipVeloctities = /* impose max. vels. */
(PID.TID 0000.0001)                   T
(PID.TID 0000.0001)     ;
(PID.TID 0000.0001) useHB87stressCoupling  = /* altern. ice-ocean stress */
(PID.TID 0000.0001)                   F
(PID.TID 0000.0001)     ;
(PID.TID 0000.0001) SEAICEscaleSurfStress  = /* scale atm. and ocean-surface stress with AREA */
(PID.TID 0000.0001)                   T
(PID.TID 0000.0001)     ;
(PID.TID 0000.0001) SEAICE_maskRHS    = /* mask RHS of solver */
(PID.TID 0000.0001)                   F
(PID.TID 0000.0001)     ;
(PID.TID 0000.0001) SEAICEaddSnowMass = /* add snow mass to seaiceMassC/U/V */
(PID.TID 0000.0001)                   T
(PID.TID 0000.0001)     ;
(PID.TID 0000.0001) LSR_mixIniGuess = /* mix free-drift sol. into LSR initial Guess */
(PID.TID 0000.0001)                      -1
(PID.TID 0000.0001)     ;
(PID.TID 0000.0001) SEAICE_LSRrelaxU  = /* LSR solver: relaxation parameter */
(PID.TID 0000.0001)                 9.500000000000000E-01
(PID.TID 0000.0001)     ;
(PID.TID 0000.0001) SEAICE_LSRrelaxV  = /* LSR solver: relaxation parameter */
(PID.TID 0000.0001)                 9.500000000000000E-01
(PID.TID 0000.0001)     ;
(PID.TID 0000.0001) LSR_ERROR         = /* sets accuracy of LSR solver */
(PID.TID 0000.0001)                 1.000000000000000E-12
(PID.TID 0000.0001)     ;
(PID.TID 0000.0001) SOLV_NCHECK       = /* test interval for LSR solver */
(PID.TID 0000.0001)                       2
(PID.TID 0000.0001)     ;
(PID.TID 0000.0001) SEAICEuseMultiTileSolver = /* use full domain tri-diag solver */
(PID.TID 0000.0001)                   F
(PID.TID 0000.0001)     ;
(PID.TID 0000.0001) SEAICE_OLx = /* overlap for LSR/preconditioner */
(PID.TID 0000.0001)                       2
(PID.TID 0000.0001)     ;
(PID.TID 0000.0001) SEAICE_OLy = /* overlap for LSR/preconditioner */
(PID.TID 0000.0001)                       2
(PID.TID 0000.0001)     ;
(PID.TID 0000.0001) SEAICEnonLinIterMax = /* max. number of nonlinear solver steps */
(PID.TID 0000.0001)                       2
(PID.TID 0000.0001)     ;
(PID.TID 0000.0001) SEAICElinearIterMax = /* max. number of linear solver steps */
(PID.TID 0000.0001)                    1500
(PID.TID 0000.0001)     ;
(PID.TID 0000.0001) SEAICEnonLinTol     = /* non-linear solver tolerance */
(PID.TID 0000.0001)                 0.000000000000000E+00
(PID.TID 0000.0001)     ;
(PID.TID 0000.0001) 
(PID.TID 0000.0001)    Seaice advection diffusion config,   > START <
(PID.TID 0000.0001)    -----------------------------------------------
(PID.TID 0000.0001) SEAICEmomAdvection = /* advect sea ice momentum */
(PID.TID 0000.0001)                   F
(PID.TID 0000.0001)     ;
(PID.TID 0000.0001) SEAICEadvHeff = /* advect effective ice thickness */
(PID.TID 0000.0001)                   T
(PID.TID 0000.0001)     ;
(PID.TID 0000.0001) SEAICEadvArea = /* advect fractional ice area */
(PID.TID 0000.0001)                   T
(PID.TID 0000.0001)     ;
(PID.TID 0000.0001) SEAICEadvSnow = /* advect snow layer together with ice */
(PID.TID 0000.0001)                   T
(PID.TID 0000.0001)     ;
(PID.TID 0000.0001) SEAICEadvScheme   = /* advection scheme for ice */
(PID.TID 0000.0001)                      77
(PID.TID 0000.0001)     ;
(PID.TID 0000.0001) SEAICEadvSchArea   = /* advection scheme for area */
(PID.TID 0000.0001)                      77
(PID.TID 0000.0001)     ;
(PID.TID 0000.0001) SEAICEadvSchHeff   = /* advection scheme for thickness */
(PID.TID 0000.0001)                      77
(PID.TID 0000.0001)     ;
(PID.TID 0000.0001) SEAICEadvSchSnow   = /* advection scheme for snow */
(PID.TID 0000.0001)                      77
(PID.TID 0000.0001)     ;
(PID.TID 0000.0001) SEAICEdiffKhArea   = /* diffusivity (m^2/s) for area */
(PID.TID 0000.0001)                 0.000000000000000E+00
(PID.TID 0000.0001)     ;
(PID.TID 0000.0001) SEAICEdiffKhHeff   = /* diffusivity (m^2/s) for heff */
(PID.TID 0000.0001)                 0.000000000000000E+00
(PID.TID 0000.0001)     ;
(PID.TID 0000.0001) SEAICEdiffKhSnow   = /* diffusivity (m^2/s) for snow */
(PID.TID 0000.0001)                 0.000000000000000E+00
(PID.TID 0000.0001)     ;
(PID.TID 0000.0001) DIFF1             = /* parameter used in advect.F [m/s] */
(PID.TID 0000.0001)                 0.000000000000000E+00
(PID.TID 0000.0001)     ;
(PID.TID 0000.0001) 
(PID.TID 0000.0001)    Seaice thermodynamics configuration   > START <
(PID.TID 0000.0001)    -----------------------------------------------
(PID.TID 0000.0001) SEAICE_rhoIce     = /* density of sea ice (kg/m3) */
(PID.TID 0000.0001)                 9.100000000000000E+02
(PID.TID 0000.0001)     ;
(PID.TID 0000.0001) SEAICE_rhoSnow    = /* density of snow (kg/m3) */
(PID.TID 0000.0001)                 3.300000000000000E+02
(PID.TID 0000.0001)     ;
(PID.TID 0000.0001) SEAICE_rhoAir     = /* density of air (kg/m3) */
(PID.TID 0000.0001)                 1.220000000000000E+00
(PID.TID 0000.0001)     ;
(PID.TID 0000.0001) usePW79thermodynamics  = /* default 0-layer TD */
(PID.TID 0000.0001)                   T
(PID.TID 0000.0001)     ;
(PID.TID 0000.0001) SEAICE_lhEvap     = /* latent heat of evaporation */
(PID.TID 0000.0001)                 2.500000000000000E+06
(PID.TID 0000.0001)     ;
(PID.TID 0000.0001) SEAICE_lhFusion   = /* latent heat of fusion */
(PID.TID 0000.0001)                 3.340000000000000E+05
(PID.TID 0000.0001)     ;
(PID.TID 0000.0001) SEAICE_mcPheePiston = /* turbulent flux "piston velocity" a la McPhee (m/s) */
(PID.TID 0000.0001)                 5.700000000000000E-04
(PID.TID 0000.0001)     ;
(PID.TID 0000.0001) SEAICE_mcPheeTaper = /* tapering of turbulent flux (0.< <1.) for AREA=1. */
(PID.TID 0000.0001)                 0.000000000000000E+00
(PID.TID 0000.0001)     ;
(PID.TID 0000.0001) SEAICE_mcPheeStepFunc = /* replace linear tapering with step funct. */
(PID.TID 0000.0001)                   F
(PID.TID 0000.0001)     ;
(PID.TID 0000.0001) SEAICE_frazilFrac = /* frazil (T<tempFrz) to seaice conversion rate (0.< <1.) */
(PID.TID 0000.0001)                 1.000000000000000E+00
(PID.TID 0000.0001)     ;
(PID.TID 0000.0001) SEAICE_tempFrz0   = /* freezing temp. of sea water (intercept) */
(PID.TID 0000.0001)                 9.010000000000000E-02
(PID.TID 0000.0001)     ;
(PID.TID 0000.0001) SEAICE_dTempFrz_dS= /* freezing temp. of sea water (slope) */
(PID.TID 0000.0001)                -5.750000000000000E-02
(PID.TID 0000.0001)     ;
(PID.TID 0000.0001) SEAICE_growMeltByConv  = /* grow,melt by vert. conv. */
(PID.TID 0000.0001)                   F
(PID.TID 0000.0001)     ;
(PID.TID 0000.0001) SEAICE_doOpenWaterGrowth = /* grow by open water */
(PID.TID 0000.0001)                   T
(PID.TID 0000.0001)     ;
(PID.TID 0000.0001) SEAICE_doOpenWaterMelt = /* melt by open water */
(PID.TID 0000.0001)                   F
(PID.TID 0000.0001)     ;
(PID.TID 0000.0001) SEAICE_areaGainFormula = /* ice cover gain formula (1,2)*/
(PID.TID 0000.0001)                       1
(PID.TID 0000.0001)     1=from growth by ATM
(PID.TID 0000.0001)     2=from predicted growth by ATM
(PID.TID 0000.0001)     ;
(PID.TID 0000.0001) SEAICE_areaLossFormula = /* ice cover loss formula (1,2)*/
(PID.TID 0000.0001)                       2
(PID.TID 0000.0001)     1=from all but only melt conributions by ATM and OCN
(PID.TID 0000.0001)     2=from net melt-grow>0 by ATM and OCN
(PID.TID 0000.0001)     3=from predicted melt by ATM
(PID.TID 0000.0001)     ;
(PID.TID 0000.0001) HO                = /* nominal thickness of new ice */
(PID.TID 0000.0001)                 5.000000000000000E-01
(PID.TID 0000.0001)     ;
(PID.TID 0000.0001) HO_south               = /* Southern Ocean HO */
(PID.TID 0000.0001)                 5.000000000000000E-01
(PID.TID 0000.0001)     ;
(PID.TID 0000.0001) SEAICE_area_max        = /* set to les than 1. to mimic open leads */
(PID.TID 0000.0001)                 1.000000000000000E+00
(PID.TID 0000.0001)     ;
(PID.TID 0000.0001) SEAICE_salt0   = /* constant sea ice salinity */
(PID.TID 0000.0001)                 4.000000000000000E+00
(PID.TID 0000.0001)     ;
(PID.TID 0000.0001) SEAICE_salinityTracer = /* test SITR varia. salinity */
(PID.TID 0000.0001)                   F
(PID.TID 0000.0001)     ;
(PID.TID 0000.0001) SEAICEuseFlooding = /* turn submerged snow into ice */
(PID.TID 0000.0001)                   T
(PID.TID 0000.0001)     ;
(PID.TID 0000.0001) 
(PID.TID 0000.0001)    Seaice air-sea fluxes configuration,   > START <
(PID.TID 0000.0001)    -----------------------------------------------
(PID.TID 0000.0001) SEAICEheatConsFix  = /* accound for ocn<->seaice advect. heat flux */
(PID.TID 0000.0001)                   T
(PID.TID 0000.0001)     ;
(PID.TID 0000.0001) SEAICE_multDim    = /* number of ice categories (1 or 7) */
(PID.TID 0000.0001)                       7
(PID.TID 0000.0001)     ;
(PID.TID 0000.0001) SEAICE_PDF        = /* sea-ice distribution (-) */
(PID.TID 0000.0001)     7 @  1.428571428571428E-01              /* K =  1:  7 */
(PID.TID 0000.0001)     ;
(PID.TID 0000.0001) IMAX_TICE         = /* iterations for ice surface temp */
(PID.TID 0000.0001)                      10
(PID.TID 0000.0001)     ;
(PID.TID 0000.0001) postSolvTempIter= /* flux calculation after surf. temp iter */
(PID.TID 0000.0001)                       2
(PID.TID 0000.0001)     ;
(PID.TID 0000.0001) SEAICE_dryIceAlb  = /* winter albedo */
(PID.TID 0000.0001)                 7.500000000000000E-01
(PID.TID 0000.0001)     ;
(PID.TID 0000.0001) SEAICE_wetIceAlb  = /* summer albedo */
(PID.TID 0000.0001)                 6.600000000000000E-01
(PID.TID 0000.0001)     ;
(PID.TID 0000.0001) SEAICE_drySnowAlb = /* dry snow albedo */
(PID.TID 0000.0001)                 8.400000000000000E-01
(PID.TID 0000.0001)     ;
(PID.TID 0000.0001) SEAICE_wetSnowAlb = /* wet snow albedo */
(PID.TID 0000.0001)                 7.000000000000000E-01
(PID.TID 0000.0001)     ;
(PID.TID 0000.0001) SEAICE_dryIceAlb_south = /* Southern Ocean dryIceAlb */
(PID.TID 0000.0001)                 7.500000000000000E-01
(PID.TID 0000.0001)     ;
(PID.TID 0000.0001) SEAICE_wetIceAlb_south = /* Southern Ocean wetIceAlb */
(PID.TID 0000.0001)                 6.600000000000000E-01
(PID.TID 0000.0001)     ;
(PID.TID 0000.0001) SEAICE_drySnowAlb_south= /* Southern Ocean drySnowAlb */
(PID.TID 0000.0001)                 8.400000000000000E-01
(PID.TID 0000.0001)     ;
(PID.TID 0000.0001) SEAICE_wetSnowAlb_south= /* Southern Ocean wetSnowAlb */
(PID.TID 0000.0001)                 7.000000000000000E-01
(PID.TID 0000.0001)     ;
(PID.TID 0000.0001) SEAICE_wetAlbTemp= /* Temp (o.C) threshold for wet-albedo */
(PID.TID 0000.0001)                 0.000000000000000E+00
(PID.TID 0000.0001)     ;
(PID.TID 0000.0001) SEAICE_snow_emiss = /* snow emissivity */
(PID.TID 0000.0001)                 9.500000000000000E-01
(PID.TID 0000.0001)     ;
(PID.TID 0000.0001) SEAICE_ice_emiss = /* seaice emissivity */
(PID.TID 0000.0001)                 9.500000000000000E-01
(PID.TID 0000.0001)     ;
(PID.TID 0000.0001) SEAICE_cpAir      = /* heat capacity of air */
(PID.TID 0000.0001)                 1.005000000000000E+03
(PID.TID 0000.0001)     ;
(PID.TID 0000.0001) SEAICE_dalton     = /* constant dalton number */
(PID.TID 0000.0001)                 1.750000000000000E-03
(PID.TID 0000.0001)     ;
(PID.TID 0000.0001) SEAICE_iceConduct = /* sea-ice conductivity */
(PID.TID 0000.0001)                 2.165600000000000E+00
(PID.TID 0000.0001)     ;
(PID.TID 0000.0001) SEAICE_snowConduct= /* snow conductivity */
(PID.TID 0000.0001)                 3.100000000000000E-01
(PID.TID 0000.0001)     ;
(PID.TID 0000.0001) SEAICE_snowThick  = /* cutoff snow thickness (for albedo) */
(PID.TID 0000.0001)                 1.500000000000000E-01
(PID.TID 0000.0001)     ;
(PID.TID 0000.0001) SEAICE_shortwave  = /* penetration shortwave radiation */
(PID.TID 0000.0001)                 3.000000000000000E-01
(PID.TID 0000.0001)     ;
(PID.TID 0000.0001) useMaykutSatVapPoly = /* use Maykut Polynomial for Sat.Vap.Pr */
(PID.TID 0000.0001)                   F
(PID.TID 0000.0001)     ;
(PID.TID 0000.0001) MIN_ATEMP         = /* minimum air temperature */
(PID.TID 0000.0001)                -5.000000000000000E+01
(PID.TID 0000.0001)     ;
(PID.TID 0000.0001) MIN_LWDOWN        = /* minimum downward longwave */
(PID.TID 0000.0001)                 6.000000000000000E+01
(PID.TID 0000.0001)     ;
(PID.TID 0000.0001) MIN_TICE          = /* minimum ice temperature */
(PID.TID 0000.0001)                -5.000000000000000E+01
(PID.TID 0000.0001)     ;
(PID.TID 0000.0001) 
(PID.TID 0000.0001)    Seaice initialization and IO config.,   > START <
(PID.TID 0000.0001)    -------------------------------------------------
(PID.TID 0000.0001) SEAICE_initialHEFF= /* initial sea-ice thickness */
(PID.TID 0000.0001)                 0.000000000000000E+00
(PID.TID 0000.0001)     ;
(PID.TID 0000.0001) AreaFile = /* Initial ice concentration File */
(PID.TID 0000.0001)               ''
(PID.TID 0000.0001)     ;
(PID.TID 0000.0001) HeffFile = /* Initial effective ice thickness File */
(PID.TID 0000.0001)               ''
(PID.TID 0000.0001)     ;
(PID.TID 0000.0001) HsnowFile = /* Initial snow thickness File */
(PID.TID 0000.0001)               ''
(PID.TID 0000.0001)     ;
(PID.TID 0000.0001) uIceFile = /* Initial U-ice velocity File */
(PID.TID 0000.0001)               ''
(PID.TID 0000.0001)     ;
(PID.TID 0000.0001) vIceFile = /* Initial V-ice velocity File */
(PID.TID 0000.0001)               ''
(PID.TID 0000.0001)     ;
(PID.TID 0000.0001) SEAICEwriteState  = /* write sea ice state to file */
(PID.TID 0000.0001)                   F
(PID.TID 0000.0001)     ;
(PID.TID 0000.0001) SEAICE_monFreq  = /* monitor frequency */
(PID.TID 0000.0001)                 1.000000000000000E+00
(PID.TID 0000.0001)     ;
(PID.TID 0000.0001) SEAICE_dumpFreq   = /* dump frequency */
(PID.TID 0000.0001)                 0.000000000000000E+00
(PID.TID 0000.0001)     ;
(PID.TID 0000.0001) SEAICE_taveFreq   = /* time-averaging frequency */
(PID.TID 0000.0001)                 0.000000000000000E+00
(PID.TID 0000.0001)     ;
(PID.TID 0000.0001) SEAICE_mon_stdio  = /* write monitor to std-outp */
(PID.TID 0000.0001)                   T
(PID.TID 0000.0001)     ;
(PID.TID 0000.0001) SEAICE_dump_mdsio = /* write snap-shot   using MDSIO */
(PID.TID 0000.0001)                   T
(PID.TID 0000.0001)     ;
(PID.TID 0000.0001) SEAICE_tave_mdsio = /* write TimeAverage using MDSIO */
(PID.TID 0000.0001)                   T
(PID.TID 0000.0001)     ;
(PID.TID 0000.0001) SEAICE_mon_mnc    = /* write monitor to netcdf file */
(PID.TID 0000.0001)                   F
(PID.TID 0000.0001)     ;
(PID.TID 0000.0001) SEAICE_dump_mnc   = /* write snap-shot   using MNC */
(PID.TID 0000.0001)                   F
(PID.TID 0000.0001)     ;
(PID.TID 0000.0001) SEAICE_tave_mnc   = /* write TimeAverage using MNC */
(PID.TID 0000.0001)                   F
(PID.TID 0000.0001)     ;
(PID.TID 0000.0001) 
(PID.TID 0000.0001)    Seaice regularization numbers,   > START <
(PID.TID 0000.0001)    -----------------------------------------------
(PID.TID 0000.0001) SEAICE_deltaMin   = /* reduce singularities in Delta */
(PID.TID 0000.0001)                 1.000000000000000E-10
(PID.TID 0000.0001)     ;
(PID.TID 0000.0001) SEAICE_EPS        = /* small number */
(PID.TID 0000.0001)                 1.000000000000000E-10
(PID.TID 0000.0001)     ;
(PID.TID 0000.0001) SEAICE_EPS_SQ     = /* small number squared */
(PID.TID 0000.0001)                 1.000000000000000E-20
(PID.TID 0000.0001)     ;
(PID.TID 0000.0001) SEAICE_area_reg   = /* reduce derivative singularities */
(PID.TID 0000.0001)                 1.000000000000000E-05
(PID.TID 0000.0001)     ;
(PID.TID 0000.0001) SEAICE_hice_reg   = /* reduce derivative singularities */
(PID.TID 0000.0001)                 5.000000000000000E-02
(PID.TID 0000.0001)     ;
(PID.TID 0000.0001) SEAICE_area_floor = /* reduce derivative singularities */
(PID.TID 0000.0001)                 1.000000000000000E-05
(PID.TID 0000.0001)     ;
(PID.TID 0000.0001) 
(PID.TID 0000.0001) // =======================================================
(PID.TID 0000.0001) // Seaice configuration (SEAICE_PARM01) >>> END <<<
(PID.TID 0000.0001) // =======================================================
(PID.TID 0000.0001) 
(PID.TID 0000.0001) ------------------------------------------------------------
(PID.TID 0000.0001) DIAGNOSTICS_SET_LEVELS: done
(PID.TID 0000.0001)  Total Nb of available Diagnostics: ndiagt=   315
(PID.TID 0000.0001)  write list of available Diagnostics to file: available_diagnostics.log
(PID.TID 0000.0001) SETDIAG: Allocate  1 x  1 Levels for Diagnostic #    23 ETAN
(PID.TID 0000.0001) SETDIAG: Allocate  1 x  1 Levels for Diagnostic #    24 ETANSQ
(PID.TID 0000.0001) SETDIAG: Allocate  1 x  1 Levels for Diagnostic #    25 DETADT2
(PID.TID 0000.0001) SETDIAG: Allocate  1 x  1 Levels for Diagnostic #    73 PHIBOT
(PID.TID 0000.0001) SETDIAG: Allocate  1 x  1 Levels for Diagnostic #    74 PHIBOTSQ
(PID.TID 0000.0001) SETDIAG: Allocate  1 x  1 Levels for Diagnostic #    81 oceTAUX
(PID.TID 0000.0001) SETDIAG: Allocate  1 x  1 Levels for Diagnostic #    82 oceTAUY
(PID.TID 0000.0001) SETDIAG: Allocate  1 x  1 Levels for Diagnostic #    87 oceQnet
(PID.TID 0000.0001) SETDIAG: Allocate  1 x  1 Levels for Diagnostic #    86 oceSflux
(PID.TID 0000.0001) SETDIAG: Allocate  1 x  1 Levels for Diagnostic #    85 oceFWflx
(PID.TID 0000.0001) SETDIAG: Allocate  1 x  1 Levels for Diagnostic #    78 MXLDEPTH
(PID.TID 0000.0001) SETDIAG: Allocate 15 x  1 Levels for Diagnostic #    30 UVEL
(PID.TID 0000.0001) SETDIAG: Allocate 15 x  1 Levels for Diagnostic #    31 VVEL
(PID.TID 0000.0001) SETDIAG: Allocate 15 x  1 Levels for Diagnostic #    32 WVEL
(PID.TID 0000.0001) SETDIAG: Allocate 15 x  1 Levels for Diagnostic #    71 PHIHYD
(PID.TID 0000.0001) SETDIAG: Allocate 15 x  1 Levels for Diagnostic #    46 VVELMASS
(PID.TID 0000.0001) SETDIAG: Allocate 15 x  1 Levels for Diagnostic #    45 UVELMASS
(PID.TID 0000.0001) SETDIAG: Allocate 15 x  1 Levels for Diagnostic #    38 WVELSQ
(PID.TID 0000.0001) SETDIAG: Allocate 15 x  1 Levels for Diagnostic #    26 THETA
(PID.TID 0000.0001) SETDIAG: Allocate 15 x  1 Levels for Diagnostic #    50 UTHMASS
(PID.TID 0000.0001) SETDIAG: Allocate 15 x  1 Levels for Diagnostic #    51 VTHMASS
(PID.TID 0000.0001) SETDIAG: Allocate 15 x  1 Levels for Diagnostic #    52 WTHMASS
(PID.TID 0000.0001) SETDIAG: Allocate 15 x  1 Levels for Diagnostic #    27 SALT
(PID.TID 0000.0001) SETDIAG: Allocate 15 x  1 Levels for Diagnostic #    53 USLTMASS
(PID.TID 0000.0001) SETDIAG: Allocate 15 x  1 Levels for Diagnostic #    54 VSLTMASS
(PID.TID 0000.0001) SETDIAG: Allocate 15 x  1 Levels for Diagnostic #    55 WSLTMASS
(PID.TID 0000.0001) SETDIAG: Allocate 15 x  1 Levels for Diagnostic #    79 DRHODR
(PID.TID 0000.0001) SETDIAG: Allocate 15 x  1 Levels for Diagnostic #    64 RHOAnoma
(PID.TID 0000.0001) SETDIAG: Allocate 15 x  1 Levels for Diagnostic #   221 GGL90TKE
(PID.TID 0000.0001) SETDIAG: Allocate 15 x  1 Levels for Diagnostic #   226 GGL90Kr
(PID.TID 0000.0001) SETDIAG: Allocate 15 x  1 Levels for Diagnostic #   222 GGL90Lmx
(PID.TID 0000.0001) SETDIAG: Allocate 15 x  1 Levels for Diagnostic #   229 IDEMIX_E
(PID.TID 0000.0001) SETDIAG: Allocate 15 x  1 Levels for Diagnostic #   233 IDEMIX_K
(PID.TID 0000.0001) SETDIAG: Allocate  1 x  1 Levels for Diagnostic #   241 SIheff
(PID.TID 0000.0001) SETDIAG: Allocate  1 x  1 Levels for Diagnostic #   238 SIarea
(PID.TID 0000.0001) SETDIAG: Allocate  1 x  1 Levels for Diagnostic #   243 SIhsnow
(PID.TID 0000.0001) SETDIAG: Allocate  1 x  1 Levels for Diagnostic #   255 SIuice
(PID.TID 0000.0001) SETDIAG: Allocate  1 x  1 Levels for Diagnostic #   256 SIvice
(PID.TID 0000.0001)   space allocated for all diagnostics:     346 levels
(PID.TID 0000.0001)   set mate pointer for diag #    81  oceTAUX  , Parms: UU      U1 , mate:    82
(PID.TID 0000.0001)   set mate pointer for diag #    82  oceTAUY  , Parms: VV      U1 , mate:    81
(PID.TID 0000.0001)   set mate pointer for diag #    30  UVEL     , Parms: UUR     MR , mate:    31
(PID.TID 0000.0001)   set mate pointer for diag #    31  VVEL     , Parms: VVR     MR , mate:    30
(PID.TID 0000.0001)   set mate pointer for diag #    46  VVELMASS , Parms: VVr     MR , mate:    45
(PID.TID 0000.0001)   set mate pointer for diag #    45  UVELMASS , Parms: UUr     MR , mate:    46
(PID.TID 0000.0001)   set mate pointer for diag #    50  UTHMASS  , Parms: UUr     MR , mate:    51
(PID.TID 0000.0001)   set mate pointer for diag #    51  VTHMASS  , Parms: VVr     MR , mate:    50
(PID.TID 0000.0001)   set mate pointer for diag #    53  USLTMASS , Parms: UUr     MR , mate:    54
(PID.TID 0000.0001)   set mate pointer for diag #    54  VSLTMASS , Parms: VVr     MR , mate:    53
(PID.TID 0000.0001)   set mate pointer for diag #   255  SIuice   , Parms: UU      M1 , mate:   256
(PID.TID 0000.0001)   set mate pointer for diag #   256  SIvice   , Parms: VV      M1 , mate:   255
(PID.TID 0000.0001) DIAGNOSTICS_SET_POINTERS: Set levels for Outp.Stream: surfDiag
(PID.TID 0000.0001)  Levels:       1.
(PID.TID 0000.0001) DIAGNOSTICS_SET_POINTERS: Set levels for Outp.Stream: dynDiag
(PID.TID 0000.0001)  Levels:       1.   2.   3.   4.   5.   6.   7.   8.   9.  10.  11.  12.  13.  14.  15.
(PID.TID 0000.0001) DIAGNOSTICS_SET_POINTERS: Set levels for Outp.Stream: oceDiag
(PID.TID 0000.0001)  Levels:       1.   2.   3.   4.   5.   6.   7.   8.   9.  10.  11.  12.  13.  14.  15.
(PID.TID 0000.0001) DIAGNOSTICS_SET_POINTERS: Set levels for Outp.Stream: seaiceDiag
(PID.TID 0000.0001)  Levels:       1.
(PID.TID 0000.0001) DIAGNOSTICS_SET_POINTERS: done
(PID.TID 0000.0001) ------------------------------------------------------------
 DIAGSTATS_SET_REGIONS: start reading region-mask file: regMask_lat24.bin
 DIAGSTATS_SET_REGIONS:  reading set k=  1
(PID.TID 0000.0001)  MDS_READ_FIELD: opening global file: regMask_lat24.bin
 DIAGSTATS_SET_REGIONS:          set k=  1 <= done
(PID.TID 0000.0001) DIAGSTATS_SET_REGIONS: define   3 regions:  1  2  3
(PID.TID 0000.0001) ------------------------------------------------------------
(PID.TID 0000.0001) SETDIAG: Allocate  1 Levels for Stats-Diag #    23 ETAN
(PID.TID 0000.0001) SETDIAG: Allocate 15 Levels for Stats-Diag #    30 UVEL
(PID.TID 0000.0001) SETDIAG: Allocate 15 Levels for Stats-Diag #    31 VVEL
(PID.TID 0000.0001) SETDIAG: Allocate 15 Levels for Stats-Diag #    32 WVEL
(PID.TID 0000.0001) SETDIAG: Allocate 15 Levels for Stats-Diag #    26 THETA
(PID.TID 0000.0001) SETDIAG: Allocate 15 Levels for Stats-Diag #    27 SALT
(PID.TID 0000.0001) SETDIAG: Allocate 15 Levels for Stats-Diag #    80 CONVADJ
(PID.TID 0000.0001) SETDIAG: Allocate  1 Levels for Stats-Diag #    25 DETADT2
(PID.TID 0000.0001) SETDIAG: Allocate  1 Levels for Stats-Diag #   241 SIheff
(PID.TID 0000.0001) SETDIAG: Allocate  1 Levels for Stats-Diag #   238 SIarea
(PID.TID 0000.0001) SETDIAG: Allocate  1 Levels for Stats-Diag #   243 SIhsnow
(PID.TID 0000.0001) SETDIAG: Allocate  1 Levels for Stats-Diag #   255 SIuice
(PID.TID 0000.0001) SETDIAG: Allocate  1 Levels for Stats-Diag #   256 SIvice
(PID.TID 0000.0001)   space allocated for all stats-diags:      97 levels
(PID.TID 0000.0001) DIAGSTATS_SET_POINTERS: done
(PID.TID 0000.0001) ------------------------------------------------------------
(PID.TID 0000.0001) DIAGSTATS_INI_IO: open file: dynStDiag.0000000000.txt , unit=     9
(PID.TID 0000.0001) DIAGSTATS_INI_IO: open file: seaiceStDiag.0000000000.txt , unit=    10
(PID.TID 0000.0001) INI_GLOBAL_DOMAIN: Found  19 CS-corner Pts in the domain
(PID.TID 0000.0001)  MDS_READ_FIELD: opening global file: geopotanom.bin
(PID.TID 0000.0001) %MON fCori_max                    =   1.4574827780704E-04
(PID.TID 0000.0001) %MON fCori_min                    =  -1.4574827780704E-04
(PID.TID 0000.0001) %MON fCori_mean                   =   3.3881317890172E-21
(PID.TID 0000.0001) %MON fCori_sd                     =   8.4202189509968E-05
(PID.TID 0000.0001) %MON fCoriG_max                   =   1.4584247033981E-04
(PID.TID 0000.0001) %MON fCoriG_min                   =  -1.4584247033981E-04
(PID.TID 0000.0001) %MON fCoriG_mean                  =  -1.6940658945086E-20
(PID.TID 0000.0001) %MON fCoriG_sd                    =   8.4202189509968E-05
(PID.TID 0000.0001) %MON fCoriCos_max                 =   1.4580166994612E-04
(PID.TID 0000.0001) %MON fCoriCos_min                 =   5.2407700865903E-06
(PID.TID 0000.0001) %MON fCoriCos_mean                =   1.1514045869113E-04
(PID.TID 0000.0001) %MON fCoriCos_sd                  =   3.0375849106513E-05
(PID.TID 0000.0001) INI_CG2D: CG2D normalisation factor =  1.8867235104620207E-08
(PID.TID 0000.0001) 
(PID.TID 0000.0001) // =======================================================
(PID.TID 0000.0001) // Model configuration
(PID.TID 0000.0001) // =======================================================
(PID.TID 0000.0001) //
(PID.TID 0000.0001) // "Physical" paramters ( PARM01 in namelist )
(PID.TID 0000.0001) //
(PID.TID 0000.0001) buoyancyRelation = /* Type of relation to get Buoyancy */
(PID.TID 0000.0001)               'OCEANICP'
(PID.TID 0000.0001)     ;
(PID.TID 0000.0001) fluidIsAir   =  /* fluid major constituent is Air */
(PID.TID 0000.0001)                   F
(PID.TID 0000.0001)     ;
(PID.TID 0000.0001) fluidIsWater =  /* fluid major constituent is Water */
(PID.TID 0000.0001)                   T
(PID.TID 0000.0001)     ;
(PID.TID 0000.0001) usingPCoords =  /* use p (or p*) vertical coordinate */
(PID.TID 0000.0001)                   T
(PID.TID 0000.0001)     ;
(PID.TID 0000.0001) usingZCoords =  /* use z (or z*) vertical coordinate */
(PID.TID 0000.0001)                   F
(PID.TID 0000.0001)     ;
(PID.TID 0000.0001) tRef =   /* Reference temperature profile ( oC or K ) */
(PID.TID 0000.0001)    15 @  2.000000000000000E+01              /* K =  1: 15 */
(PID.TID 0000.0001)     ;
(PID.TID 0000.0001) sRef =   /* Reference salinity profile ( g/kg ) */
(PID.TID 0000.0001)    15 @  3.500000000000000E+01              /* K =  1: 15 */
(PID.TID 0000.0001)     ;
(PID.TID 0000.0001) useStrainTensionVisc= /* Use StrainTension Form of Viscous Operator */
(PID.TID 0000.0001)                   F
(PID.TID 0000.0001)     ;
(PID.TID 0000.0001) useVariableVisc = /* Use variable horizontal viscosity */
(PID.TID 0000.0001)                   F
(PID.TID 0000.0001)     ;
(PID.TID 0000.0001) useHarmonicVisc = /* Use harmonic horizontal viscosity */
(PID.TID 0000.0001)                   T
(PID.TID 0000.0001)     ;
(PID.TID 0000.0001) useBiharmonicVisc= /* Use biharmonic horiz.  viscosity */
(PID.TID 0000.0001)                   F
(PID.TID 0000.0001)     ;
(PID.TID 0000.0001) useSmag3D = /* Use isotropic 3-D Smagorinsky viscosity */
(PID.TID 0000.0001)                   F
(PID.TID 0000.0001)     ;
(PID.TID 0000.0001) viscAh  =   /* Lateral harmonic viscosity ( m^2/s ) */
(PID.TID 0000.0001)                 3.000000000000000E+05
(PID.TID 0000.0001)     ;
(PID.TID 0000.0001) viscA4  =   /* Lateral biharmonic viscosity ( m^4/s ) */
(PID.TID 0000.0001)                 0.000000000000000E+00
(PID.TID 0000.0001)     ;
(PID.TID 0000.0001) no_slip_sides =  /* Viscous BCs: No-slip sides */
(PID.TID 0000.0001)                   T
(PID.TID 0000.0001)     ;
(PID.TID 0000.0001) sideDragFactor = /* side-drag scaling factor (non-dim) */
(PID.TID 0000.0001)                 2.000000000000000E+00
(PID.TID 0000.0001)     ;
(PID.TID 0000.0001) viscArNr = /* vertical profile of vertical viscosity (Pa^2/s )*/
(PID.TID 0000.0001)    15 @  0.000000000000000E+00              /* K =  1: 15 */
(PID.TID 0000.0001)     ;
(PID.TID 0000.0001) no_slip_bottom =  /* Viscous BCs: No-slip bottom */
(PID.TID 0000.0001)                   T
(PID.TID 0000.0001)     ;
(PID.TID 0000.0001) bottomVisc_pCell = /* Partial-cell in bottom Visc. BC */
(PID.TID 0000.0001)                   F
(PID.TID 0000.0001)     ;
(PID.TID 0000.0001) bottomDragLinear = /* linear bottom-drag coefficient ( m/s ) */
(PID.TID 0000.0001)                 0.000000000000000E+00
(PID.TID 0000.0001)     ;
(PID.TID 0000.0001) bottomDragQuadratic = /* quadratic bottom-drag coefficient (-) */
(PID.TID 0000.0001)                 0.000000000000000E+00
(PID.TID 0000.0001)     ;
(PID.TID 0000.0001) selectBotDragQuadr = /* select quadratic bottom drag options */
(PID.TID 0000.0001)                      -1
(PID.TID 0000.0001)     ;
(PID.TID 0000.0001) diffKhT =   /* Laplacian diffusion of heat laterally ( m^2/s ) */
(PID.TID 0000.0001)                 0.000000000000000E+00
(PID.TID 0000.0001)     ;
(PID.TID 0000.0001) diffK4T =   /* Biharmonic diffusion of heat laterally ( m^4/s ) */
(PID.TID 0000.0001)                 0.000000000000000E+00
(PID.TID 0000.0001)     ;
(PID.TID 0000.0001) diffKhS =   /* Laplacian diffusion of salt laterally ( m^2/s ) */
(PID.TID 0000.0001)                 0.000000000000000E+00
(PID.TID 0000.0001)     ;
(PID.TID 0000.0001) diffK4S =   /* Biharmonic diffusion of salt laterally ( m^4/s ) */
(PID.TID 0000.0001)                 0.000000000000000E+00
(PID.TID 0000.0001)     ;
(PID.TID 0000.0001) diffKrNrT = /* vertical profile of vertical diffusion of Temp (Pa^2/s )*/
(PID.TID 0000.0001)    15 @  0.000000000000000E+00              /* K =  1: 15 */
(PID.TID 0000.0001)     ;
(PID.TID 0000.0001) diffKrNrS = /* vertical profile of vertical diffusion of Salt (Pa^2/s )*/
(PID.TID 0000.0001)    15 @  0.000000000000000E+00              /* K =  1: 15 */
(PID.TID 0000.0001)     ;
(PID.TID 0000.0001) diffKrBL79surf = /* Surface diffusion for Bryan and Lewis 79 ( m^2/s ) */
(PID.TID 0000.0001)                 0.000000000000000E+00
(PID.TID 0000.0001)     ;
(PID.TID 0000.0001) diffKrBL79deep = /* Deep diffusion for Bryan and Lewis 1979 ( m^2/s ) */
(PID.TID 0000.0001)                 0.000000000000000E+00
(PID.TID 0000.0001)     ;
(PID.TID 0000.0001) diffKrBL79scl = /* Depth scale for Bryan and Lewis 1979 ( m ) */
(PID.TID 0000.0001)                 2.000000000000000E+02
(PID.TID 0000.0001)     ;
(PID.TID 0000.0001) diffKrBL79Ho = /* Turning depth for Bryan and Lewis 1979 ( m ) */
(PID.TID 0000.0001)                -2.000000000000000E+03
(PID.TID 0000.0001)     ;
(PID.TID 0000.0001) ivdc_kappa = /* Implicit Vertical Diffusivity for Convection (Pa^2/s) */
(PID.TID 0000.0001)                 1.030905162225000E+08
(PID.TID 0000.0001)     ;
(PID.TID 0000.0001) hMixCriteria=  /* Criteria for mixed-layer diagnostic */
(PID.TID 0000.0001)                -8.000000000000000E-01
(PID.TID 0000.0001)     ;
(PID.TID 0000.0001) dRhoSmall =  /* Parameter for mixed-layer diagnostic */
(PID.TID 0000.0001)                 1.000000000000000E-06
(PID.TID 0000.0001)     ;
(PID.TID 0000.0001) hMixSmooth=  /* Smoothing parameter for mixed-layer diagnostic */
(PID.TID 0000.0001)                 0.000000000000000E+00
(PID.TID 0000.0001)     ;
(PID.TID 0000.0001) eosType =  /* Type of Equation of State */
(PID.TID 0000.0001)               'JMD95P'
(PID.TID 0000.0001)     ;
(PID.TID 0000.0001) eosRefP0 = /* Reference atmospheric pressure for EOS ( Pa ) */
(PID.TID 0000.0001)                 1.013250000000000E+05
(PID.TID 0000.0001)     ;
(PID.TID 0000.0001) surf_pRef = /* Surface reference pressure ( Pa ) */
(PID.TID 0000.0001)                 1.013250000000000E+05
(PID.TID 0000.0001)     ;
(PID.TID 0000.0001) HeatCapacity_Cp =  /* Specific heat capacity ( J/kg/K ) */
(PID.TID 0000.0001)                 3.994000000000000E+03
(PID.TID 0000.0001)     ;
(PID.TID 0000.0001) celsius2K = /* 0 degree Celsius converted to Kelvin ( K ) */
(PID.TID 0000.0001)                 2.731500000000000E+02
(PID.TID 0000.0001)     ;
(PID.TID 0000.0001) rhoConst  = /* Reference density (Boussinesq)  ( kg/m^3 ) */
(PID.TID 0000.0001)                 1.035000000000000E+03
(PID.TID 0000.0001)     ;
(PID.TID 0000.0001) rhoFacC = /* normalized Reference density @ cell-Center (-) */
(PID.TID 0000.0001)    15 @  1.000000000000000E+00              /* K =  1: 15 */
(PID.TID 0000.0001)     ;
(PID.TID 0000.0001) rhoFacF = /* normalized Reference density @ W-Interface (-) */
(PID.TID 0000.0001)    16 @  1.000000000000000E+00              /* K =  1: 16 */
(PID.TID 0000.0001)     ;
(PID.TID 0000.0001) rhoConstFresh = /* Fresh-water reference density ( kg/m^3 ) */
(PID.TID 0000.0001)                 1.000000000000000E+03
(PID.TID 0000.0001)     ;
(PID.TID 0000.0001) gravity =   /* Gravitational acceleration ( m/s^2 ) */
(PID.TID 0000.0001)                 9.810000000000000E+00
(PID.TID 0000.0001)     ;
(PID.TID 0000.0001) gBaro =   /* Barotropic gravity ( m/s^2 ) */
(PID.TID 0000.0001)                 9.810000000000000E+00
(PID.TID 0000.0001)     ;
(PID.TID 0000.0001) gravFacC = /* gravity factor (vs surf.) @ cell-Center (-) */
(PID.TID 0000.0001)    15 @  1.000000000000000E+00              /* K =  1: 15 */
(PID.TID 0000.0001)     ;
(PID.TID 0000.0001) gravFacF = /* gravity factor (vs surf.) @ W-Interface (-) */
(PID.TID 0000.0001)    16 @  1.000000000000000E+00              /* K =  1: 16 */
(PID.TID 0000.0001)     ;
(PID.TID 0000.0001) rotationPeriod =   /* Rotation Period ( s ) */
(PID.TID 0000.0001)                 8.616400000000000E+04
(PID.TID 0000.0001)     ;
(PID.TID 0000.0001) omega =   /* Angular velocity ( rad/s ) */
(PID.TID 0000.0001)                 7.292123516990375E-05
(PID.TID 0000.0001)     ;
(PID.TID 0000.0001) f0 =   /* Reference coriolis parameter ( 1/s ) */
(PID.TID 0000.0001)                 1.000000000000000E-04
(PID.TID 0000.0001)     ;
(PID.TID 0000.0001) beta =   /* Beta ( 1/(m.s) ) */
(PID.TID 0000.0001)                 9.999999999999999E-12
(PID.TID 0000.0001)     ;
(PID.TID 0000.0001) fPrime =   /* Second coriolis parameter ( 1/s ) */
(PID.TID 0000.0001)                 0.000000000000000E+00
(PID.TID 0000.0001)     ;
(PID.TID 0000.0001) rigidLid =   /* Rigid lid on/off flag */
(PID.TID 0000.0001)                   F
(PID.TID 0000.0001)     ;
(PID.TID 0000.0001) implicitFreeSurface =   /* Implicit free surface on/off flag */
(PID.TID 0000.0001)                   T
(PID.TID 0000.0001)     ;
(PID.TID 0000.0001) freeSurfFac =   /* Implicit free surface factor */
(PID.TID 0000.0001)                 1.000000000000000E+00
(PID.TID 0000.0001)     ;
(PID.TID 0000.0001) implicSurfPress =  /* Surface Pressure implicit factor (0-1) */
(PID.TID 0000.0001)                 1.000000000000000E+00
(PID.TID 0000.0001)     ;
(PID.TID 0000.0001) implicDiv2DFlow =  /* Barot. Flow Div. implicit factor (0-1) */
(PID.TID 0000.0001)                 1.000000000000000E+00
(PID.TID 0000.0001)     ;
(PID.TID 0000.0001) uniformLin_PhiSurf = /* use uniform Bo_surf on/off flag */
(PID.TID 0000.0001)                   T
(PID.TID 0000.0001)     ;
(PID.TID 0000.0001) uniformFreeSurfLev = /* free-surface level-index is uniform */
(PID.TID 0000.0001)                   F
(PID.TID 0000.0001)     ;
(PID.TID 0000.0001) sIceLoadFac =  /* scale factor for sIceLoad (0-1) */
(PID.TID 0000.0001)                 1.000000000000000E+00
(PID.TID 0000.0001)     ;
(PID.TID 0000.0001) hFacMin =   /* minimum partial cell factor (hFac) */
(PID.TID 0000.0001)                 1.000000000000000E-01
(PID.TID 0000.0001)     ;
(PID.TID 0000.0001) hFacMinDr = /* minimum partial cell thickness (Pa) */
(PID.TID 0000.0001)                 2.030670000000000E+05
(PID.TID 0000.0001)     ;
(PID.TID 0000.0001) exactConserv =  /* Exact Volume Conservation on/off flag */
(PID.TID 0000.0001)                   T
(PID.TID 0000.0001)     ;
(PID.TID 0000.0001) linFSConserveTr = /* Tracer correction for Lin Free Surface on/off flag */
(PID.TID 0000.0001)                   F
(PID.TID 0000.0001)     ;
(PID.TID 0000.0001) nonlinFreeSurf = /* Non-linear Free Surf. options (-1,0,1,2,3)*/
(PID.TID 0000.0001)                       4
(PID.TID 0000.0001)      -1,0= Off ; 1,2,3= On, 2=+rescale gU,gV, 3=+update cg2d solv.
(PID.TID 0000.0001)     ;
(PID.TID 0000.0001) hFacInf =   /* lower threshold for hFac (nonlinFreeSurf only)*/
(PID.TID 0000.0001)                 2.000000000000000E-01
(PID.TID 0000.0001)     ;
(PID.TID 0000.0001) hFacSup =   /* upper threshold for hFac (nonlinFreeSurf only)*/
(PID.TID 0000.0001)                 2.000000000000000E+00
(PID.TID 0000.0001)     ;
(PID.TID 0000.0001) select_rStar = /* r* Vertical coord. options (=0 r coord.; >0 uses r*)*/
(PID.TID 0000.0001)                       2
(PID.TID 0000.0001)     ;
(PID.TID 0000.0001) useRealFreshWaterFlux = /* Real Fresh Water Flux on/off flag*/
(PID.TID 0000.0001)                   T
(PID.TID 0000.0001)     ;
(PID.TID 0000.0001) temp_EvPrRn = /* Temp. of Evap/Prec/R (UNSET=use local T)(oC)*/
(PID.TID 0000.0001)                 1.234567000000000E+05
(PID.TID 0000.0001)     ;
(PID.TID 0000.0001) salt_EvPrRn = /* Salin. of Evap/Prec/R (UNSET=use local S)(g/kg)*/
(PID.TID 0000.0001)                 0.000000000000000E+00
(PID.TID 0000.0001)     ;
(PID.TID 0000.0001) selectAddFluid = /* option for mass source/sink of fluid (=0: off) */
(PID.TID 0000.0001)                       0
(PID.TID 0000.0001)     ;
(PID.TID 0000.0001) temp_addMass = /* Temp. of addMass array (UNSET=use local T)(oC)*/
(PID.TID 0000.0001)                 1.234567000000000E+05
(PID.TID 0000.0001)     ;
(PID.TID 0000.0001) salt_addMass = /* Salin. of addMass array (UNSET=use local S)(g/kg)*/
(PID.TID 0000.0001)                 0.000000000000000E+00
(PID.TID 0000.0001)     ;
(PID.TID 0000.0001) use3Dsolver = /* use 3-D pressure solver on/off flag */
(PID.TID 0000.0001)                   F
(PID.TID 0000.0001)     ;
(PID.TID 0000.0001) nonHydrostatic =  /* Non-Hydrostatic on/off flag */
(PID.TID 0000.0001)                   F
(PID.TID 0000.0001)     ;
(PID.TID 0000.0001) nh_Am2 = /* Non-Hydrostatic terms scaling factor */
(PID.TID 0000.0001)                 1.000000000000000E+00
(PID.TID 0000.0001)     ;
(PID.TID 0000.0001) implicitNHPress = /* Non-Hyd Pressure implicit factor (0-1)*/
(PID.TID 0000.0001)                 1.000000000000000E+00
(PID.TID 0000.0001)     ;
(PID.TID 0000.0001) selectNHfreeSurf = /* Non-Hyd (free-)Surface option */
(PID.TID 0000.0001)                       0
(PID.TID 0000.0001)     ;
(PID.TID 0000.0001) quasiHydrostatic = /* Quasi-Hydrostatic on/off flag */
(PID.TID 0000.0001)                   F
(PID.TID 0000.0001)     ;
(PID.TID 0000.0001) calc_wVelocity = /* vertical velocity calculation on/off flag */
(PID.TID 0000.0001)                   T
(PID.TID 0000.0001)     ;
(PID.TID 0000.0001) momStepping =  /* Momentum equation on/off flag */
(PID.TID 0000.0001)                   T
(PID.TID 0000.0001)     ;
(PID.TID 0000.0001) vectorInvariantMomentum= /* Vector-Invariant Momentum on/off */
(PID.TID 0000.0001)                   T
(PID.TID 0000.0001)     ;
(PID.TID 0000.0001) momAdvection =  /* Momentum advection on/off flag */
(PID.TID 0000.0001)                   T
(PID.TID 0000.0001)     ;
(PID.TID 0000.0001) momViscosity =  /* Momentum viscosity on/off flag */
(PID.TID 0000.0001)                   T
(PID.TID 0000.0001)     ;
(PID.TID 0000.0001) momImplVertAdv= /* Momentum implicit vert. advection on/off*/
(PID.TID 0000.0001)                   F
(PID.TID 0000.0001)     ;
(PID.TID 0000.0001) implicitViscosity = /* Implicit viscosity on/off flag */
(PID.TID 0000.0001)                   T
(PID.TID 0000.0001)     ;
(PID.TID 0000.0001) selectImplicitDrag= /* Implicit bot Drag options (0,1,2)*/
(PID.TID 0000.0001)                       0
(PID.TID 0000.0001)     0= Expl. ; 1= Impl. on provis. Vel ; 2= Fully Impl (with surf.P)
(PID.TID 0000.0001)     ;
(PID.TID 0000.0001) metricTerms =  /* metric-Terms on/off flag */
(PID.TID 0000.0001)                   F
(PID.TID 0000.0001)     ;
(PID.TID 0000.0001) useNHMTerms = /* Non-Hydrostatic Metric-Terms on/off */
(PID.TID 0000.0001)                   F
(PID.TID 0000.0001)     ;
(PID.TID 0000.0001) selectCoriMap = /* Coriolis Map options (0,1,2,3)*/
(PID.TID 0000.0001)                       2
(PID.TID 0000.0001)     0= f-Plane ; 1= Beta-Plane ; 2= Spherical ; 3= read from file
(PID.TID 0000.0001)     ;
(PID.TID 0000.0001) use3dCoriolis = /* 3-D Coriolis on/off flag */
(PID.TID 0000.0001)                   F
(PID.TID 0000.0001)     ;
(PID.TID 0000.0001) useCoriolis =  /* Coriolis on/off flag */
(PID.TID 0000.0001)                   T
(PID.TID 0000.0001)     ;
(PID.TID 0000.0001) useCDscheme =  /* CD scheme on/off flag */
(PID.TID 0000.0001)                   F
(PID.TID 0000.0001)     ;
(PID.TID 0000.0001) selectCoriScheme= /* Scheme selector for Coriolis-Term */
(PID.TID 0000.0001)                       0
(PID.TID 0000.0001)    = 0 : original discretization (simple averaging, no hFac)
(PID.TID 0000.0001)    = 1 : Wet-point averaging (Jamar & Ozer 1986)
(PID.TID 0000.0001)    = 2 : hFac weighted average (Angular Mom. conserving)
(PID.TID 0000.0001)    = 3 : energy conserving scheme using hFac weighted average
(PID.TID 0000.0001)     ;
(PID.TID 0000.0001) useAbsVorticity= /* V.I Works with f+zeta in Coriolis */
(PID.TID 0000.0001)                   F
(PID.TID 0000.0001)     ;
(PID.TID 0000.0001) selectVortScheme= /* V.I Scheme selector for Vorticity-Term */
(PID.TID 0000.0001)                       1
(PID.TID 0000.0001)    = 0 : enstrophy (Shallow-Water Eq.) conserving scheme by Sadourny, JAS 75
(PID.TID 0000.0001)    = 1 : same as 0 with modified hFac
(PID.TID 0000.0001)    = 2 : energy conserving scheme (used by Sadourny in JAS 75 paper)
(PID.TID 0000.0001)    = 3 : energy (general) and enstrophy (2D, nonDiv.) conserving scheme
(PID.TID 0000.0001)          from Sadourny (Burridge & Haseler, ECMWF Rep.4, 1977)
(PID.TID 0000.0001)     ;
(PID.TID 0000.0001) useJamartMomAdv= /* V.I Non-linear terms Jamart flag */
(PID.TID 0000.0001)                   F
(PID.TID 0000.0001)     ;
(PID.TID 0000.0001) upwindVorticity= /* V.I Upwind bias vorticity flag */
(PID.TID 0000.0001)                   F
(PID.TID 0000.0001)     ;
(PID.TID 0000.0001) highOrderVorticity= /* V.I High order vort. advect. flag */
(PID.TID 0000.0001)                   F
(PID.TID 0000.0001)     ;
(PID.TID 0000.0001) upwindShear= /* V.I Upwind vertical Shear advection flag */
(PID.TID 0000.0001)                   F
(PID.TID 0000.0001)     ;
(PID.TID 0000.0001) selectKEscheme= /* V.I Kinetic Energy scheme selector */
(PID.TID 0000.0001)                       0
(PID.TID 0000.0001)     ;
(PID.TID 0000.0001) momForcing =  /* Momentum forcing on/off flag */
(PID.TID 0000.0001)                   T
(PID.TID 0000.0001)     ;
(PID.TID 0000.0001) momTidalForcing = /* Momentum Tidal forcing on/off flag */
(PID.TID 0000.0001)                   T
(PID.TID 0000.0001)     ;
(PID.TID 0000.0001) momPressureForcing =  /* Momentum pressure term on/off flag */
(PID.TID 0000.0001)                   T
(PID.TID 0000.0001)     ;
(PID.TID 0000.0001) implicitIntGravWave= /* Implicit Internal Gravity Wave flag */
(PID.TID 0000.0001)                   F
(PID.TID 0000.0001)     ;
(PID.TID 0000.0001) staggerTimeStep =    /* Stagger time stepping on/off flag */
(PID.TID 0000.0001)                   T
(PID.TID 0000.0001)     ;
(PID.TID 0000.0001) doResetHFactors = /* reset thickness factors @ each time-step */
(PID.TID 0000.0001)                   T
(PID.TID 0000.0001)     ;
(PID.TID 0000.0001) multiDimAdvection =  /* enable/disable Multi-Dim Advection */
(PID.TID 0000.0001)                   T
(PID.TID 0000.0001)     ;
(PID.TID 0000.0001) useMultiDimAdvec =   /* Multi-Dim Advection is/is-not used */
(PID.TID 0000.0001)                   F
(PID.TID 0000.0001)     ;
(PID.TID 0000.0001) implicitDiffusion = /* Implicit Diffusion on/off flag */
(PID.TID 0000.0001)                   T
(PID.TID 0000.0001)     ;
(PID.TID 0000.0001) tempStepping =  /* Temperature equation on/off flag */
(PID.TID 0000.0001)                   T
(PID.TID 0000.0001)     ;
(PID.TID 0000.0001) tempAdvection = /* Temperature advection on/off flag */
(PID.TID 0000.0001)                   T
(PID.TID 0000.0001)     ;
(PID.TID 0000.0001) tempImplVertAdv = /* Temp. implicit vert. advection on/off */
(PID.TID 0000.0001)                   F
(PID.TID 0000.0001)     ;
(PID.TID 0000.0001) tempForcing  =  /* Temperature forcing on/off flag */
(PID.TID 0000.0001)                   T
(PID.TID 0000.0001)     ;
(PID.TID 0000.0001) balanceQnet  =  /* balance net heat-flux on/off flag */
(PID.TID 0000.0001)                   F
(PID.TID 0000.0001)     ;
(PID.TID 0000.0001) doThetaClimRelax = /* apply SST relaxation on/off flag */
(PID.TID 0000.0001)                   F
(PID.TID 0000.0001)     ;
(PID.TID 0000.0001) balanceThetaClimRelax= /* balance SST relaxation on/off flag */
(PID.TID 0000.0001)                   F
(PID.TID 0000.0001)     ;
(PID.TID 0000.0001) tempIsActiveTr = /* Temp. is a dynamically Active Tracer */
(PID.TID 0000.0001)                   T
(PID.TID 0000.0001)     ;
(PID.TID 0000.0001) saltStepping =  /* Salinity equation on/off flag */
(PID.TID 0000.0001)                   T
(PID.TID 0000.0001)     ;
(PID.TID 0000.0001) saltAdvection = /* Salinity advection on/off flag */
(PID.TID 0000.0001)                   T
(PID.TID 0000.0001)     ;
(PID.TID 0000.0001) saltImplVertAdv = /* Sali. implicit vert. advection on/off */
(PID.TID 0000.0001)                   F
(PID.TID 0000.0001)     ;
(PID.TID 0000.0001) saltForcing  =  /* Salinity forcing on/off flag */
(PID.TID 0000.0001)                   T
(PID.TID 0000.0001)     ;
(PID.TID 0000.0001) balanceEmPmR =  /* balance net fresh-water flux on/off flag */
(PID.TID 0000.0001)                   F
(PID.TID 0000.0001)     ;
(PID.TID 0000.0001) doSaltClimRelax = /* apply SSS relaxation on/off flag */
(PID.TID 0000.0001)                   F
(PID.TID 0000.0001)     ;
(PID.TID 0000.0001) balanceSaltClimRelax= /* balance SSS relaxation on/off flag */
(PID.TID 0000.0001)                   F
(PID.TID 0000.0001)     ;
(PID.TID 0000.0001) saltIsActiveTr = /* Salt  is a dynamically Active Tracer */
(PID.TID 0000.0001)                   T
(PID.TID 0000.0001)     ;
(PID.TID 0000.0001)  readBinaryPrec = /* Precision used for reading binary files */
(PID.TID 0000.0001)                      64
(PID.TID 0000.0001)     ;
(PID.TID 0000.0001) writeBinaryPrec = /* Precision used for writing binary files */
(PID.TID 0000.0001)                      64
(PID.TID 0000.0001)     ;
(PID.TID 0000.0001) balancePrintMean  =  /* print means for balancing fluxes */
(PID.TID 0000.0001)                   F
(PID.TID 0000.0001)     ;
(PID.TID 0000.0001)  rwSuffixType =   /* select format of mds file suffix */
(PID.TID 0000.0001)                       0
(PID.TID 0000.0001)    = 0 : myIter (I10.10) ;   = 1 : 100*myTime (100th sec) ;
(PID.TID 0000.0001)    = 2 : myTime (seconds);   = 3 : myTime/360 (10th of hr);
(PID.TID 0000.0001)    = 4 : myTime/3600 (hours)
(PID.TID 0000.0001)     ;
(PID.TID 0000.0001)  globalFiles = /* write "global" (=not per tile) files */
(PID.TID 0000.0001)                   F
(PID.TID 0000.0001)     ;
(PID.TID 0000.0001)  useSingleCpuIO = /* only master MPI process does I/O */
(PID.TID 0000.0001)                   T
(PID.TID 0000.0001)     ;
(PID.TID 0000.0001)  useSingleCpuInput = /* only master process reads input */
(PID.TID 0000.0001)                   T
(PID.TID 0000.0001)     ;
(PID.TID 0000.0001) /* debLev[*]  : level of debug & auxiliary message printing */
(PID.TID 0000.0001) debLevZero =  0 ; /* level of disabled aux. msg printing */
(PID.TID 0000.0001)    debLevA =  1 ; /* level of minimum  aux. msg printing */
(PID.TID 0000.0001)    debLevB =  2 ; /* level of low aux. print (report read-file opening)*/
(PID.TID 0000.0001)    debLevC =  3 ; /* level of moderate debug prt (most pkgs debug msg) */
(PID.TID 0000.0001)    debLevD =  4 ; /* level of enhanced debug prt (add DEBUG_STATS prt) */
(PID.TID 0000.0001)    debLevE =  5 ; /* level of extensive debug printing */
(PID.TID 0000.0001) debugLevel =  /* select debug printing level */
(PID.TID 0000.0001)                       2
(PID.TID 0000.0001)     ;
(PID.TID 0000.0001)  plotLevel =  /* select PLOT_FIELD printing level */
(PID.TID 0000.0001)                       0
(PID.TID 0000.0001)     ;
(PID.TID 0000.0001) //
(PID.TID 0000.0001) // Elliptic solver(s) paramters ( PARM02 in namelist )
(PID.TID 0000.0001) //
(PID.TID 0000.0001) cg2dMaxIters =   /* Upper limit on 2d con. grad iterations  */
(PID.TID 0000.0001)                     200
(PID.TID 0000.0001)     ;
(PID.TID 0000.0001) cg2dChkResFreq =   /* 2d con. grad convergence test frequency */
(PID.TID 0000.0001)                       1
(PID.TID 0000.0001)     ;
(PID.TID 0000.0001) cg2dUseMinResSol= /* use cg2d last-iter(=0) / min-resid.(=1) solution */
(PID.TID 0000.0001)                       0
(PID.TID 0000.0001)     ;
(PID.TID 0000.0001) cg2dTargetResidual =   /* 2d con. grad target residual  */
(PID.TID 0000.0001)                 1.000000000000000E-09
(PID.TID 0000.0001)     ;
(PID.TID 0000.0001) cg2dTargetResWunit =   /* CG2d target residual [W units] */
(PID.TID 0000.0001)                -1.000000000000000E+00
(PID.TID 0000.0001)     ;
(PID.TID 0000.0001) cg2dPreCondFreq =   /* Freq. for updating cg2d preconditioner */
(PID.TID 0000.0001)                       1
(PID.TID 0000.0001)     ;
(PID.TID 0000.0001) useSRCGSolver =  /* use single reduction CG solver(s) */
(PID.TID 0000.0001)                   F
(PID.TID 0000.0001)     ;
(PID.TID 0000.0001) printResidualFreq = /* Freq. for printing CG residual */
(PID.TID 0000.0001)                       0
(PID.TID 0000.0001)     ;
(PID.TID 0000.0001) //
(PID.TID 0000.0001) // Time stepping paramters ( PARM03 in namelist )
(PID.TID 0000.0001) //
(PID.TID 0000.0001) deltaTMom =   /* Momentum equation timestep ( s ) */
(PID.TID 0000.0001)                 1.200000000000000E+03
(PID.TID 0000.0001)     ;
(PID.TID 0000.0001) deltaTFreeSurf = /* FreeSurface equation timestep ( s ) */
(PID.TID 0000.0001)                 8.640000000000000E+04
(PID.TID 0000.0001)     ;
(PID.TID 0000.0001) dTtracerLev =  /* Tracer equation timestep ( s ) */
(PID.TID 0000.0001)    15 @  8.640000000000000E+04              /* K =  1: 15 */
(PID.TID 0000.0001)     ;
(PID.TID 0000.0001) deltaTClock  =   /* Model clock timestep ( s ) */
(PID.TID 0000.0001)                 8.640000000000000E+04
(PID.TID 0000.0001)     ;
(PID.TID 0000.0001) cAdjFreq =   /* Convective adjustment interval ( s ) */
(PID.TID 0000.0001)                 0.000000000000000E+00
(PID.TID 0000.0001)     ;
(PID.TID 0000.0001) momForcingOutAB = /* =1: take Momentum Forcing out of Adams-Bash. stepping */
(PID.TID 0000.0001)                       1
(PID.TID 0000.0001)     ;
(PID.TID 0000.0001) tracForcingOutAB = /* =1: take T,S,pTr Forcing out of Adams-Bash. stepping */
(PID.TID 0000.0001)                       1
(PID.TID 0000.0001)     ;
(PID.TID 0000.0001) momDissip_In_AB = /* put Dissipation Tendency in Adams-Bash. stepping */
(PID.TID 0000.0001)                   T
(PID.TID 0000.0001)     ;
(PID.TID 0000.0001) doAB_onGtGs = /* apply AB on Tendencies (rather than on T,S)*/
(PID.TID 0000.0001)                   T
(PID.TID 0000.0001)     ;
(PID.TID 0000.0001) abEps =   /* Adams-Bashforth-2 stabilizing weight */
(PID.TID 0000.0001)                 1.000000000000000E-01
(PID.TID 0000.0001)     ;
(PID.TID 0000.0001) applyExchUV_early = /* Apply EXCH to U,V earlier in time-step */
(PID.TID 0000.0001)                   F
(PID.TID 0000.0001)     ;
(PID.TID 0000.0001) pickupStrictlyMatch= /* stop if pickup do not strictly match */
(PID.TID 0000.0001)                   F
(PID.TID 0000.0001)     ;
(PID.TID 0000.0001) nIter0   =   /* Run starting timestep number */
(PID.TID 0000.0001)                       0
(PID.TID 0000.0001)     ;
(PID.TID 0000.0001) nTimeSteps = /* Number of timesteps */
(PID.TID 0000.0001)                      10
(PID.TID 0000.0001)     ;
(PID.TID 0000.0001) nEndIter =   /* Run ending timestep number */
(PID.TID 0000.0001)                      10
(PID.TID 0000.0001)     ;
(PID.TID 0000.0001) baseTime =   /* Model base time ( s ) */
(PID.TID 0000.0001)                 0.000000000000000E+00
(PID.TID 0000.0001)     ;
(PID.TID 0000.0001) startTime =  /* Run start time ( s ) */
(PID.TID 0000.0001)                 0.000000000000000E+00
(PID.TID 0000.0001)     ;
(PID.TID 0000.0001) endTime  =   /* Integration ending time ( s ) */
(PID.TID 0000.0001)                 8.640000000000000E+05
(PID.TID 0000.0001)     ;
(PID.TID 0000.0001) pChkPtFreq = /* Permanent restart/pickup file interval ( s ) */
(PID.TID 0000.0001)                 3.110400000000000E+09
(PID.TID 0000.0001)     ;
(PID.TID 0000.0001) chkPtFreq  = /* Rolling restart/pickup file interval ( s ) */
(PID.TID 0000.0001)                 1.555200000000000E+08
(PID.TID 0000.0001)     ;
(PID.TID 0000.0001) pickup_write_mdsio =   /* Model IO flag. */
(PID.TID 0000.0001)                   T
(PID.TID 0000.0001)     ;
(PID.TID 0000.0001) pickup_read_mdsio =   /* Model IO flag. */
(PID.TID 0000.0001)                   T
(PID.TID 0000.0001)     ;
(PID.TID 0000.0001) pickup_write_mnc =   /* Model IO flag. */
(PID.TID 0000.0001)                   F
(PID.TID 0000.0001)     ;
(PID.TID 0000.0001) pickup_read_mnc =   /* Model IO flag. */
(PID.TID 0000.0001)                   F
(PID.TID 0000.0001)     ;
(PID.TID 0000.0001) writePickupAtEnd =   /* Model IO flag. */
(PID.TID 0000.0001)                   T
(PID.TID 0000.0001)     ;
(PID.TID 0000.0001) dumpFreq =   /* Model state write out interval ( s ). */
(PID.TID 0000.0001)                 0.000000000000000E+00
(PID.TID 0000.0001)     ;
(PID.TID 0000.0001) dumpInitAndLast= /* write out Initial & Last iter. model state */
(PID.TID 0000.0001)                   T
(PID.TID 0000.0001)     ;
(PID.TID 0000.0001) snapshot_mdsio =   /* Model IO flag. */
(PID.TID 0000.0001)                   T
(PID.TID 0000.0001)     ;
(PID.TID 0000.0001) snapshot_mnc =   /* Model IO flag. */
(PID.TID 0000.0001)                   F
(PID.TID 0000.0001)     ;
(PID.TID 0000.0001) monitorFreq =   /* Monitor output interval ( s ). */
(PID.TID 0000.0001)                 1.000000000000000E+00
(PID.TID 0000.0001)     ;
(PID.TID 0000.0001) monitorSelect = /* select group of variables to monitor */
(PID.TID 0000.0001)                       3
(PID.TID 0000.0001)     ;
(PID.TID 0000.0001) monitor_stdio =   /* Model IO flag. */
(PID.TID 0000.0001)                   T
(PID.TID 0000.0001)     ;
(PID.TID 0000.0001) monitor_mnc =   /* Model IO flag. */
(PID.TID 0000.0001)                   F
(PID.TID 0000.0001)     ;
(PID.TID 0000.0001) externForcingPeriod =   /* forcing period (s) */
(PID.TID 0000.0001)                 2.592000000000000E+06
(PID.TID 0000.0001)     ;
(PID.TID 0000.0001) externForcingCycle =   /* period of the cyle (s). */
(PID.TID 0000.0001)                 3.110400000000000E+07
(PID.TID 0000.0001)     ;
(PID.TID 0000.0001) tauThetaClimRelax =   /* relaxation time scale (s) */
(PID.TID 0000.0001)                 0.000000000000000E+00
(PID.TID 0000.0001)     ;
(PID.TID 0000.0001) tauSaltClimRelax =   /* relaxation time scale (s) */
(PID.TID 0000.0001)                 0.000000000000000E+00
(PID.TID 0000.0001)     ;
(PID.TID 0000.0001) latBandClimRelax =   /* max. Lat. where relaxation */
(PID.TID 0000.0001)                 1.800000000000000E+02
(PID.TID 0000.0001)     ;
(PID.TID 0000.0001) //
(PID.TID 0000.0001) // Gridding paramters ( PARM04 in namelist )
(PID.TID 0000.0001) //
(PID.TID 0000.0001) usingCartesianGrid = /* Cartesian coordinates flag ( True/False ) */
(PID.TID 0000.0001)                   F
(PID.TID 0000.0001)     ;
(PID.TID 0000.0001) usingCylindricalGrid = /* Cylindrical coordinates flag ( True/False ) */
(PID.TID 0000.0001)                   F
(PID.TID 0000.0001)     ;
(PID.TID 0000.0001) usingSphericalPolarGrid = /* Spherical coordinates flag ( True/False ) */
(PID.TID 0000.0001)                   F
(PID.TID 0000.0001)     ;
(PID.TID 0000.0001) usingCurvilinearGrid = /* Curvilinear coordinates flag ( True/False ) */
(PID.TID 0000.0001)                   T
(PID.TID 0000.0001)     ;
(PID.TID 0000.0001) useMin4hFacEdges = /* set hFacW,S as minimum of adjacent hFacC factor */
(PID.TID 0000.0001)                   F
(PID.TID 0000.0001)     ;
(PID.TID 0000.0001) interViscAr_pCell = /* account for partial-cell in interior vert. viscosity */
(PID.TID 0000.0001)                   F
(PID.TID 0000.0001)     ;
(PID.TID 0000.0001) interDiffKr_pCell = /* account for partial-cell in interior vert. diffusion */
(PID.TID 0000.0001)                   F
(PID.TID 0000.0001)     ;
(PID.TID 0000.0001) pCellMix_select = /* option to enhance mixing near surface & bottom */
(PID.TID 0000.0001)                       0
(PID.TID 0000.0001)     ;
(PID.TID 0000.0001) selectSigmaCoord = /* Hybrid-Sigma Vert. Coordinate option */
(PID.TID 0000.0001)                       0
(PID.TID 0000.0001)     ;
(PID.TID 0000.0001) rSigmaBnd = /* r/sigma transition ( units of r == Pa ) */
(PID.TID 0000.0001)                 1.234567000000000E+05
(PID.TID 0000.0001)     ;
(PID.TID 0000.0001) rkSign =   /* index orientation relative to vertical coordinate */
(PID.TID 0000.0001)                -1.000000000000000E+00
(PID.TID 0000.0001)     ;
(PID.TID 0000.0001) gravitySign = /* gravity orientation relative to vertical coordinate */
(PID.TID 0000.0001)                 1.000000000000000E+00
(PID.TID 0000.0001)     ;
(PID.TID 0000.0001) seaLev_Z =  /* reference height of sea-level [m] */
(PID.TID 0000.0001)                 0.000000000000000E+00
(PID.TID 0000.0001)     ;
(PID.TID 0000.0001) top_Pres =  /* pressure at the top (r-axis origin) [Pa] */
(PID.TID 0000.0001)                 0.000000000000000E+00
(PID.TID 0000.0001)     ;
(PID.TID 0000.0001) mass2rUnit = /* convert mass per unit area [kg/m2] to r-units [Pa] */
(PID.TID 0000.0001)                 9.810000000000000E+00
(PID.TID 0000.0001)     ;
(PID.TID 0000.0001) rUnit2mass = /* convert r-units [Pa] to mass per unit area [kg/m2] */
(PID.TID 0000.0001)                 1.019367991845056E-01
(PID.TID 0000.0001)     ;
(PID.TID 0000.0001) drC =   /* C spacing ( units of r ) */
(PID.TID 0000.0001)                 3.552590815589000E+06,      /* K =  1 */
(PID.TID 0000.0001)                 6.838430683410000E+06,      /* K =  2 */
(PID.TID 0000.0001)                 6.307096000805000E+06,      /* K =  3 */
(PID.TID 0000.0001)                 5.779789753830500E+06,      /* K =  4 */
(PID.TID 0000.0001)                 5.256128838809000E+06,      /* K =  5 */
(PID.TID 0000.0001)                 4.735790619145500E+06,      /* K =  6 */
(PID.TID 0000.0001)                 4.218239224087000E+06,      /* K =  7 */
(PID.TID 0000.0001)                 3.703226328546000E+06,      /* K =  8 */
(PID.TID 0000.0001)                 3.190660624493000E+06,      /* K =  9 */
(PID.TID 0000.0001)                 2.680260559297500E+06,      /* K = 10 */
(PID.TID 0000.0001)                 2.171774589024000E+06,      /* K = 11 */
(PID.TID 0000.0001)                 1.664899952158000E+06,      /* K = 12 */
(PID.TID 0000.0001)                 1.209624465162000E+06,      /* K = 13 */
(PID.TID 0000.0001)                 8.559169708345000E+05,      /* K = 14 */
(PID.TID 0000.0001)                 6.035281525760000E+05,      /* K = 15 */
(PID.TID 0000.0001)                 2.513278433230000E+05       /* K = 16 */
(PID.TID 0000.0001)     ;
(PID.TID 0000.0001) drF =   /* W spacing ( units of r ) */
(PID.TID 0000.0001)                 7.105181631178000E+06,      /* K =  1 */
(PID.TID 0000.0001)                 6.571679735642000E+06,      /* K =  2 */
(PID.TID 0000.0001)                 6.042512265968000E+06,      /* K =  3 */
(PID.TID 0000.0001)                 5.517067241693000E+06,      /* K =  4 */
(PID.TID 0000.0001)                 4.995190435925000E+06,      /* K =  5 */
(PID.TID 0000.0001)                 4.476390802366000E+06,      /* K =  6 */
(PID.TID 0000.0001)                 3.960087645808000E+06,      /* K =  7 */
(PID.TID 0000.0001)                 3.446365011284000E+06,      /* K =  8 */
(PID.TID 0000.0001)                 2.934956237702000E+06,      /* K =  9 */
(PID.TID 0000.0001)                 2.425564880893000E+06,      /* K = 10 */
(PID.TID 0000.0001)                 1.917984297155000E+06,      /* K = 11 */
(PID.TID 0000.0001)                 1.411815607161000E+06,      /* K = 12 */
(PID.TID 0000.0001)                 1.007433323163000E+06,      /* K = 13 */
(PID.TID 0000.0001)                 7.044006185060000E+05,      /* K = 14 */
(PID.TID 0000.0001)                 5.026556866460000E+05       /* K = 15 */
(PID.TID 0000.0001)     ;
(PID.TID 0000.0001) radius_fromHorizGrid = /* sphere Radius of input horiz. grid */
(PID.TID 0000.0001)                 6.370000000000000E+06
(PID.TID 0000.0001)     ;
(PID.TID 0000.0001) rSphere =  /* Radius ( ignored - cartesian, m - spherical ) */
(PID.TID 0000.0001)                 6.370000000000000E+06
(PID.TID 0000.0001)     ;
(PID.TID 0000.0001) deepAtmosphere = /* Deep/Shallow Atmosphere flag (True/False) */
(PID.TID 0000.0001)                   F
(PID.TID 0000.0001)     ;
(PID.TID 0000.0001) xC =  /* xC(:,1,:,1) : P-point X coord ( deg. or m if cartesian) */
(PID.TID 0000.0001)                -4.439521994760536E+01,      /* I =  1 */
(PID.TID 0000.0001)                -4.295641272275883E+01,      /* I =  2 */
(PID.TID 0000.0001)                -4.122055553388957E+01,      /* I =  3 */
(PID.TID 0000.0001)      . . .
(PID.TID 0000.0001)                 1.312205555338896E+02,      /* I = 94 */
(PID.TID 0000.0001)                 1.329564127227588E+02,      /* I = 95 */
(PID.TID 0000.0001)                 1.343952199476053E+02,      /* I = 96 */
(PID.TID 0000.0001)                 4.635509675007168E+01,      /* I = 97 */
(PID.TID 0000.0001)                 4.906731228843647E+01,      /* I = 98 */
(PID.TID 0000.0001)                 5.178550688214704E+01,      /* I = 99 */
(PID.TID 0000.0001)      . . .
(PID.TID 0000.0001)                -1.778001716525716E+02,      /* I =190 */
(PID.TID 0000.0001)                -1.779288225675308E+02,      /* I =191 */
(PID.TID 0000.0001)                -1.780367200854751E+02,      /* I =192 */
(PID.TID 0000.0001)                 1.356047800523947E+02,      /* I =193 */
(PID.TID 0000.0001)                 1.358367907661329E+02,      /* I =194 */
(PID.TID 0000.0001)                 1.359720382181193E+02,      /* I =195 */
(PID.TID 0000.0001)      . . .
(PID.TID 0000.0001)                -1.340279617818807E+02,      /* I =286 */
(PID.TID 0000.0001)                -1.341632092338671E+02,      /* I =287 */
(PID.TID 0000.0001)                -1.343952199476053E+02,      /* I =288 */
(PID.TID 0000.0001)                -8.812739148696656E+01,      /* I =289 */
(PID.TID 0000.0001)                -8.820362659721324E+01,      /* I =290 */
(PID.TID 0000.0001)                -8.826768106944316E+01,      /* I =291 */
(PID.TID 0000.0001)      . . .
(PID.TID 0000.0001)                 8.780017165257156E+01,      /* I =382 */
(PID.TID 0000.0001)                 8.792882256753080E+01,      /* I =383 */
(PID.TID 0000.0001)                 8.803672008547504E+01       /* I =384 */
(PID.TID 0000.0001)     ;
(PID.TID 0000.0001) yC =  /* yC(1,:,1,:) : P-point Y coord ( deg. or m if cartesian) */
(PID.TID 0000.0001)                -3.497677942598243E+01,      /* J =  1 */
(PID.TID 0000.0001)                -3.374005967394886E+01,      /* J =  2 */
(PID.TID 0000.0001)                -3.220655175667454E+01,      /* J =  3 */
(PID.TID 0000.0001)                -3.045756348838641E+01,      /* J =  4 */
(PID.TID 0000.0001)                -2.853728129852918E+01,      /* J =  5 */
(PID.TID 0000.0001)                -2.647426640173173E+01,      /* J =  6 */
(PID.TID 0000.0001)                -2.428936657094636E+01,      /* J =  7 */
(PID.TID 0000.0001)                -2.199915808312262E+01,      /* J =  8 */
(PID.TID 0000.0001)                -1.961768597440146E+01,      /* J =  9 */
(PID.TID 0000.0001)                -1.715743888281371E+01,      /* J = 10 */
(PID.TID 0000.0001)                -1.462993396899330E+01,      /* J = 11 */
(PID.TID 0000.0001)                -1.204608340464756E+01,      /* J = 12 */
(PID.TID 0000.0001)                -9.416429130284818E+00,      /* J = 13 */
(PID.TID 0000.0001)                -6.751293662992216E+00,      /* J = 14 */
(PID.TID 0000.0001)                -4.060875511835959E+00,      /* J = 15 */
(PID.TID 0000.0001)                -1.355307764409121E+00       /* J = 16 */
(PID.TID 0000.0001)     ;
(PID.TID 0000.0001) rcoord = /* P-point R coordinate (  units of r ) */
(PID.TID 0000.0001)                 4.946669460550100E+07,      /* K =  1 */
(PID.TID 0000.0001)                 4.262826392209099E+07,      /* K =  2 */
(PID.TID 0000.0001)                 3.632116792128599E+07,      /* K =  3 */
(PID.TID 0000.0001)                 3.054137816745549E+07,      /* K =  4 */
(PID.TID 0000.0001)                 2.528524932864650E+07,      /* K =  5 */
(PID.TID 0000.0001)                 2.054945870950100E+07,      /* K =  6 */
(PID.TID 0000.0001)                 1.633121948541400E+07,      /* K =  7 */
(PID.TID 0000.0001)                 1.262799315686800E+07,      /* K =  8 */
(PID.TID 0000.0001)                 9.437332532375000E+06,      /* K =  9 */
(PID.TID 0000.0001)                 6.757071973077500E+06,      /* K = 10 */
(PID.TID 0000.0001)                 4.585297384053500E+06,      /* K = 11 */
(PID.TID 0000.0001)                 2.920397431895500E+06,      /* K = 12 */
(PID.TID 0000.0001)                 1.710772966733500E+06,      /* K = 13 */
(PID.TID 0000.0001)                 8.548559958990000E+05,      /* K = 14 */
(PID.TID 0000.0001)                 2.513278433230000E+05       /* K = 15 */
(PID.TID 0000.0001)     ;
(PID.TID 0000.0001) rF =   /* W-Interf. R coordinate (  units of r ) */
(PID.TID 0000.0001)                 5.301928542109000E+07,      /* K =  1 */
(PID.TID 0000.0001)                 4.591410378991200E+07,      /* K =  2 */
(PID.TID 0000.0001)                 3.934242405427000E+07,      /* K =  3 */
(PID.TID 0000.0001)                 3.329991178830200E+07,      /* K =  4 */
(PID.TID 0000.0001)                 2.778284454660900E+07,      /* K =  5 */
(PID.TID 0000.0001)                 2.278765411068400E+07,      /* K =  6 */
(PID.TID 0000.0001)                 1.831126330831800E+07,      /* K =  7 */
(PID.TID 0000.0001)                 1.435117566251000E+07,      /* K =  8 */
(PID.TID 0000.0001)                 1.090481065122600E+07,      /* K =  9 */
(PID.TID 0000.0001)                 7.969854413524000E+06,      /* K = 10 */
(PID.TID 0000.0001)                 5.544289532631000E+06,      /* K = 11 */
(PID.TID 0000.0001)                 3.626305235476000E+06,      /* K = 12 */
(PID.TID 0000.0001)                 2.214489628315000E+06,      /* K = 13 */
(PID.TID 0000.0001)                 1.207056305152000E+06,      /* K = 14 */
(PID.TID 0000.0001)                 5.026556866460000E+05,      /* K = 15 */
(PID.TID 0000.0001)                 0.000000000000000E+00       /* K = 16 */
(PID.TID 0000.0001)     ;
(PID.TID 0000.0001) deepFacC = /* deep-model grid factor @ cell-Center (-) */
(PID.TID 0000.0001)    15 @  1.000000000000000E+00              /* K =  1: 15 */
(PID.TID 0000.0001)     ;
(PID.TID 0000.0001) deepFacF = /* deep-model grid factor @ W-Interface (-) */
(PID.TID 0000.0001)    16 @  1.000000000000000E+00              /* K =  1: 16 */
(PID.TID 0000.0001)     ;
(PID.TID 0000.0001) rVel2wUnit = /* convert units: rVel -> wSpeed (=1 if z-coord)*/
(PID.TID 0000.0001)                 9.741871157545671E-05,      /* K =  1 */
(PID.TID 0000.0001)                 9.767581758248818E-05,      /* K =  2 */
(PID.TID 0000.0001)                 9.791836483646056E-05,      /* K =  3 */
(PID.TID 0000.0001)                 9.814552216564588E-05,      /* K =  4 */
(PID.TID 0000.0001)                 9.835648288661061E-05,      /* K =  5 */
(PID.TID 0000.0001)                 9.855048815195593E-05,      /* K =  6 */
(PID.TID 0000.0001)                 9.872682031565227E-05,      /* K =  7 */
(PID.TID 0000.0001)                 9.888480491741002E-05,      /* K =  8 */
(PID.TID 0000.0001)                 9.902384286672852E-05,      /* K =  9 */
(PID.TID 0000.0001)                 9.914340236521406E-05,      /* K = 10 */
(PID.TID 0000.0001)                 9.924302259382755E-05,      /* K = 11 */
(PID.TID 0000.0001)                 9.932232170441026E-05,      /* K = 12 */
(PID.TID 0000.0001)                 9.938099250463448E-05,      /* K = 13 */
(PID.TID 0000.0001)                 9.942301456554267E-05,      /* K = 14 */
(PID.TID 0000.0001)                 9.945247415878185E-05,      /* K = 15 */
(PID.TID 0000.0001)                 9.947353552744134E-05       /* K = 16 */
(PID.TID 0000.0001)     ;
(PID.TID 0000.0001) wUnit2rVel = /* convert units: wSpeed -> rVel (=1 if z-coord)*/
(PID.TID 0000.0001)                 1.026496844218104E+04,      /* K =  1 */
(PID.TID 0000.0001)                 1.023794860130544E+04,      /* K =  2 */
(PID.TID 0000.0001)                 1.021258884040967E+04,      /* K =  3 */
(PID.TID 0000.0001)                 1.018895185367950E+04,      /* K =  4 */
(PID.TID 0000.0001)                 1.016709799549096E+04,      /* K =  5 */
(PID.TID 0000.0001)                 1.014708317282093E+04,      /* K =  6 */
(PID.TID 0000.0001)                 1.012895985916259E+04,      /* K =  7 */
(PID.TID 0000.0001)                 1.011277719398055E+04,      /* K =  8 */
(PID.TID 0000.0001)                 1.009857798940254E+04,      /* K =  9 */
(PID.TID 0000.0001)                 1.008639986265859E+04,      /* K = 10 */
(PID.TID 0000.0001)                 1.007627512608826E+04,      /* K = 11 */
(PID.TID 0000.0001)                 1.006823021088921E+04,      /* K = 12 */
(PID.TID 0000.0001)                 1.006228630644201E+04,      /* K = 13 */
(PID.TID 0000.0001)                 1.005803338763953E+04,      /* K = 14 */
(PID.TID 0000.0001)                 1.005505401910303E+04,      /* K = 15 */
(PID.TID 0000.0001)                 1.005292507899384E+04       /* K = 16 */
(PID.TID 0000.0001)     ;
(PID.TID 0000.0001) dBdrRef = /* Vertical grad. of reference buoyancy [(m/s/r)^2] */
(PID.TID 0000.0001)    15 @  0.000000000000000E+00              /* K =  1: 15 */
(PID.TID 0000.0001)     ;
(PID.TID 0000.0001) rotateGrid = /* use rotated grid ( True/False ) */
(PID.TID 0000.0001)                   F
(PID.TID 0000.0001)     ;
(PID.TID 0000.0001) phiEuler = /* Euler angle, rotation about original z-coordinate [rad] */
(PID.TID 0000.0001)                 0.000000000000000E+00
(PID.TID 0000.0001)     ;
(PID.TID 0000.0001) thetaEuler = /* Euler angle, rotation about new x-coordinate [rad] */
(PID.TID 0000.0001)                 0.000000000000000E+00
(PID.TID 0000.0001)     ;
(PID.TID 0000.0001) psiEuler = /* Euler angle, rotation about new z-coordinate [rad] */
(PID.TID 0000.0001)                 0.000000000000000E+00
(PID.TID 0000.0001)     ;
(PID.TID 0000.0001) dxF =  /* dxF(:,1,:,1) ( units: m ) */
(PID.TID 0000.0001)                 1.202082051331828E+05,      /* I =  1 */
(PID.TID 0000.0001)                 1.563594089971120E+05,      /* I =  2 */
(PID.TID 0000.0001)                 1.835530058121492E+05,      /* I =  3 */
(PID.TID 0000.0001)      . . .
(PID.TID 0000.0001)                 1.835530058121492E+05,      /* I = 94 */
(PID.TID 0000.0001)                 1.563594089971120E+05,      /* I = 95 */
(PID.TID 0000.0001)                 1.202082051331828E+05,      /* I = 96 */
(PID.TID 0000.0001)                 3.012844832048790E+05,      /* I = 97 */
(PID.TID 0000.0001)                 3.017314519159184E+05,      /* I = 98 */
(PID.TID 0000.0001)                 3.026061571839506E+05,      /* I = 99 */
(PID.TID 0000.0001)      . . .
(PID.TID 0000.0001)                 3.026061571839506E+05,      /* I =190 */
(PID.TID 0000.0001)                 3.017314519159184E+05,      /* I =191 */
(PID.TID 0000.0001)                 3.012844832048790E+05,      /* I =192 */
(PID.TID 0000.0001)                 1.202082051331828E+05,      /* I =193 */
(PID.TID 0000.0001)                 1.563594089971120E+05,      /* I =194 */
(PID.TID 0000.0001)                 1.835530058121492E+05,      /* I =195 */
(PID.TID 0000.0001)      . . .
(PID.TID 0000.0001)                 1.835530058121492E+05,      /* I =286 */
(PID.TID 0000.0001)                 1.563594089971120E+05,      /* I =287 */
(PID.TID 0000.0001)                 1.202082051331828E+05,      /* I =288 */
(PID.TID 0000.0001)                 3.012844832048790E+05,      /* I =289 */
(PID.TID 0000.0001)                 3.017314519159184E+05,      /* I =290 */
(PID.TID 0000.0001)                 3.026061571839506E+05,      /* I =291 */
(PID.TID 0000.0001)      . . .
(PID.TID 0000.0001)                 3.026061571839506E+05,      /* I =382 */
(PID.TID 0000.0001)                 3.017314519159184E+05,      /* I =383 */
(PID.TID 0000.0001)                 3.012844832048790E+05       /* I =384 */
(PID.TID 0000.0001)     ;
(PID.TID 0000.0001) dxF =  /* dxF(1,:,1,:) ( units: m ) */
(PID.TID 0000.0001)                 1.202082051331828E+05,      /* J =  1 */
(PID.TID 0000.0001)                 1.572908084538706E+05,      /* J =  2 */
(PID.TID 0000.0001)                 1.840412227747703E+05,      /* J =  3 */
(PID.TID 0000.0001)                 2.048868197919576E+05,      /* J =  4 */
(PID.TID 0000.0001)                 2.220405216043041E+05,      /* J =  5 */
(PID.TID 0000.0001)                 2.365892017348392E+05,      /* J =  6 */
(PID.TID 0000.0001)                 2.491250781852558E+05,      /* J =  7 */
(PID.TID 0000.0001)                 2.599949918261881E+05,      /* J =  8 */
(PID.TID 0000.0001)                 2.694110134598581E+05,      /* J =  9 */
(PID.TID 0000.0001)                 2.775055554645015E+05,      /* J = 10 */
(PID.TID 0000.0001)                 2.843615645344775E+05,      /* J = 11 */
(PID.TID 0000.0001)                 2.900303768613599E+05,      /* J = 12 */
(PID.TID 0000.0001)                 2.945429307892709E+05,      /* J = 13 */
(PID.TID 0000.0001)                 2.979171143158405E+05,      /* J = 14 */
(PID.TID 0000.0001)                 3.001626787528886E+05,      /* J = 15 */
(PID.TID 0000.0001)                 3.012844832048790E+05       /* J = 16 */
(PID.TID 0000.0001)     ;
(PID.TID 0000.0001) dyF =  /* dyF(:,1,:,1) ( units: m ) */
(PID.TID 0000.0001)                 1.202082051331828E+05,      /* I =  1 */
(PID.TID 0000.0001)                 1.572908084538706E+05,      /* I =  2 */
(PID.TID 0000.0001)                 1.840412227747703E+05,      /* I =  3 */
(PID.TID 0000.0001)      . . .
(PID.TID 0000.0001)                 1.840412227747703E+05,      /* I = 94 */
(PID.TID 0000.0001)                 1.572908084538706E+05,      /* I = 95 */
(PID.TID 0000.0001)                 1.202082051331828E+05,      /* I = 96 */
(PID.TID 0000.0001)                 3.012190981969055E+05,      /* I = 97 */
(PID.TID 0000.0001)                 3.016675528553907E+05,      /* I = 98 */
(PID.TID 0000.0001)                 3.025451404065074E+05,      /* I = 99 */
(PID.TID 0000.0001)      . . .
(PID.TID 0000.0001)                 3.025451404065074E+05,      /* I =190 */
(PID.TID 0000.0001)                 3.016675528553907E+05,      /* I =191 */
(PID.TID 0000.0001)                 3.012190981969055E+05,      /* I =192 */
(PID.TID 0000.0001)                 1.202082051331828E+05,      /* I =193 */
(PID.TID 0000.0001)                 1.572908084538706E+05,      /* I =194 */
(PID.TID 0000.0001)                 1.840412227747703E+05,      /* I =195 */
(PID.TID 0000.0001)      . . .
(PID.TID 0000.0001)                 1.840412227747703E+05,      /* I =286 */
(PID.TID 0000.0001)                 1.572908084538706E+05,      /* I =287 */
(PID.TID 0000.0001)                 1.202082051331828E+05,      /* I =288 */
(PID.TID 0000.0001)                 3.012190981969055E+05,      /* I =289 */
(PID.TID 0000.0001)                 3.016675528553907E+05,      /* I =290 */
(PID.TID 0000.0001)                 3.025451404065074E+05,      /* I =291 */
(PID.TID 0000.0001)      . . .
(PID.TID 0000.0001)                 3.025451404065074E+05,      /* I =382 */
(PID.TID 0000.0001)                 3.016675528553907E+05,      /* I =383 */
(PID.TID 0000.0001)                 3.012190981969055E+05       /* I =384 */
(PID.TID 0000.0001)     ;
(PID.TID 0000.0001) dyF =  /* dyF(1,:,1,:) ( units: m ) */
(PID.TID 0000.0001)                 1.202082051331828E+05,      /* J =  1 */
(PID.TID 0000.0001)                 1.563594089971120E+05,      /* J =  2 */
(PID.TID 0000.0001)                 1.835530058121492E+05,      /* J =  3 */
(PID.TID 0000.0001)                 2.045883481718707E+05,      /* J =  4 */
(PID.TID 0000.0001)                 2.218350349844185E+05,      /* J =  5 */
(PID.TID 0000.0001)                 2.364352994647058E+05,      /* J =  6 */
(PID.TID 0000.0001)                 2.490022710862746E+05,      /* J =  7 */
(PID.TID 0000.0001)                 2.598919724358304E+05,      /* J =  8 */
(PID.TID 0000.0001)                 2.693210245495156E+05,      /* J =  9 */
(PID.TID 0000.0001)                 2.774243179696503E+05,      /* J = 10 */
(PID.TID 0000.0001)                 2.842862532064524E+05,      /* J = 11 */
(PID.TID 0000.0001)                 2.899590699694043E+05,      /* J = 12 */
(PID.TID 0000.0001)                 2.944742915095688E+05,      /* J = 13 */
(PID.TID 0000.0001)                 2.978501920522794E+05,      /* J = 14 */
(PID.TID 0000.0001)                 3.000967749619962E+05,      /* J = 15 */
(PID.TID 0000.0001)                 3.012190981969055E+05       /* J = 16 */
(PID.TID 0000.0001)     ;
(PID.TID 0000.0001) dxG =  /* dxG(:,1,:,1) ( units: m ) */
(PID.TID 0000.0001)                 1.009837800879055E+05,      /* I =  1 */
(PID.TID 0000.0001)                 1.534505834330338E+05,      /* I =  2 */
(PID.TID 0000.0001)                 1.823321598773926E+05,      /* I =  3 */
(PID.TID 0000.0001)      . . .
(PID.TID 0000.0001)                 1.823321598773926E+05,      /* I = 94 */
(PID.TID 0000.0001)                 1.534505834330338E+05,      /* I = 95 */
(PID.TID 0000.0001)                 1.009837800879055E+05,      /* I = 96 */
(PID.TID 0000.0001)                 3.014246674484008E+05,      /* I = 97 */
(PID.TID 0000.0001)                 3.018694497480782E+05,      /* I = 98 */
(PID.TID 0000.0001)                 3.027399364062562E+05,      /* I = 99 */
(PID.TID 0000.0001)      . . .
(PID.TID 0000.0001)                 3.027399364062562E+05,      /* I =190 */
(PID.TID 0000.0001)                 3.018694497480782E+05,      /* I =191 */
(PID.TID 0000.0001)                 3.014246674484008E+05,      /* I =192 */
(PID.TID 0000.0001)                 1.009837800879055E+05,      /* I =193 */
(PID.TID 0000.0001)                 1.534505834330338E+05,      /* I =194 */
(PID.TID 0000.0001)                 1.823321598773926E+05,      /* I =195 */
(PID.TID 0000.0001)      . . .
(PID.TID 0000.0001)                 1.823321598773926E+05,      /* I =286 */
(PID.TID 0000.0001)                 1.534505834330338E+05,      /* I =287 */
(PID.TID 0000.0001)                 1.009837800879055E+05,      /* I =288 */
(PID.TID 0000.0001)                 3.014246674484008E+05,      /* I =289 */
(PID.TID 0000.0001)                 3.018694497480782E+05,      /* I =290 */
(PID.TID 0000.0001)                 3.027399364062562E+05,      /* I =291 */
(PID.TID 0000.0001)      . . .
(PID.TID 0000.0001)                 3.027399364062562E+05,      /* I =382 */
(PID.TID 0000.0001)                 3.018694497480782E+05,      /* I =383 */
(PID.TID 0000.0001)                 3.014246674484008E+05       /* I =384 */
(PID.TID 0000.0001)     ;
(PID.TID 0000.0001) dxG =  /* dxG(1,:,1,:) ( units: m ) */
(PID.TID 0000.0001)                 1.009837800879055E+05,      /* J =  1 */
(PID.TID 0000.0001)                 1.403701524205398E+05,      /* J =  2 */
(PID.TID 0000.0001)                 1.716197227386011E+05,      /* J =  3 */
(PID.TID 0000.0001)                 1.950254041626018E+05,      /* J =  4 */
(PID.TID 0000.0001)                 2.138410773065497E+05,      /* J =  5 */
(PID.TID 0000.0001)                 2.295958105911512E+05,      /* J =  6 */
(PID.TID 0000.0001)                 2.430829951739083E+05,      /* J =  7 */
(PID.TID 0000.0001)                 2.547526806712889E+05,      /* J =  8 */
(PID.TID 0000.0001)                 2.648750305193301E+05,      /* J =  9 */
(PID.TID 0000.0001)                 2.736173771018112E+05,      /* J = 10 */
(PID.TID 0000.0001)                 2.810845823202647E+05,      /* J = 11 */
(PID.TID 0000.0001)                 2.873420591008078E+05,      /* J = 12 */
(PID.TID 0000.0001)                 2.924298293668651E+05,      /* J = 13 */
(PID.TID 0000.0001)                 2.963715635865306E+05,      /* J = 14 */
(PID.TID 0000.0001)                 2.991805843171258E+05,      /* J = 15 */
(PID.TID 0000.0001)                 3.008638765647886E+05       /* J = 16 */
(PID.TID 0000.0001)     ;
(PID.TID 0000.0001) dyG =  /* dyG(:,1,:,1) ( units: m ) */
(PID.TID 0000.0001)                 1.009837800879055E+05,      /* I =  1 */
(PID.TID 0000.0001)                 1.403701524205398E+05,      /* I =  2 */
(PID.TID 0000.0001)                 1.716197227386011E+05,      /* I =  3 */
(PID.TID 0000.0001)      . . .
(PID.TID 0000.0001)                 1.950254041626018E+05,      /* I = 94 */
(PID.TID 0000.0001)                 1.716197227386011E+05,      /* I = 95 */
(PID.TID 0000.0001)                 1.403701524205398E+05,      /* I = 96 */
(PID.TID 0000.0001)                 3.011625828699101E+05,      /* I = 97 */
(PID.TID 0000.0001)                 3.013880313304323E+05,      /* I = 98 */
(PID.TID 0000.0001)                 3.020546438966793E+05,      /* I = 99 */
(PID.TID 0000.0001)      . . .
(PID.TID 0000.0001)                 3.031337933484788E+05,      /* I =190 */
(PID.TID 0000.0001)                 3.020546438966793E+05,      /* I =191 */
(PID.TID 0000.0001)                 3.013880313304323E+05,      /* I =192 */
(PID.TID 0000.0001)                 1.009837800879055E+05,      /* I =193 */
(PID.TID 0000.0001)                 1.403701524205398E+05,      /* I =194 */
(PID.TID 0000.0001)                 1.716197227386011E+05,      /* I =195 */
(PID.TID 0000.0001)      . . .
(PID.TID 0000.0001)                 1.950254041626018E+05,      /* I =286 */
(PID.TID 0000.0001)                 1.716197227386011E+05,      /* I =287 */
(PID.TID 0000.0001)                 1.403701524205398E+05,      /* I =288 */
(PID.TID 0000.0001)                 3.011625828699101E+05,      /* I =289 */
(PID.TID 0000.0001)                 3.013880313304323E+05,      /* I =290 */
(PID.TID 0000.0001)                 3.020546438966793E+05,      /* I =291 */
(PID.TID 0000.0001)      . . .
(PID.TID 0000.0001)                 3.031337933484788E+05,      /* I =382 */
(PID.TID 0000.0001)                 3.020546438966793E+05,      /* I =383 */
(PID.TID 0000.0001)                 3.013880313304323E+05       /* I =384 */
(PID.TID 0000.0001)     ;
(PID.TID 0000.0001) dyG =  /* dyG(1,:,1,:) ( units: m ) */
(PID.TID 0000.0001)                 1.009837800879055E+05,      /* J =  1 */
(PID.TID 0000.0001)                 1.534505834330338E+05,      /* J =  2 */
(PID.TID 0000.0001)                 1.823321598773926E+05,      /* J =  3 */
(PID.TID 0000.0001)                 2.038999045536999E+05,      /* J =  4 */
(PID.TID 0000.0001)                 2.213884732245467E+05,      /* J =  5 */
(PID.TID 0000.0001)                 2.361211699596122E+05,      /* J =  6 */
(PID.TID 0000.0001)                 2.487693460283865E+05,      /* J =  7 */
(PID.TID 0000.0001)                 2.597126963772147E+05,      /* J =  8 */
(PID.TID 0000.0001)                 2.691790288994575E+05,      /* J =  9 */
(PID.TID 0000.0001)                 2.773091043277394E+05,      /* J = 10 */
(PID.TID 0000.0001)                 2.841906470085516E+05,      /* J = 11 */
(PID.TID 0000.0001)                 2.898778860929753E+05,      /* J = 12 */
(PID.TID 0000.0001)                 2.944035815526416E+05,      /* J = 13 */
(PID.TID 0000.0001)                 2.977867909042096E+05,      /* J = 14 */
(PID.TID 0000.0001)                 3.000380090330854E+05,      /* J = 15 */
(PID.TID 0000.0001)                 3.011625828699101E+05       /* J = 16 */
(PID.TID 0000.0001)     ;
(PID.TID 0000.0001) dxC =  /* dxC(:,1,:,1) ( units: m ) */
(PID.TID 0000.0001)                 1.114203141013064E+05,      /* I =  1 */
(PID.TID 0000.0001)                 1.391343389937106E+05,      /* I =  2 */
(PID.TID 0000.0001)                 1.709574999026266E+05,      /* I =  3 */
(PID.TID 0000.0001)      . . .
(PID.TID 0000.0001)                 1.946503699269892E+05,      /* I = 94 */
(PID.TID 0000.0001)                 1.709574999026266E+05,      /* I = 95 */
(PID.TID 0000.0001)                 1.391343389937106E+05,      /* I = 96 */
(PID.TID 0000.0001)                 3.012281885409289E+05,      /* I = 97 */
(PID.TID 0000.0001)                 3.014528555318499E+05,      /* I = 98 */
(PID.TID 0000.0001)                 3.021172674809921E+05,      /* I = 99 */
(PID.TID 0000.0001)      . . .
(PID.TID 0000.0001)                 3.031928954490276E+05,      /* I =190 */
(PID.TID 0000.0001)                 3.021172674809921E+05,      /* I =191 */
(PID.TID 0000.0001)                 3.014528555318499E+05,      /* I =192 */
(PID.TID 0000.0001)                 1.114203141013064E+05,      /* I =193 */
(PID.TID 0000.0001)                 1.391343389937106E+05,      /* I =194 */
(PID.TID 0000.0001)                 1.709574999026266E+05,      /* I =195 */
(PID.TID 0000.0001)      . . .
(PID.TID 0000.0001)                 1.946503699269892E+05,      /* I =286 */
(PID.TID 0000.0001)                 1.709574999026266E+05,      /* I =287 */
(PID.TID 0000.0001)                 1.391343389937106E+05,      /* I =288 */
(PID.TID 0000.0001)                 3.012281885409289E+05,      /* I =289 */
(PID.TID 0000.0001)                 3.014528555318499E+05,      /* I =290 */
(PID.TID 0000.0001)                 3.021172674809921E+05,      /* I =291 */
(PID.TID 0000.0001)      . . .
(PID.TID 0000.0001)                 3.031928954490276E+05,      /* I =382 */
(PID.TID 0000.0001)                 3.021172674809921E+05,      /* I =383 */
(PID.TID 0000.0001)                 3.014528555318499E+05       /* I =384 */
(PID.TID 0000.0001)     ;
(PID.TID 0000.0001) dxC =  /* dxC(1,:,1,:) ( units: m ) */
(PID.TID 0000.0001)                 1.114203141013064E+05,      /* J =  1 */
(PID.TID 0000.0001)                 1.549545757850771E+05,      /* J =  2 */
(PID.TID 0000.0001)                 1.829777599966776E+05,      /* J =  3 */
(PID.TID 0000.0001)                 2.042717761866506E+05,      /* J =  4 */
(PID.TID 0000.0001)                 2.216367828252819E+05,      /* J =  5 */
(PID.TID 0000.0001)                 2.363029564123586E+05,      /* J =  6 */
(PID.TID 0000.0001)                 2.489113743322025E+05,      /* J =  7 */
(PID.TID 0000.0001)                 2.598293319150326E+05,      /* J =  8 */
(PID.TID 0000.0001)                 2.692787333338535E+05,      /* J =  9 */
(PID.TID 0000.0001)                 2.773972106720365E+05,      /* J = 10 */
(PID.TID 0000.0001)                 2.842706922224557E+05,      /* J = 11 */
(PID.TID 0000.0001)                 2.899523122489403E+05,      /* J = 12 */
(PID.TID 0000.0001)                 2.944741346384699E+05,      /* J = 13 */
(PID.TID 0000.0001)                 2.978547649292580E+05,      /* J = 14 */
(PID.TID 0000.0001)                 3.001044073506459E+05,      /* J = 15 */
(PID.TID 0000.0001)                 3.012281885409289E+05       /* J = 16 */
(PID.TID 0000.0001)     ;
(PID.TID 0000.0001) dyC =  /* dyC(:,1,:,1) ( units: m ) */
(PID.TID 0000.0001)                 1.114203141013064E+05,      /* I =  1 */
(PID.TID 0000.0001)                 1.549545757850771E+05,      /* I =  2 */
(PID.TID 0000.0001)                 1.829777599966776E+05,      /* I =  3 */
(PID.TID 0000.0001)      . . .
(PID.TID 0000.0001)                 1.829777599966776E+05,      /* I = 94 */
(PID.TID 0000.0001)                 1.549545757850771E+05,      /* I = 95 */
(PID.TID 0000.0001)                 1.114203141013064E+05,      /* I = 96 */
(PID.TID 0000.0001)                 3.013593857228136E+05,      /* I = 97 */
(PID.TID 0000.0001)                 3.018056440786431E+05,      /* I = 98 */
(PID.TID 0000.0001)                 3.026789946729719E+05,      /* I = 99 */
(PID.TID 0000.0001)      . . .
(PID.TID 0000.0001)                 3.026789946729719E+05,      /* I =190 */
(PID.TID 0000.0001)                 3.018056440786431E+05,      /* I =191 */
(PID.TID 0000.0001)                 3.013593857228136E+05,      /* I =192 */
(PID.TID 0000.0001)                 1.114203141013064E+05,      /* I =193 */
(PID.TID 0000.0001)                 1.549545757850771E+05,      /* I =194 */
(PID.TID 0000.0001)                 1.829777599966776E+05,      /* I =195 */
(PID.TID 0000.0001)      . . .
(PID.TID 0000.0001)                 1.829777599966776E+05,      /* I =286 */
(PID.TID 0000.0001)                 1.549545757850771E+05,      /* I =287 */
(PID.TID 0000.0001)                 1.114203141013064E+05,      /* I =288 */
(PID.TID 0000.0001)                 3.013593857228136E+05,      /* I =289 */
(PID.TID 0000.0001)                 3.018056440786431E+05,      /* I =290 */
(PID.TID 0000.0001)                 3.026789946729719E+05,      /* I =291 */
(PID.TID 0000.0001)      . . .
(PID.TID 0000.0001)                 3.026789946729719E+05,      /* I =382 */
(PID.TID 0000.0001)                 3.018056440786431E+05,      /* I =383 */
(PID.TID 0000.0001)                 3.013593857228136E+05       /* I =384 */
(PID.TID 0000.0001)     ;
(PID.TID 0000.0001) dyC =  /* dyC(1,:,1,:) ( units: m ) */
(PID.TID 0000.0001)                 1.114203141013064E+05,      /* J =  1 */
(PID.TID 0000.0001)                 1.391343389937106E+05,      /* J =  2 */
(PID.TID 0000.0001)                 1.709574999026266E+05,      /* J =  3 */
(PID.TID 0000.0001)                 1.946503699269892E+05,      /* J =  4 */
(PID.TID 0000.0001)                 2.135964483342134E+05,      /* J =  5 */
(PID.TID 0000.0001)                 2.294195678257306E+05,      /* J =  6 */
(PID.TID 0000.0001)                 2.429464709770498E+05,      /* J =  7 */
(PID.TID 0000.0001)                 2.546408290696998E+05,      /* J =  8 */
(PID.TID 0000.0001)                 2.647791839299727E+05,      /* J =  9 */
(PID.TID 0000.0001)                 2.735321911346108E+05,      /* J = 10 */
(PID.TID 0000.0001)                 2.810065951609633E+05,      /* J = 11 */
(PID.TID 0000.0001)                 2.872689479506990E+05,      /* J = 12 */
(PID.TID 0000.0001)                 2.923599955312932E+05,      /* J = 13 */
(PID.TID 0000.0001)                 2.963038832565530E+05,      /* J = 14 */
(PID.TID 0000.0001)                 2.991142470004740E+05,      /* J = 15 */
(PID.TID 0000.0001)                 3.007982711627968E+05       /* J = 16 */
(PID.TID 0000.0001)     ;
(PID.TID 0000.0001) dxV =  /* dxV(:,1,:,1) ( units: m ) */
(PID.TID 0000.0001)                 8.015229982413632E+04,      /* I =  1 */
(PID.TID 0000.0001)                 1.333130744933864E+05,      /* I =  2 */
(PID.TID 0000.0001)                 1.691744868129062E+05,      /* I =  3 */
(PID.TID 0000.0001)      . . .
(PID.TID 0000.0001)                 1.937548202849060E+05,      /* I = 94 */
(PID.TID 0000.0001)                 1.691744868129062E+05,      /* I = 95 */
(PID.TID 0000.0001)                 1.333130744933864E+05,      /* I = 96 */
(PID.TID 0000.0001)                 3.013686170436881E+05,      /* I = 97 */
(PID.TID 0000.0001)                 3.015922136961168E+05,      /* I = 98 */
(PID.TID 0000.0001)                 3.022533948177109E+05,      /* I = 99 */
(PID.TID 0000.0001)      . . .
(PID.TID 0000.0001)                 3.033238888442880E+05,      /* I =190 */
(PID.TID 0000.0001)                 3.022533948177109E+05,      /* I =191 */
(PID.TID 0000.0001)                 3.015922136961168E+05,      /* I =192 */
(PID.TID 0000.0001)                 8.015229982413632E+04,      /* I =193 */
(PID.TID 0000.0001)                 1.333130744933864E+05,      /* I =194 */
(PID.TID 0000.0001)                 1.691744868129062E+05,      /* I =195 */
(PID.TID 0000.0001)      . . .
(PID.TID 0000.0001)                 1.937548202849060E+05,      /* I =286 */
(PID.TID 0000.0001)                 1.691744868129062E+05,      /* I =287 */
(PID.TID 0000.0001)                 1.333130744933864E+05,      /* I =288 */
(PID.TID 0000.0001)                 3.013686170436881E+05,      /* I =289 */
(PID.TID 0000.0001)                 3.015922136961168E+05,      /* I =290 */
(PID.TID 0000.0001)                 3.022533948177109E+05,      /* I =291 */
(PID.TID 0000.0001)      . . .
(PID.TID 0000.0001)                 3.033238888442880E+05,      /* I =382 */
(PID.TID 0000.0001)                 3.022533948177109E+05,      /* I =383 */
(PID.TID 0000.0001)                 3.015922136961168E+05       /* I =384 */
(PID.TID 0000.0001)     ;
(PID.TID 0000.0001) dxV =  /* dxV(1,:,1,:) ( units: m ) */
(PID.TID 0000.0001)                 8.015229982413632E+04,      /* J =  1 */
(PID.TID 0000.0001)                 1.362652340208229E+05,      /* J =  2 */
(PID.TID 0000.0001)                 1.701080315742101E+05,      /* J =  3 */
(PID.TID 0000.0001)                 1.942331448101592E+05,      /* J =  4 */
(PID.TID 0000.0001)                 2.133486626971531E+05,      /* J =  5 */
(PID.TID 0000.0001)                 2.292584591272880E+05,      /* J =  6 */
(PID.TID 0000.0001)                 2.428369969078989E+05,      /* J =  7 */
(PID.TID 0000.0001)                 2.545652950875683E+05,      /* J =  8 */
(PID.TID 0000.0001)                 2.647274964828301E+05,      /* J =  9 */
(PID.TID 0000.0001)                 2.734980225206389E+05,      /* J = 10 */
(PID.TID 0000.0001)                 2.809856491525217E+05,      /* J = 11 */
(PID.TID 0000.0001)                 2.872580915202295E+05,      /* J = 12 */
(PID.TID 0000.0001)                 2.923567890694162E+05,      /* J = 13 */
(PID.TID 0000.0001)                 2.963063101754721E+05,      /* J = 14 */
(PID.TID 0000.0001)                 2.991205495886625E+05,      /* J = 15 */
(PID.TID 0000.0001)                 3.008068453676764E+05       /* J = 16 */
(PID.TID 0000.0001)     ;
(PID.TID 0000.0001) dyU =  /* dyU(:,1,:,1) ( units: m ) */
(PID.TID 0000.0001)                 8.015229982413632E+04,      /* I =  1 */
(PID.TID 0000.0001)                 1.362652340208229E+05,      /* I =  2 */
(PID.TID 0000.0001)                 1.701080315742101E+05,      /* I =  3 */
(PID.TID 0000.0001)      . . .
(PID.TID 0000.0001)                 1.942331448101592E+05,      /* I = 94 */
(PID.TID 0000.0001)                 1.701080315742101E+05,      /* I = 95 */
(PID.TID 0000.0001)                 1.362652340208229E+05,      /* I = 96 */
(PID.TID 0000.0001)                 3.013031486919771E+05,      /* I = 97 */
(PID.TID 0000.0001)                 3.015274890091515E+05,      /* I = 98 */
(PID.TID 0000.0001)                 3.021908563699420E+05,      /* I = 99 */
(PID.TID 0000.0001)      . . .
(PID.TID 0000.0001)                 3.032648502024415E+05,      /* I =190 */
(PID.TID 0000.0001)                 3.021908563699420E+05,      /* I =191 */
(PID.TID 0000.0001)                 3.015274890091515E+05,      /* I =192 */
(PID.TID 0000.0001)                 8.015229982413632E+04,      /* I =193 */
(PID.TID 0000.0001)                 1.362652340208229E+05,      /* I =194 */
(PID.TID 0000.0001)                 1.701080315742101E+05,      /* I =195 */
(PID.TID 0000.0001)      . . .
(PID.TID 0000.0001)                 1.942331448101592E+05,      /* I =286 */
(PID.TID 0000.0001)                 1.701080315742101E+05,      /* I =287 */
(PID.TID 0000.0001)                 1.362652340208229E+05,      /* I =288 */
(PID.TID 0000.0001)                 3.013031486919771E+05,      /* I =289 */
(PID.TID 0000.0001)                 3.015274890091515E+05,      /* I =290 */
(PID.TID 0000.0001)                 3.021908563699420E+05,      /* I =291 */
(PID.TID 0000.0001)      . . .
(PID.TID 0000.0001)                 3.032648502024415E+05,      /* I =382 */
(PID.TID 0000.0001)                 3.021908563699420E+05,      /* I =383 */
(PID.TID 0000.0001)                 3.015274890091515E+05       /* I =384 */
(PID.TID 0000.0001)     ;
(PID.TID 0000.0001) dyU =  /* dyU(1,:,1,:) ( units: m ) */
(PID.TID 0000.0001)                 8.015229982413632E+04,      /* J =  1 */
(PID.TID 0000.0001)                 1.333130744933864E+05,      /* J =  2 */
(PID.TID 0000.0001)                 1.691744868129062E+05,      /* J =  3 */
(PID.TID 0000.0001)                 1.937548202849060E+05,      /* J =  4 */
(PID.TID 0000.0001)                 2.130490056267208E+05,      /* J =  5 */
(PID.TID 0000.0001)                 2.290479919481738E+05,      /* J =  6 */
(PID.TID 0000.0001)                 2.426774358027003E+05,      /* J =  7 */
(PID.TID 0000.0001)                 2.544372984215561E+05,      /* J =  8 */
(PID.TID 0000.0001)                 2.646201463834826E+05,      /* J =  9 */
(PID.TID 0000.0001)                 2.734046499619031E+05,      /* J = 10 */
(PID.TID 0000.0001)                 2.809019351693761E+05,      /* J = 11 */
(PID.TID 0000.0001)                 2.871811105274442E+05,      /* J = 12 */
(PID.TID 0000.0001)                 2.922844849381675E+05,      /* J = 13 */
(PID.TID 0000.0001)                 2.962371870847826E+05,      /* J = 14 */
(PID.TID 0000.0001)                 2.990534755671296E+05,      /* J = 15 */
(PID.TID 0000.0001)                 3.007409169495504E+05       /* J = 16 */
(PID.TID 0000.0001)     ;
(PID.TID 0000.0001) rA  =  /* rA (:,1,:,1) ( units: m^2 ) */
(PID.TID 0000.0001)                 1.401900702255611E+10,      /* I =  1 */
(PID.TID 0000.0001)                 2.459906945574446E+10,      /* I =  2 */
(PID.TID 0000.0001)                 3.378518544307869E+10,      /* I =  3 */
(PID.TID 0000.0001)      . . .
(PID.TID 0000.0001)                 3.378518544304265E+10,      /* I = 94 */
(PID.TID 0000.0001)                 2.459906945574446E+10,      /* I = 95 */
(PID.TID 0000.0001)                 1.401900702259215E+10,      /* I = 96 */
(PID.TID 0000.0001)                 9.076111290422060E+10,      /* I = 97 */
(PID.TID 0000.0001)                 9.103111035233499E+10,      /* I = 98 */
(PID.TID 0000.0001)                 9.156064070993231E+10,      /* I = 99 */
(PID.TID 0000.0001)      . . .
(PID.TID 0000.0001)                 9.156064070993231E+10,      /* I =190 */
(PID.TID 0000.0001)                 9.103111035233499E+10,      /* I =191 */
(PID.TID 0000.0001)                 9.076111290418457E+10,      /* I =192 */
(PID.TID 0000.0001)                 1.401900702255611E+10,      /* I =193 */
(PID.TID 0000.0001)                 2.459906945574446E+10,      /* I =194 */
(PID.TID 0000.0001)                 3.378518544307869E+10,      /* I =195 */
(PID.TID 0000.0001)      . . .
(PID.TID 0000.0001)                 3.378518544304265E+10,      /* I =286 */
(PID.TID 0000.0001)                 2.459906945574446E+10,      /* I =287 */
(PID.TID 0000.0001)                 1.401900702259215E+10,      /* I =288 */
(PID.TID 0000.0001)                 9.076111290422060E+10,      /* I =289 */
(PID.TID 0000.0001)                 9.103111035233499E+10,      /* I =290 */
(PID.TID 0000.0001)                 9.156064070993231E+10,      /* I =291 */
(PID.TID 0000.0001)      . . .
(PID.TID 0000.0001)                 9.156064070993231E+10,      /* I =382 */
(PID.TID 0000.0001)                 9.103111035233499E+10,      /* I =383 */
(PID.TID 0000.0001)                 9.076111290418457E+10       /* I =384 */
(PID.TID 0000.0001)     ;
(PID.TID 0000.0001) rA  =  /* rA (1,:,1,:) ( units: m^2 ) */
(PID.TID 0000.0001)                 1.401900702255611E+10,      /* J =  1 */
(PID.TID 0000.0001)                 2.459906945574446E+10,      /* J =  2 */
(PID.TID 0000.0001)                 3.378518544307869E+10,      /* J =  3 */
(PID.TID 0000.0001)                 4.192037169898667E+10,      /* J =  4 */
(PID.TID 0000.0001)                 4.925938996118163E+10,      /* J =  5 */
(PID.TID 0000.0001)                 5.594154126607553E+10,      /* J =  6 */
(PID.TID 0000.0001)                 6.203683527776127E+10,      /* J =  7 */
(PID.TID 0000.0001)                 6.757541173817516E+10,      /* J =  8 */
(PID.TID 0000.0001)                 7.256353271748119E+10,      /* J =  9 */
(PID.TID 0000.0001)                 7.699293007098555E+10,      /* J = 10 */
(PID.TID 0000.0001)                 8.084683449728902E+10,      /* J = 11 */
(PID.TID 0000.0001)                 8.410423102799828E+10,      /* J = 12 */
(PID.TID 0000.0001)                 8.674306976737517E+10,      /* J = 13 */
(PID.TID 0000.0001)                 8.874277443041928E+10,      /* J = 14 */
(PID.TID 0000.0001)                 9.008620045350865E+10,      /* J = 15 */
(PID.TID 0000.0001)                 9.076111290418457E+10       /* J = 16 */
(PID.TID 0000.0001)     ;
(PID.TID 0000.0001) rAw =  /* rAw(:,1,:,1) ( units: m^2 ) */
(PID.TID 0000.0001)                 1.216690346714270E+10,      /* I =  1 */
(PID.TID 0000.0001)                 1.974052138506315E+10,      /* I =  2 */
(PID.TID 0000.0001)                 2.943712825252015E+10,      /* I =  3 */
(PID.TID 0000.0001)      . . .
(PID.TID 0000.0001)                 3.801790263325260E+10,      /* I = 94 */
(PID.TID 0000.0001)                 2.943712825251114E+10,      /* I = 95 */
(PID.TID 0000.0001)                 1.974052138509018E+10,      /* I = 96 */
(PID.TID 0000.0001)                 9.071447638299399E+10,      /* I = 97 */
(PID.TID 0000.0001)                 9.085012105610597E+10,      /* I = 98 */
(PID.TID 0000.0001)                 9.125179254955583E+10,      /* I = 99 */
(PID.TID 0000.0001)      . . .
(PID.TID 0000.0001)                 9.190392048045309E+10,      /* I =190 */
(PID.TID 0000.0001)                 9.125179254954683E+10,      /* I =191 */
(PID.TID 0000.0001)                 9.085012105606993E+10,      /* I =192 */
(PID.TID 0000.0001)                 1.216690346714270E+10,      /* I =193 */
(PID.TID 0000.0001)                 1.974052138506315E+10,      /* I =194 */
(PID.TID 0000.0001)                 2.943712825252015E+10,      /* I =195 */
(PID.TID 0000.0001)      . . .
(PID.TID 0000.0001)                 3.801790263325260E+10,      /* I =286 */
(PID.TID 0000.0001)                 2.943712825251114E+10,      /* I =287 */
(PID.TID 0000.0001)                 1.974052138509018E+10,      /* I =288 */
(PID.TID 0000.0001)                 9.071447638299399E+10,      /* I =289 */
(PID.TID 0000.0001)                 9.085012105610597E+10,      /* I =290 */
(PID.TID 0000.0001)                 9.125179254955583E+10,      /* I =291 */
(PID.TID 0000.0001)      . . .
(PID.TID 0000.0001)                 9.190392048045309E+10,      /* I =382 */
(PID.TID 0000.0001)                 9.125179254954683E+10,      /* I =383 */
(PID.TID 0000.0001)                 9.085012105606993E+10       /* I =384 */
(PID.TID 0000.0001)     ;
(PID.TID 0000.0001) rAw =  /* rAw(1,:,1,:) ( units: m^2 ) */
(PID.TID 0000.0001)                 1.216690346714270E+10,      /* J =  1 */
(PID.TID 0000.0001)                 2.390126200743558E+10,      /* J =  2 */
(PID.TID 0000.0001)                 3.341968103208270E+10,      /* J =  3 */
(PID.TID 0000.0001)                 4.168532893152940E+10,      /* J =  4 */
(PID.TID 0000.0001)                 4.909074590409593E+10,      /* J =  5 */
(PID.TID 0000.0001)                 5.581203765722643E+10,      /* J =  6 */
(PID.TID 0000.0001)                 6.193257577506788E+10,      /* J =  7 */
(PID.TID 0000.0001)                 6.748840226738273E+10,      /* J =  8 */
(PID.TID 0000.0001)                 7.248875782324815E+10,      /* J =  9 */
(PID.TID 0000.0001)                 7.692702995909871E+10,      /* J = 10 */
(PID.TID 0000.0001)                 8.078743937057304E+10,      /* J = 11 */
(PID.TID 0000.0001)                 8.404959656062837E+10,      /* J = 12 */
(PID.TID 0000.0001)                 8.669186205742538E+10,      /* J = 13 */
(PID.TID 0000.0001)                 8.869393350723613E+10,      /* J = 14 */
(PID.TID 0000.0001)                 9.003884657168852E+10,      /* J = 15 */
(PID.TID 0000.0001)                 9.071447638299399E+10       /* J = 16 */
(PID.TID 0000.0001)     ;
(PID.TID 0000.0001) rAs =  /* rAs(:,1,:,1) ( units: m^2 ) */
(PID.TID 0000.0001)                 1.216690346714270E+10,      /* I =  1 */
(PID.TID 0000.0001)                 2.390126200743558E+10,      /* I =  2 */
(PID.TID 0000.0001)                 3.341968103208270E+10,      /* I =  3 */
(PID.TID 0000.0001)      . . .
(PID.TID 0000.0001)                 3.341968103208270E+10,      /* I = 94 */
(PID.TID 0000.0001)                 2.390126200743558E+10,      /* I = 95 */
(PID.TID 0000.0001)                 1.216690346714270E+10,      /* I = 96 */
(PID.TID 0000.0001)                 9.083293515008307E+10,      /* I = 97 */
(PID.TID 0000.0001)                 9.110170898494536E+10,      /* I = 98 */
(PID.TID 0000.0001)                 9.162886297688426E+10,      /* I = 99 */
(PID.TID 0000.0001)      . . .
(PID.TID 0000.0001)                 9.162886297688426E+10,      /* I =190 */
(PID.TID 0000.0001)                 9.110170898494536E+10,      /* I =191 */
(PID.TID 0000.0001)                 9.083293515008307E+10,      /* I =192 */
(PID.TID 0000.0001)                 1.216690346714270E+10,      /* I =193 */
(PID.TID 0000.0001)                 2.390126200743558E+10,      /* I =194 */
(PID.TID 0000.0001)                 3.341968103208270E+10,      /* I =195 */
(PID.TID 0000.0001)      . . .
(PID.TID 0000.0001)                 3.341968103208270E+10,      /* I =286 */
(PID.TID 0000.0001)                 2.390126200743558E+10,      /* I =287 */
(PID.TID 0000.0001)                 1.216690346714270E+10,      /* I =288 */
(PID.TID 0000.0001)                 9.083293515008307E+10,      /* I =289 */
(PID.TID 0000.0001)                 9.110170898494536E+10,      /* I =290 */
(PID.TID 0000.0001)                 9.162886297688426E+10,      /* I =291 */
(PID.TID 0000.0001)      . . .
(PID.TID 0000.0001)                 9.162886297688426E+10,      /* I =382 */
(PID.TID 0000.0001)                 9.110170898494536E+10,      /* I =383 */
(PID.TID 0000.0001)                 9.083293515008307E+10       /* I =384 */
(PID.TID 0000.0001)     ;
(PID.TID 0000.0001) rAs =  /* rAs(1,:,1,:) ( units: m^2 ) */
(PID.TID 0000.0001)                 1.216690346714270E+10,      /* J =  1 */
(PID.TID 0000.0001)                 1.974052138506315E+10,      /* J =  2 */
(PID.TID 0000.0001)                 2.943712825252015E+10,      /* J =  3 */
(PID.TID 0000.0001)                 3.801790263324359E+10,      /* J =  4 */
(PID.TID 0000.0001)                 4.571243814189866E+10,      /* J =  5 */
(PID.TID 0000.0001)                 5.269930713599979E+10,      /* J =  6 */
(PID.TID 0000.0001)                 5.907428494299063E+10,      /* J =  7 */
(PID.TID 0000.0001)                 6.488320895111514E+10,      /* J =  8 */
(PID.TID 0000.0001)                 7.014205907741882E+10,      /* J =  9 */
(PID.TID 0000.0001)                 7.484854821847499E+10,      /* J = 10 */
(PID.TID 0000.0001)                 7.898934631431560E+10,      /* J = 11 */
(PID.TID 0000.0001)                 8.254500894894537E+10,      /* J = 12 */
(PID.TID 0000.0001)                 8.549360686473492E+10,      /* J = 13 */
(PID.TID 0000.0001)                 8.781353403175085E+10,      /* J = 14 */
(PID.TID 0000.0001)                 8.948571540392021E+10,      /* J = 15 */
(PID.TID 0000.0001)                 9.049530583086168E+10       /* J = 16 */
(PID.TID 0000.0001)     ;
(PID.TID 0000.0001) globalArea = /* Integrated horizontal Area (m^2) */
(PID.TID 0000.0001)                 3.638867375081599E+14
(PID.TID 0000.0001)     ;
(PID.TID 0000.0001) hasWetCSCorners = /* Domain contains CS corners (True/False) */
(PID.TID 0000.0001)                   T
(PID.TID 0000.0001)     ;
(PID.TID 0000.0001) // =======================================================
(PID.TID 0000.0001) // End of Model config. summary
(PID.TID 0000.0001) // =======================================================
(PID.TID 0000.0001) 
(PID.TID 0000.0001) == Packages configuration : Check & print summary ==
(PID.TID 0000.0001) 
(PID.TID 0000.0001) GGL90_CHECK: #define ALLOW_GGL90
(PID.TID 0000.0001) GGL90_CHECK: Some form of convection has been enabled
(PID.TID 0000.0001) EXF_CHECK: #define ALLOW_EXF
(PID.TID 0000.0001) SEAICE_CHECK: #define ALLOW_SEAICE
(PID.TID 0000.0001) GAD_CHECK: #define ALLOW_GENERIC_ADVDIFF
(PID.TID 0000.0001) // =======================================================
(PID.TID 0000.0001) // Check Model config. (CONFIG_CHECK):
(PID.TID 0000.0001) // CONFIG_CHECK : Normal End
(PID.TID 0000.0001) // =======================================================
(PID.TID 0000.0001) 
(PID.TID 0000.0001)  MDS_READ_FIELD: opening global file: lev_T_cs_flip15.bin
(PID.TID 0000.0001)  MDS_READ_FIELD: opening global file: lev_S_cs_flip15.bin
(PID.TID 0000.0001) Start initial hydrostatic pressure computation
(PID.TID 0000.0001) Pressure is predetermined for buoyancyRelation OCEANICP
(PID.TID 0000.0001) 
(PID.TID 0000.0001)  write diagnostics summary to file ioUnit:      6
Iter.Nb:         0 ; Time(s):  0.0000000000000E+00
------------------------------------------------------------------------
2D/3D diagnostics: Number of lists:     4
------------------------------------------------------------------------
listId=    1 ; file name: surfDiag
 nFlds, nActive,       freq     &     phase        , nLev               
   11  |   11  |  15552000.000000         0.000000 |   1
 levels:   1
 diag# | name   |   ipt  |  iMate | kLev|   count |   mate.C|           
    23 |ETAN    |      1 |      0 |   1 |       0 |
    24 |ETANSQ  |      2 |      0 |   1 |       0 |
    25 |DETADT2 |      3 |      0 |   1 |       0 |
    73 |PHIBOT  |      4 |      0 |   1 |       0 |
    74 |PHIBOTSQ|      5 |      0 |   1 |       0 |
    81 |oceTAUX |      6 |      7 |   1 |       0 |       0 |
    82 |oceTAUY |      7 |      6 |   1 |       0 |       0 |
    87 |oceQnet |      8 |      0 |   1 |       0 |
    86 |oceSflux|      9 |      0 |   1 |       0 |
    85 |oceFWflx|     10 |      0 |   1 |       0 |
    78 |MXLDEPTH|     11 |      0 |   1 |       0 |
------------------------------------------------------------------------
listId=    2 ; file name: dynDiag
 nFlds, nActive,       freq     &     phase        , nLev               
   15  |   15  |  15552000.000000         0.000000 |  15
 levels:   1   2   3   4   5   6   7   8   9  10  11  12  13  14  15
 diag# | name   |   ipt  |  iMate | kLev|   count |   mate.C|           
    30 |UVEL    |     12 |     27 |  15 |       0 |       0 |
    31 |VVEL    |     27 |     12 |  15 |       0 |       0 |
    32 |WVEL    |     42 |      0 |  15 |       0 |
    71 |PHIHYD  |     57 |      0 |  15 |       0 |
    46 |VVELMASS|     72 |     87 |  15 |       0 |       0 |
    45 |UVELMASS|     87 |     72 |  15 |       0 |       0 |
    38 |WVELSQ  |    102 |      0 |  15 |       0 |
    26 |THETA   |    117 |      0 |  15 |       0 |
    50 |UTHMASS |    132 |    147 |  15 |       0 |       0 |
    51 |VTHMASS |    147 |    132 |  15 |       0 |       0 |
    52 |WTHMASS |    162 |      0 |  15 |       0 |
    27 |SALT    |    177 |      0 |  15 |       0 |
    53 |USLTMASS|    192 |    207 |  15 |       0 |       0 |
    54 |VSLTMASS|    207 |    192 |  15 |       0 |       0 |
    55 |WSLTMASS|    222 |      0 |  15 |       0 |
------------------------------------------------------------------------
listId=    3 ; file name: oceDiag
 nFlds, nActive,       freq     &     phase        , nLev               
    7  |    7  |  15552000.000000         0.000000 |  15
 levels:   1   2   3   4   5   6   7   8   9  10  11  12  13  14  15
 diag# | name   |   ipt  |  iMate | kLev|   count |   mate.C|           
    79 |DRHODR  |    237 |      0 |  15 |       0 |
    64 |RHOAnoma|    252 |      0 |  15 |       0 |
   221 |GGL90TKE|    267 |      0 |  15 |       0 |
   226 |GGL90Kr |    282 |      0 |  15 |       0 |
   222 |GGL90Lmx|    297 |      0 |  15 |       0 |
   229 |IDEMIX_E|    312 |      0 |  15 |       0 |
   233 |IDEMIX_K|    327 |      0 |  15 |       0 |
------------------------------------------------------------------------
listId=    4 ; file name: seaiceDiag
 nFlds, nActive,       freq     &     phase        , nLev               
    5  |    5  |  15552000.000000         0.000000 |   1
 levels:   1
 diag# | name   |   ipt  |  iMate | kLev|   count |   mate.C|           
   241 |SIheff  |    342 |      0 |   1 |       0 |
   238 |SIarea  |    343 |      0 |   1 |       0 |
   243 |SIhsnow |    344 |      0 |   1 |       0 |
   255 |SIuice  |    345 |    346 |   1 |       0 |       0 |
   256 |SIvice  |    346 |    345 |   1 |       0 |       0 |
------------------------------------------------------------------------
Global & Regional Statistics diagnostics: Number of lists:     2
------------------------------------------------------------------------
listId=   1 ; file name: dynStDiag
 nFlds, nActive,       freq     &     phase        |                    
    8  |    8  |    864000.000000         0.000000 |
 Regions:   0
 diag# | name   |   ipt  |  iMate |    Volume   |   mate-Vol. |         
    23 |ETAN    |      1 |      0 | 0.00000E+00 |
    30 |UVEL    |      2 |      0 | 0.00000E+00 |
    31 |VVEL    |     17 |      0 | 0.00000E+00 |
    32 |WVEL    |     32 |      0 | 0.00000E+00 |
    26 |THETA   |     47 |      0 | 0.00000E+00 |
    27 |SALT    |     62 |      0 | 0.00000E+00 |
    80 |CONVADJ |     77 |      0 | 0.00000E+00 |
    25 |DETADT2 |     92 |      0 | 0.00000E+00 |
------------------------------------------------------------------------
listId=   2 ; file name: seaiceStDiag
 nFlds, nActive,       freq     &     phase        |                    
    5  |    5  |    864000.000000         0.000000 |
 Regions:   0  1  3
 diag# | name   |   ipt  |  iMate |    Volume   |   mate-Vol. |         
   241 |SIheff  |     93 |      0 | 0.00000E+00 |
   238 |SIarea  |     94 |      0 | 0.00000E+00 |
   243 |SIhsnow |     95 |      0 | 0.00000E+00 |
   255 |SIuice  |     96 |      0 | 0.00000E+00 |
   256 |SIvice  |     97 |      0 | 0.00000E+00 |
------------------------------------------------------------------------
(PID.TID 0000.0001)  MDS_READ_FIELD: opening global file: idemix_tidal_forcing.192x32.bin
(PID.TID 0000.0001)  MDS_READ_FIELD: opening global file: idemix_wind_forcing.192x32.bin
(PID.TID 0000.0001) // =======================================================
(PID.TID 0000.0001) // Model current state
(PID.TID 0000.0001) // =======================================================
(PID.TID 0000.0001) 
(PID.TID 0000.0001) // =======================================================
(PID.TID 0000.0001) // Begin MONITOR dynamic field statistics
(PID.TID 0000.0001) // =======================================================
(PID.TID 0000.0001) %MON time_tsnumber                =                     0
(PID.TID 0000.0001) %MON time_secondsf                =   0.0000000000000E+00
(PID.TID 0000.0001) %MON dynstat_eta_max              =   0.0000000000000E+00
(PID.TID 0000.0001) %MON dynstat_eta_min              =   0.0000000000000E+00
(PID.TID 0000.0001) %MON dynstat_eta_mean             =   0.0000000000000E+00
(PID.TID 0000.0001) %MON dynstat_eta_sd               =   0.0000000000000E+00
(PID.TID 0000.0001) %MON dynstat_eta_del2             =   0.0000000000000E+00
(PID.TID 0000.0001) %MON dynstat_uvel_max             =   0.0000000000000E+00
(PID.TID 0000.0001) %MON dynstat_uvel_min             =   0.0000000000000E+00
(PID.TID 0000.0001) %MON dynstat_uvel_mean            =   0.0000000000000E+00
(PID.TID 0000.0001) %MON dynstat_uvel_sd              =   0.0000000000000E+00
(PID.TID 0000.0001) %MON dynstat_uvel_del2            =   0.0000000000000E+00
(PID.TID 0000.0001) %MON dynstat_vvel_max             =   0.0000000000000E+00
(PID.TID 0000.0001) %MON dynstat_vvel_min             =   0.0000000000000E+00
(PID.TID 0000.0001) %MON dynstat_vvel_mean            =   0.0000000000000E+00
(PID.TID 0000.0001) %MON dynstat_vvel_sd              =   0.0000000000000E+00
(PID.TID 0000.0001) %MON dynstat_vvel_del2            =   0.0000000000000E+00
(PID.TID 0000.0001) %MON dynstat_wvel_max             =   0.0000000000000E+00
(PID.TID 0000.0001) %MON dynstat_wvel_min             =   0.0000000000000E+00
(PID.TID 0000.0001) %MON dynstat_wvel_mean            =   0.0000000000000E+00
(PID.TID 0000.0001) %MON dynstat_wvel_sd              =   0.0000000000000E+00
(PID.TID 0000.0001) %MON dynstat_wvel_del2            =   0.0000000000000E+00
(PID.TID 0000.0001) %MON dynstat_theta_max            =   2.9382676376985E+01
(PID.TID 0000.0001) %MON dynstat_theta_min            =  -1.8552983134796E+00
(PID.TID 0000.0001) %MON dynstat_theta_mean           =   3.5911800119018E+00
(PID.TID 0000.0001) %MON dynstat_theta_sd             =   4.4266930247071E+00
(PID.TID 0000.0001) %MON dynstat_theta_del2           =   2.1326598561892E-03
(PID.TID 0000.0001) %MON dynstat_salt_max             =   4.0715748807407E+01
(PID.TID 0000.0001) %MON dynstat_salt_min             =   1.8144841495627E+01
(PID.TID 0000.0001) %MON dynstat_salt_mean            =   3.4721450909937E+01
(PID.TID 0000.0001) %MON dynstat_salt_sd              =   4.8791814713556E-01
(PID.TID 0000.0001) %MON dynstat_salt_del2            =   5.1558447735922E-04
(PID.TID 0000.0001) %MON forcing_qnet_max             =   0.0000000000000E+00
(PID.TID 0000.0001) %MON forcing_qnet_min             =   0.0000000000000E+00
(PID.TID 0000.0001) %MON forcing_qnet_mean            =   0.0000000000000E+00
(PID.TID 0000.0001) %MON forcing_qnet_sd              =   0.0000000000000E+00
(PID.TID 0000.0001) %MON forcing_qnet_del2            =   0.0000000000000E+00
(PID.TID 0000.0001) %MON forcing_qsw_max              =   0.0000000000000E+00
(PID.TID 0000.0001) %MON forcing_qsw_min              =   0.0000000000000E+00
(PID.TID 0000.0001) %MON forcing_qsw_mean             =   0.0000000000000E+00
(PID.TID 0000.0001) %MON forcing_qsw_sd               =   0.0000000000000E+00
(PID.TID 0000.0001) %MON forcing_qsw_del2             =   0.0000000000000E+00
(PID.TID 0000.0001) %MON forcing_empmr_max            =   0.0000000000000E+00
(PID.TID 0000.0001) %MON forcing_empmr_min            =   0.0000000000000E+00
(PID.TID 0000.0001) %MON forcing_empmr_mean           =   0.0000000000000E+00
(PID.TID 0000.0001) %MON forcing_empmr_sd             =   0.0000000000000E+00
(PID.TID 0000.0001) %MON forcing_empmr_del2           =   0.0000000000000E+00
(PID.TID 0000.0001) %MON forcing_fu_max               =   0.0000000000000E+00
(PID.TID 0000.0001) %MON forcing_fu_min               =   0.0000000000000E+00
(PID.TID 0000.0001) %MON forcing_fu_mean              =   0.0000000000000E+00
(PID.TID 0000.0001) %MON forcing_fu_sd                =   0.0000000000000E+00
(PID.TID 0000.0001) %MON forcing_fu_del2              =   0.0000000000000E+00
(PID.TID 0000.0001) %MON forcing_fv_max               =   0.0000000000000E+00
(PID.TID 0000.0001) %MON forcing_fv_min               =   0.0000000000000E+00
(PID.TID 0000.0001) %MON forcing_fv_mean              =   0.0000000000000E+00
(PID.TID 0000.0001) %MON forcing_fv_sd                =   0.0000000000000E+00
(PID.TID 0000.0001) %MON forcing_fv_del2              =   0.0000000000000E+00
(PID.TID 0000.0001) %MON trAdv_CFL_u_max              =   0.0000000000000E+00
(PID.TID 0000.0001) %MON trAdv_CFL_v_max              =   0.0000000000000E+00
(PID.TID 0000.0001) %MON trAdv_CFL_w_max              =   0.0000000000000E+00
(PID.TID 0000.0001) %MON advcfl_uvel_max              =   0.0000000000000E+00
(PID.TID 0000.0001) %MON advcfl_vvel_max              =   0.0000000000000E+00
(PID.TID 0000.0001) %MON advcfl_wvel_max              =   0.0000000000000E+00
(PID.TID 0000.0001) %MON advcfl_W_hf_max              =   0.0000000000000E+00
(PID.TID 0000.0001) %MON pe_b_mean                    =   0.0000000000000E+00
(PID.TID 0000.0001) %MON ke_max                       =   0.0000000000000E+00
(PID.TID 0000.0001) %MON ke_mean                      =   0.0000000000000E+00
(PID.TID 0000.0001) %MON ke_vol                       =   1.3604176684230E+22
(PID.TID 0000.0001) %MON vort_r_min                   =   0.0000000000000E+00
(PID.TID 0000.0001) %MON vort_r_max                   =   0.0000000000000E+00
(PID.TID 0000.0001) %MON vort_a_mean                  =  -2.0556865257795E-05
(PID.TID 0000.0001) %MON vort_a_sd                    =   7.5247403105505E-05
(PID.TID 0000.0001) %MON vort_p_mean                  =  -2.4859393568698E-05
(PID.TID 0000.0001) %MON vort_p_sd                    =   1.2918978855221E-04
(PID.TID 0000.0001) %MON surfExpan_theta_mean         =   0.0000000000000E+00
(PID.TID 0000.0001) %MON surfExpan_salt_mean          =   0.0000000000000E+00
(PID.TID 0000.0001) // =======================================================
(PID.TID 0000.0001) // End MONITOR dynamic field statistics
(PID.TID 0000.0001) // =======================================================
(PID.TID 0000.0001) // =======================================================
(PID.TID 0000.0001) // Begin MONITOR SEAICE statistics
(PID.TID 0000.0001) // =======================================================
(PID.TID 0000.0001) %MON seaice_tsnumber              =                     0
(PID.TID 0000.0001) %MON seaice_time_sec              =   0.0000000000000E+00
(PID.TID 0000.0001) %MON seaice_uice_max              =   0.0000000000000E+00
(PID.TID 0000.0001) %MON seaice_uice_min              =   0.0000000000000E+00
(PID.TID 0000.0001) %MON seaice_uice_mean             =   0.0000000000000E+00
(PID.TID 0000.0001) %MON seaice_uice_sd               =   0.0000000000000E+00
(PID.TID 0000.0001) %MON seaice_uice_del2             =   0.0000000000000E+00
(PID.TID 0000.0001) %MON seaice_vice_max              =   0.0000000000000E+00
(PID.TID 0000.0001) %MON seaice_vice_min              =   0.0000000000000E+00
(PID.TID 0000.0001) %MON seaice_vice_mean             =   0.0000000000000E+00
(PID.TID 0000.0001) %MON seaice_vice_sd               =   0.0000000000000E+00
(PID.TID 0000.0001) %MON seaice_vice_del2             =   0.0000000000000E+00
(PID.TID 0000.0001) %MON seaice_area_max              =   0.0000000000000E+00
(PID.TID 0000.0001) %MON seaice_area_min              =   0.0000000000000E+00
(PID.TID 0000.0001) %MON seaice_area_mean             =   0.0000000000000E+00
(PID.TID 0000.0001) %MON seaice_area_sd               =   0.0000000000000E+00
(PID.TID 0000.0001) %MON seaice_area_del2             =   0.0000000000000E+00
(PID.TID 0000.0001) %MON seaice_heff_max              =   0.0000000000000E+00
(PID.TID 0000.0001) %MON seaice_heff_min              =   0.0000000000000E+00
(PID.TID 0000.0001) %MON seaice_heff_mean             =   0.0000000000000E+00
(PID.TID 0000.0001) %MON seaice_heff_sd               =   0.0000000000000E+00
(PID.TID 0000.0001) %MON seaice_heff_del2             =   0.0000000000000E+00
(PID.TID 0000.0001) %MON seaice_hsnow_max             =   0.0000000000000E+00
(PID.TID 0000.0001) %MON seaice_hsnow_min             =   0.0000000000000E+00
(PID.TID 0000.0001) %MON seaice_hsnow_mean            =   0.0000000000000E+00
(PID.TID 0000.0001) %MON seaice_hsnow_sd              =   0.0000000000000E+00
(PID.TID 0000.0001) %MON seaice_hsnow_del2            =   0.0000000000000E+00
(PID.TID 0000.0001) // =======================================================
(PID.TID 0000.0001) // End MONITOR SEAICE statistics
(PID.TID 0000.0001) // =======================================================
(PID.TID 0000.0001)  MDS_READ_FIELD: opening global file: lev_surfT_cs_12m.bin
(PID.TID 0000.0001)  MDS_READ_FIELD: opening global file: lev_surfT_cs_12m.bin
(PID.TID 0000.0001)  MDS_READ_FIELD: opening global file: lev_surfS_cs_12m.bin
(PID.TID 0000.0001)  MDS_READ_FIELD: opening global file: lev_surfS_cs_12m.bin
(PID.TID 0000.0001)  MDS_READ_FIELD: opening global file: trenberth_taux.bin
(PID.TID 0000.0001)  MDS_READ_FIELD: opening global file: trenberth_taux.bin
(PID.TID 0000.0001)  MDS_READ_FIELD: opening global file: trenberth_tauy.bin
(PID.TID 0000.0001)  MDS_READ_FIELD: opening global file: trenberth_tauy.bin
(PID.TID 0000.0001)  MDS_READ_FIELD: opening global file: core_wndSpd_cs32.bin
(PID.TID 0000.0001)  MDS_READ_FIELD: opening global file: core_wndSpd_cs32.bin
(PID.TID 0000.0001)  MDS_READ_FIELD: opening global file: core_t_Air_cs32.bin
(PID.TID 0000.0001)  MDS_READ_FIELD: opening global file: core_t_Air_cs32.bin
(PID.TID 0000.0001)  MDS_READ_FIELD: opening global file: core_q_air_cs32.bin
(PID.TID 0000.0001)  MDS_READ_FIELD: opening global file: core_q_air_cs32.bin
(PID.TID 0000.0001)  MDS_READ_FIELD: opening global file: core_prec_1_cs32.bin
(PID.TID 0000.0001)  MDS_READ_FIELD: opening global file: core_prec_1_cs32.bin
(PID.TID 0000.0001)  MDS_READ_FIELD: opening global file: core_dwnSw_cs32.bin
(PID.TID 0000.0001)  MDS_READ_FIELD: opening global file: core_dwnSw_cs32.bin
(PID.TID 0000.0001)  MDS_READ_FIELD: opening global file: core_dwnLw_cs32.bin
(PID.TID 0000.0001)  MDS_READ_FIELD: opening global file: core_dwnLw_cs32.bin
(PID.TID 0000.0001)  MDS_READ_FIELD: opening global file: core_rnof_1_cs32.bin
(PID.TID 0000.0001)  MDS_READ_FIELD: opening global file: core_rnof_1_cs32.bin
(PID.TID 0000.0001)  MDS_READ_FIELD: opening global file: runoff_temperature.bin
(PID.TID 0000.0001)  MDS_READ_FIELD: opening global file: runoff_temperature.bin
 EXTERNAL_FIELDS_LOAD,         0 : iP,iLd,i0,i1=   12    0   12    1 ; Wght=  0.5000000000  0.5000000000
 EXTERNAL_FIELDS_LOAD, it=         0 : Reading new data, i0,i1=   12    1 (prev=   12    0 )
 SEAICE_LSR: Residual Initial ipass,Uice,Vice=         1  0.00000000E+00  0.00000000E+00
 SEAICE_LSR (ipass=        1) iters,dU,Resid=        2  0.00000000E+00  0.00000000E+00
 SEAICE_LSR (ipass=        1) iters,dV,Resid=        2  0.00000000E+00  0.00000000E+00
 SEAICE_LSR: Residual Initial ipass,Uice,Vice=         2  0.00000000E+00  0.00000000E+00
 SEAICE_LSR (ipass=        2) iters,dU,Resid=        2  0.00000000E+00  0.00000000E+00
 SEAICE_LSR (ipass=        2) iters,dV,Resid=        2  0.00000000E+00  0.00000000E+00
(PID.TID 0000.0001) SOLVE_FOR_PRESSURE: putPmEinXvector =    F
(PID.TID 0000.0001) SOLVE_FOR_PRESSURE: zeroPsNH=    F , zeroMeanPnh=    F
(PID.TID 0000.0001) SOLVE_FOR_PRESSURE: oldFreeSurfTerm =    F
 cg2d: Sum(rhs),rhsMax =   2.40902101320783E-02  1.98075169506440E+01
(PID.TID 0000.0001)      cg2d_init_res =   1.27331263107027E+01
(PID.TID 0000.0001)      cg2d_iters(min,last) =      -1     113
(PID.TID 0000.0001)      cg2d_last_res =   8.72836190973425E-10
(PID.TID 0000.0001) // =======================================================
(PID.TID 0000.0001) // Begin MONITOR dynamic field statistics
(PID.TID 0000.0001) // =======================================================
(PID.TID 0000.0001) %MON time_tsnumber                =                     1
(PID.TID 0000.0001) %MON time_secondsf                =   8.6400000000000E+04
(PID.TID 0000.0001) %MON dynstat_eta_max              =   1.2901672457760E+04
(PID.TID 0000.0001) %MON dynstat_eta_min              =  -1.5798236358398E+04
(PID.TID 0000.0001) %MON dynstat_eta_mean             =  -7.2059480121691E+00
(PID.TID 0000.0001) %MON dynstat_eta_sd               =   4.5633951462537E+03
(PID.TID 0000.0001) %MON dynstat_eta_del2             =   9.3109699725971E+01
(PID.TID 0000.0001) %MON dynstat_uvel_max             =   2.0853585897640E-02
(PID.TID 0000.0001) %MON dynstat_uvel_min             =  -2.2891733236537E-02
(PID.TID 0000.0001) %MON dynstat_uvel_mean            =  -1.4360005496833E-04
(PID.TID 0000.0001) %MON dynstat_uvel_sd              =   1.4965613203997E-03
(PID.TID 0000.0001) %MON dynstat_uvel_del2            =   7.4901818250469E-06
(PID.TID 0000.0001) %MON dynstat_vvel_max             =   5.4246966594017E-02
(PID.TID 0000.0001) %MON dynstat_vvel_min             =  -2.8660961010661E-02
(PID.TID 0000.0001) %MON dynstat_vvel_mean            =  -2.5353611273866E-05
(PID.TID 0000.0001) %MON dynstat_vvel_sd              =   1.5659498561962E-03
(PID.TID 0000.0001) %MON dynstat_vvel_del2            =   7.6408656122288E-06
(PID.TID 0000.0001) %MON dynstat_wvel_max             =   9.5462858742907E-01
(PID.TID 0000.0001) %MON dynstat_wvel_min             =  -1.4950399588324E+00
(PID.TID 0000.0001) %MON dynstat_wvel_mean            =   6.4640821699145E-03
(PID.TID 0000.0001) %MON dynstat_wvel_sd              =   5.1233542361601E-02
(PID.TID 0000.0001) %MON dynstat_wvel_del2            =   4.5450690937922E-04
(PID.TID 0000.0001) %MON dynstat_theta_max            =   2.9392258707438E+01
(PID.TID 0000.0001) %MON dynstat_theta_min            =  -1.8746172822182E+00
(PID.TID 0000.0001) %MON dynstat_theta_mean           =   3.5913319085253E+00
(PID.TID 0000.0001) %MON dynstat_theta_sd             =   4.4271594928451E+00
(PID.TID 0000.0001) %MON dynstat_theta_del2           =   2.1216005952818E-03
(PID.TID 0000.0001) %MON dynstat_salt_max             =   4.0715769173144E+01
(PID.TID 0000.0001) %MON dynstat_salt_min             =   1.8145258136301E+01
(PID.TID 0000.0001) %MON dynstat_salt_mean            =   3.4721452713784E+01
(PID.TID 0000.0001) %MON dynstat_salt_sd              =   4.8788469045542E-01
(PID.TID 0000.0001) %MON dynstat_salt_del2            =   5.1443829694395E-04
(PID.TID 0000.0001) %MON forcing_qnet_max             =   7.0424222788353E+02
(PID.TID 0000.0001) %MON forcing_qnet_min             =  -3.1743723293440E+02
(PID.TID 0000.0001) %MON forcing_qnet_mean            =  -1.7570280413964E+01
(PID.TID 0000.0001) %MON forcing_qnet_sd              =   1.7957974598532E+02
(PID.TID 0000.0001) %MON forcing_qnet_del2            =   8.7430894674797E-01
(PID.TID 0000.0001) %MON forcing_qsw_max              =   0.0000000000000E+00
(PID.TID 0000.0001) %MON forcing_qsw_min              =  -3.0191527312954E+02
(PID.TID 0000.0001) %MON forcing_qsw_mean             =  -1.8592646878981E+02
(PID.TID 0000.0001) %MON forcing_qsw_sd               =   7.9310439395766E+01
(PID.TID 0000.0001) %MON forcing_qsw_del2             =   1.1059481284686E-01
(PID.TID 0000.0001) %MON forcing_empmr_max            =   1.8215597518815E-03
(PID.TID 0000.0001) %MON forcing_empmr_min            =  -4.4477534522268E-04
(PID.TID 0000.0001) %MON forcing_empmr_mean           =   8.5017508732690E-06
(PID.TID 0000.0001) %MON forcing_empmr_sd             =   1.2281400833802E-04
(PID.TID 0000.0001) %MON forcing_empmr_del2           =   1.9095911852975E-06
(PID.TID 0000.0001) %MON forcing_fu_max               =   2.4760613571392E-01
(PID.TID 0000.0001) %MON forcing_fu_min               =  -2.0293190974520E-01
(PID.TID 0000.0001) %MON forcing_fu_mean              =  -4.5478806648627E-03
(PID.TID 0000.0001) %MON forcing_fu_sd                =   6.3937396831278E-02
(PID.TID 0000.0001) %MON forcing_fu_del2              =   2.0509729664672E-04
(PID.TID 0000.0001) %MON forcing_fv_max               =   2.5281098043587E-01
(PID.TID 0000.0001) %MON forcing_fv_min               =  -3.2691992401999E-01
(PID.TID 0000.0001) %MON forcing_fv_mean              =  -1.3684501518858E-02
(PID.TID 0000.0001) %MON forcing_fv_sd                =   7.5153512230531E-02
(PID.TID 0000.0001) %MON forcing_fv_del2              =   2.3373863441584E-04
(PID.TID 0000.0001) %MON trAdv_CFL_u_max              =   9.3906206996154E-03
(PID.TID 0000.0001) %MON trAdv_CFL_v_max              =   1.8371368978848E-02
(PID.TID 0000.0001) %MON trAdv_CFL_w_max              =   3.8688064937700E-02
(PID.TID 0000.0001) %MON advcfl_uvel_max              =   6.7030426005251E-03
(PID.TID 0000.0001) %MON advcfl_vvel_max              =   1.7701308101934E-02
(PID.TID 0000.0001) %MON advcfl_wvel_max              =   4.2364454873478E-02
(PID.TID 0000.0001) %MON advcfl_W_hf_max              =   4.6812921150029E-02
(PID.TID 0000.0001) %MON pe_b_mean                    =   9.0238727205550E-03
(PID.TID 0000.0001) %MON ke_max                       =   7.8068549276287E-04
(PID.TID 0000.0001) %MON ke_mean                      =   2.1763151900459E-06
(PID.TID 0000.0001) %MON ke_vol                       =   1.3604176684230E+22
(PID.TID 0000.0001) %MON vort_r_min                   =  -2.1675335223371E-07
(PID.TID 0000.0001) %MON vort_r_max                   =   2.6920810771400E-07
(PID.TID 0000.0001) %MON vort_a_mean                  =  -2.0556865257795E-05
(PID.TID 0000.0001) %MON vort_a_sd                    =   7.5247378156126E-05
(PID.TID 0000.0001) %MON vort_p_mean                  =  -2.4859393568698E-05
(PID.TID 0000.0001) %MON vort_p_sd                    =   1.2919002127129E-04
(PID.TID 0000.0001) %MON surfExpan_theta_mean         =  -2.2359492152246E-02
(PID.TID 0000.0001) %MON surfExpan_salt_mean          =  -1.1897896597607E-03
(PID.TID 0000.0001) // =======================================================
(PID.TID 0000.0001) // End MONITOR dynamic field statistics
(PID.TID 0000.0001) // =======================================================
(PID.TID 0000.0001) // =======================================================
(PID.TID 0000.0001) // Begin MONITOR SEAICE statistics
(PID.TID 0000.0001) // =======================================================
(PID.TID 0000.0001) %MON seaice_tsnumber              =                     1
(PID.TID 0000.0001) %MON seaice_time_sec              =   8.6400000000000E+04
(PID.TID 0000.0001) %MON seaice_uice_max              =   0.0000000000000E+00
(PID.TID 0000.0001) %MON seaice_uice_min              =   0.0000000000000E+00
(PID.TID 0000.0001) %MON seaice_uice_mean             =   0.0000000000000E+00
(PID.TID 0000.0001) %MON seaice_uice_sd               =   0.0000000000000E+00
(PID.TID 0000.0001) %MON seaice_uice_del2             =   0.0000000000000E+00
(PID.TID 0000.0001) %MON seaice_vice_max              =   0.0000000000000E+00
(PID.TID 0000.0001) %MON seaice_vice_min              =   0.0000000000000E+00
(PID.TID 0000.0001) %MON seaice_vice_mean             =   0.0000000000000E+00
(PID.TID 0000.0001) %MON seaice_vice_sd               =   0.0000000000000E+00
(PID.TID 0000.0001) %MON seaice_vice_del2             =   0.0000000000000E+00
(PID.TID 0000.0001) %MON seaice_area_max              =   3.1578163613620E-01
(PID.TID 0000.0001) %MON seaice_area_min              =   0.0000000000000E+00
(PID.TID 0000.0001) %MON seaice_area_mean             =   1.9600270427066E-03
(PID.TID 0000.0001) %MON seaice_area_sd               =   2.1485287083213E-02
(PID.TID 0000.0001) %MON seaice_area_del2             =   3.4583141125718E-04
(PID.TID 0000.0001) %MON seaice_heff_max              =   1.6998541309828E-01
(PID.TID 0000.0001) %MON seaice_heff_min              =   0.0000000000000E+00
(PID.TID 0000.0001) %MON seaice_heff_mean             =   9.9023375352513E-04
(PID.TID 0000.0001) %MON seaice_heff_sd               =   1.0892159851178E-02
(PID.TID 0000.0001) %MON seaice_heff_del2             =   1.7931006932907E-04
(PID.TID 0000.0001) %MON seaice_hsnow_max             =   0.0000000000000E+00
(PID.TID 0000.0001) %MON seaice_hsnow_min             =   0.0000000000000E+00
(PID.TID 0000.0001) %MON seaice_hsnow_mean            =   0.0000000000000E+00
(PID.TID 0000.0001) %MON seaice_hsnow_sd              =   0.0000000000000E+00
(PID.TID 0000.0001) %MON seaice_hsnow_del2            =   0.0000000000000E+00
(PID.TID 0000.0001) // =======================================================
(PID.TID 0000.0001) // End MONITOR SEAICE statistics
(PID.TID 0000.0001) // =======================================================
 EXTERNAL_FIELDS_LOAD,         1 : iP,iLd,i0,i1=   12    1   12    1 ; Wght=  0.4666666667  0.5333333333
 SEAICE_LSR: Residual Initial ipass,Uice,Vice=         1  5.13965687E-04  9.82437180E-04
 SEAICE_LSR (ipass=        1) iters,dU,Resid=       12  4.18221013E-13  1.53562150E-19
 SEAICE_LSR (ipass=        1) iters,dV,Resid=       12  2.81830115E-13  3.26659469E-19
 SEAICE_LSR: Residual Initial ipass,Uice,Vice=         2  2.91320932E-04  5.24466148E-04
 SEAICE_LSR (ipass=        2) iters,dU,Resid=       12  6.06459327E-14  9.69157167E-20
 SEAICE_LSR (ipass=        2) iters,dV,Resid=       12  4.21190860E-14  1.94946727E-19
 cg2d: Sum(rhs),rhsMax =   7.66661733960343E-02  2.00457239865341E+01
(PID.TID 0000.0001)      cg2d_init_res =   4.84221893084459E-01
(PID.TID 0000.0001)      cg2d_iters(min,last) =      -1     109
(PID.TID 0000.0001)      cg2d_last_res =   8.82011137744516E-10
(PID.TID 0000.0001) // =======================================================
(PID.TID 0000.0001) // Begin MONITOR dynamic field statistics
(PID.TID 0000.0001) // =======================================================
(PID.TID 0000.0001) %MON time_tsnumber                =                     2
(PID.TID 0000.0001) %MON time_secondsf                =   1.7280000000000E+05
(PID.TID 0000.0001) %MON dynstat_eta_max              =   1.4036965268694E+04
(PID.TID 0000.0001) %MON dynstat_eta_min              =  -2.1104916361533E+04
(PID.TID 0000.0001) %MON dynstat_eta_mean             =  -2.3208444477513E+01
(PID.TID 0000.0001) %MON dynstat_eta_sd               =   6.2877655143526E+03
(PID.TID 0000.0001) %MON dynstat_eta_del2             =   9.5570817522074E+01
(PID.TID 0000.0001) %MON dynstat_uvel_max             =   3.8335540667596E-02
(PID.TID 0000.0001) %MON dynstat_uvel_min             =  -4.4651029013022E-02
(PID.TID 0000.0001) %MON dynstat_uvel_mean            =  -3.3193706828569E-04
(PID.TID 0000.0001) %MON dynstat_uvel_sd              =   2.3396750766942E-03
(PID.TID 0000.0001) %MON dynstat_uvel_del2            =   1.2333597813108E-05
(PID.TID 0000.0001) %MON dynstat_vvel_max             =   7.3366327759110E-02
(PID.TID 0000.0001) %MON dynstat_vvel_min             =  -5.6465928266595E-02
(PID.TID 0000.0001) %MON dynstat_vvel_mean            =  -6.8051627586838E-05
(PID.TID 0000.0001) %MON dynstat_vvel_sd              =   2.4521930392512E-03
(PID.TID 0000.0001) %MON dynstat_vvel_del2            =   1.2959564550908E-05
(PID.TID 0000.0001) %MON dynstat_wvel_max             =   1.8519218962490E+00
(PID.TID 0000.0001) %MON dynstat_wvel_min             =  -2.9433404939188E+00
(PID.TID 0000.0001) %MON dynstat_wvel_mean            =   2.4537896047355E-03
(PID.TID 0000.0001) %MON dynstat_wvel_sd              =   8.9180465244966E-02
(PID.TID 0000.0001) %MON dynstat_wvel_del2            =   7.6787871356582E-04
(PID.TID 0000.0001) %MON dynstat_theta_max            =   2.9400596552103E+01
(PID.TID 0000.0001) %MON dynstat_theta_min            =  -1.8753303317601E+00
(PID.TID 0000.0001) %MON dynstat_theta_mean           =   3.5913487271234E+00
(PID.TID 0000.0001) %MON dynstat_theta_sd             =   4.4273028221362E+00
(PID.TID 0000.0001) %MON dynstat_theta_del2           =   2.1350326907261E-03
(PID.TID 0000.0001) %MON dynstat_salt_max             =   4.0715782045019E+01
(PID.TID 0000.0001) %MON dynstat_salt_min             =   1.8061466083966E+01
(PID.TID 0000.0001) %MON dynstat_salt_mean            =   3.4721464665322E+01
(PID.TID 0000.0001) %MON dynstat_salt_sd              =   4.8775554545734E-01
(PID.TID 0000.0001) %MON dynstat_salt_del2            =   5.1987260660410E-04
(PID.TID 0000.0001) %MON forcing_qnet_max             =   6.9568301659527E+02
(PID.TID 0000.0001) %MON forcing_qnet_min             =  -3.1666111122704E+02
(PID.TID 0000.0001) %MON forcing_qnet_mean            =  -2.1816692279327E+01
(PID.TID 0000.0001) %MON forcing_qnet_sd              =   1.7065423327994E+02
(PID.TID 0000.0001) %MON forcing_qnet_del2            =   1.0025355663959E+00
(PID.TID 0000.0001) %MON forcing_qsw_max              =   0.0000000000000E+00
(PID.TID 0000.0001) %MON forcing_qsw_min              =  -3.0190327619373E+02
(PID.TID 0000.0001) %MON forcing_qsw_mean             =  -1.8593263173938E+02
(PID.TID 0000.0001) %MON forcing_qsw_sd               =   7.9196898015892E+01
(PID.TID 0000.0001) %MON forcing_qsw_del2             =   1.1042682315688E-01
(PID.TID 0000.0001) %MON forcing_empmr_max            =   1.7538245291049E-03
(PID.TID 0000.0001) %MON forcing_empmr_min            =  -4.4649989994565E-04
(PID.TID 0000.0001) %MON forcing_empmr_mean           =   1.8880130424057E-05
(PID.TID 0000.0001) %MON forcing_empmr_sd             =   1.7400318426355E-04
(PID.TID 0000.0001) %MON forcing_empmr_del2           =   2.4749987974326E-06
(PID.TID 0000.0001) %MON forcing_fu_max               =   2.4755808644372E-01
(PID.TID 0000.0001) %MON forcing_fu_min               =  -2.0607770640355E-01
(PID.TID 0000.0001) %MON forcing_fu_mean              =  -4.4985339070742E-03
(PID.TID 0000.0001) %MON forcing_fu_sd                =   6.3946661498563E-02
(PID.TID 0000.0001) %MON forcing_fu_del2              =   2.0542248977552E-04
(PID.TID 0000.0001) %MON forcing_fv_max               =   2.5549422200851E-01
(PID.TID 0000.0001) %MON forcing_fv_min               =  -3.2770782795392E-01
(PID.TID 0000.0001) %MON forcing_fv_mean              =  -1.3688466828709E-02
(PID.TID 0000.0001) %MON forcing_fv_sd                =   7.5192568394714E-02
(PID.TID 0000.0001) %MON forcing_fv_del2              =   2.3387409827505E-04
(PID.TID 0000.0001) %MON trAdv_CFL_u_max              =   1.5992062360749E-02
(PID.TID 0000.0001) %MON trAdv_CFL_v_max              =   2.4917775183077E-02
(PID.TID 0000.0001) %MON trAdv_CFL_w_max              =   7.6016910197718E-02
(PID.TID 0000.0001) %MON advcfl_uvel_max              =   1.4235253129336E-02
(PID.TID 0000.0001) %MON advcfl_vvel_max              =   2.3940139947193E-02
(PID.TID 0000.0001) %MON advcfl_wvel_max              =   8.3246481229192E-02
(PID.TID 0000.0001) %MON advcfl_W_hf_max              =   9.1981173751777E-02
(PID.TID 0000.0001) %MON pe_b_mean                    =   1.2124608444616E-02
(PID.TID 0000.0001) %MON ke_max                       =   1.6821389677917E-03
(PID.TID 0000.0001) %MON ke_mean                      =   5.3572483612507E-06
(PID.TID 0000.0001) %MON ke_vol                       =   1.3604174062081E+22
(PID.TID 0000.0001) %MON vort_r_min                   =  -3.6063117581779E-07
(PID.TID 0000.0001) %MON vort_r_max                   =   4.3008997582309E-07
(PID.TID 0000.0001) %MON vort_a_mean                  =  -2.0556865257795E-05
(PID.TID 0000.0001) %MON vort_a_sd                    =   7.5247345875121E-05
(PID.TID 0000.0001) %MON vort_p_mean                  =  -2.4859276343880E-05
(PID.TID 0000.0001) %MON vort_p_sd                    =   1.2919528775072E-04
(PID.TID 0000.0001) %MON surfExpan_theta_mean         =   7.0941539455669E-03
(PID.TID 0000.0001) %MON surfExpan_salt_mean          =  -4.3489466007181E-03
(PID.TID 0000.0001) // =======================================================
(PID.TID 0000.0001) // End MONITOR dynamic field statistics
(PID.TID 0000.0001) // =======================================================
(PID.TID 0000.0001) // =======================================================
(PID.TID 0000.0001) // Begin MONITOR SEAICE statistics
(PID.TID 0000.0001) // =======================================================
(PID.TID 0000.0001) %MON seaice_tsnumber              =                     2
(PID.TID 0000.0001) %MON seaice_time_sec              =   1.7280000000000E+05
(PID.TID 0000.0001) %MON seaice_uice_max              =   7.3890952397155E-02
(PID.TID 0000.0001) %MON seaice_uice_min              =  -1.5290969918870E-01
(PID.TID 0000.0001) %MON seaice_uice_mean             =  -2.4881484809954E-04
(PID.TID 0000.0001) %MON seaice_uice_sd               =   7.3563029213431E-03
(PID.TID 0000.0001) %MON seaice_uice_del2             =   1.4059024833094E-04
(PID.TID 0000.0001) %MON seaice_vice_max              =   1.1358611116837E-01
(PID.TID 0000.0001) %MON seaice_vice_min              =  -1.0853114914677E-01
(PID.TID 0000.0001) %MON seaice_vice_mean             =   3.8472249095167E-04
(PID.TID 0000.0001) %MON seaice_vice_sd               =   1.0695508669481E-02
(PID.TID 0000.0001) %MON seaice_vice_del2             =   1.5150970667736E-04
(PID.TID 0000.0001) %MON seaice_area_max              =   5.2863391261669E-01
(PID.TID 0000.0001) %MON seaice_area_min              =   0.0000000000000E+00
(PID.TID 0000.0001) %MON seaice_area_mean             =   5.7850295562942E-03
(PID.TID 0000.0001) %MON seaice_area_sd               =   4.8215056233662E-02
(PID.TID 0000.0001) %MON seaice_area_del2             =   5.1728808787037E-04
(PID.TID 0000.0001) %MON seaice_heff_max              =   2.8850295323286E-01
(PID.TID 0000.0001) %MON seaice_heff_min              =   0.0000000000000E+00
(PID.TID 0000.0001) %MON seaice_heff_mean             =   2.9688898817736E-03
(PID.TID 0000.0001) %MON seaice_heff_sd               =   2.4888776293547E-02
(PID.TID 0000.0001) %MON seaice_heff_del2             =   2.6731817007850E-04
(PID.TID 0000.0001) %MON seaice_hsnow_max             =   7.7350648681859E-04
(PID.TID 0000.0001) %MON seaice_hsnow_min             =   0.0000000000000E+00
(PID.TID 0000.0001) %MON seaice_hsnow_mean            =   4.4751291378244E-06
(PID.TID 0000.0001) %MON seaice_hsnow_sd              =   4.8608571011914E-05
(PID.TID 0000.0001) %MON seaice_hsnow_del2            =   8.0627622218759E-07
(PID.TID 0000.0001) // =======================================================
(PID.TID 0000.0001) // End MONITOR SEAICE statistics
(PID.TID 0000.0001) // =======================================================
 EXTERNAL_FIELDS_LOAD,         2 : iP,iLd,i0,i1=   12    1   12    1 ; Wght=  0.4333333333  0.5666666667
 SEAICE_LSR: Residual Initial ipass,Uice,Vice=         1  5.59360800E-04  8.46021758E-04
 SEAICE_LSR (ipass=        1) iters,dU,Resid=       12  2.57849297E-13  2.16632898E-19
 SEAICE_LSR (ipass=        1) iters,dV,Resid=       12  1.46355150E-13  2.84187427E-19
 SEAICE_LSR: Residual Initial ipass,Uice,Vice=         2  1.59915603E-04  1.95760454E-04
 SEAICE_LSR (ipass=        2) iters,dU,Resid=       12  2.29677388E-14  1.43869322E-19
 SEAICE_LSR (ipass=        2) iters,dV,Resid=       12  3.57066807E-14  2.66875488E-19
 cg2d: Sum(rhs),rhsMax =   1.33366823356779E-01  1.98889685127989E+01
(PID.TID 0000.0001)      cg2d_init_res =   1.91658339727353E-01
(PID.TID 0000.0001)      cg2d_iters(min,last) =      -1     104
(PID.TID 0000.0001)      cg2d_last_res =   9.60024575726649E-10
(PID.TID 0000.0001) // =======================================================
(PID.TID 0000.0001) // Begin MONITOR dynamic field statistics
(PID.TID 0000.0001) // =======================================================
(PID.TID 0000.0001) %MON time_tsnumber                =                     3
(PID.TID 0000.0001) %MON time_secondsf                =   2.5920000000000E+05
(PID.TID 0000.0001) %MON dynstat_eta_max              =   1.3305568895638E+04
(PID.TID 0000.0001) %MON dynstat_eta_min              =  -2.3890925991053E+04
(PID.TID 0000.0001) %MON dynstat_eta_mean             =  -4.0057198002928E+01
(PID.TID 0000.0001) %MON dynstat_eta_sd               =   7.0653107206111E+03
(PID.TID 0000.0001) %MON dynstat_eta_del2             =   9.3846801766064E+01
(PID.TID 0000.0001) %MON dynstat_uvel_max             =   5.4259923060243E-02
(PID.TID 0000.0001) %MON dynstat_uvel_min             =  -6.3804492796057E-02
(PID.TID 0000.0001) %MON dynstat_uvel_mean            =  -4.5161666994771E-04
(PID.TID 0000.0001) %MON dynstat_uvel_sd              =   3.2104549476024E-03
(PID.TID 0000.0001) %MON dynstat_uvel_del2            =   1.7242405746848E-05
(PID.TID 0000.0001) %MON dynstat_vvel_max             =   8.8880800226808E-02
(PID.TID 0000.0001) %MON dynstat_vvel_min             =  -8.2045964907743E-02
(PID.TID 0000.0001) %MON dynstat_vvel_mean            =  -1.5740597704528E-04
(PID.TID 0000.0001) %MON dynstat_vvel_sd              =   3.3122341557511E-03
(PID.TID 0000.0001) %MON dynstat_vvel_del2            =   1.8229526294184E-05
(PID.TID 0000.0001) %MON dynstat_wvel_max             =   2.6904766007591E+00
(PID.TID 0000.0001) %MON dynstat_wvel_min             =  -4.3242250733291E+00
(PID.TID 0000.0001) %MON dynstat_wvel_mean            =   8.8932550380361E-04
(PID.TID 0000.0001) %MON dynstat_wvel_sd              =   1.2601406920986E-01
(PID.TID 0000.0001) %MON dynstat_wvel_del2            =   1.0608938472898E-03
(PID.TID 0000.0001) %MON dynstat_theta_max            =   2.9408135105279E+01
(PID.TID 0000.0001) %MON dynstat_theta_min            =  -1.8830010737600E+00
(PID.TID 0000.0001) %MON dynstat_theta_mean           =   3.5914725052712E+00
(PID.TID 0000.0001) %MON dynstat_theta_sd             =   4.4276475217056E+00
(PID.TID 0000.0001) %MON dynstat_theta_del2           =   2.1107908687951E-03
(PID.TID 0000.0001) %MON dynstat_salt_max             =   4.0715797016247E+01
(PID.TID 0000.0001) %MON dynstat_salt_min             =   1.7830039392887E+01
(PID.TID 0000.0001) %MON dynstat_salt_mean            =   3.4721480211925E+01
(PID.TID 0000.0001) %MON dynstat_salt_sd              =   4.8768042760571E-01
(PID.TID 0000.0001) %MON dynstat_salt_del2            =   5.1654684346646E-04
(PID.TID 0000.0001) %MON forcing_qnet_max             =   9.8898462964453E+02
(PID.TID 0000.0001) %MON forcing_qnet_min             =  -3.1582909723282E+02
(PID.TID 0000.0001) %MON forcing_qnet_mean            =  -2.4196329211489E+01
(PID.TID 0000.0001) %MON forcing_qnet_sd              =   1.6598717606505E+02
(PID.TID 0000.0001) %MON forcing_qnet_del2            =   1.3045244994622E+00
(PID.TID 0000.0001) %MON forcing_qsw_max              =   0.0000000000000E+00
(PID.TID 0000.0001) %MON forcing_qsw_min              =  -3.0189127925792E+02
(PID.TID 0000.0001) %MON forcing_qsw_mean             =  -1.8593879213097E+02
(PID.TID 0000.0001) %MON forcing_qsw_sd               =   7.9086030762481E+01
(PID.TID 0000.0001) %MON forcing_qsw_del2             =   1.1032203144530E-01
(PID.TID 0000.0001) %MON forcing_empmr_max            =   1.7742506342707E-03
(PID.TID 0000.0001) %MON forcing_empmr_min            =  -1.6714318397364E-03
(PID.TID 0000.0001) %MON forcing_empmr_mean           =   1.9878564868396E-05
(PID.TID 0000.0001) %MON forcing_empmr_sd             =   1.7354017343175E-04
(PID.TID 0000.0001) %MON forcing_empmr_del2           =   3.3786642364789E-06
(PID.TID 0000.0001) %MON forcing_fu_max               =   2.4751003717351E-01
(PID.TID 0000.0001) %MON forcing_fu_min               =  -2.0922350306190E-01
(PID.TID 0000.0001) %MON forcing_fu_mean              =  -4.4451640019368E-03
(PID.TID 0000.0001) %MON forcing_fu_sd                =   6.3963990878599E-02
(PID.TID 0000.0001) %MON forcing_fu_del2              =   2.0566384838744E-04
(PID.TID 0000.0001) %MON forcing_fv_max               =   2.5817746358114E-01
(PID.TID 0000.0001) %MON forcing_fv_min               =  -3.2849573188785E-01
(PID.TID 0000.0001) %MON forcing_fv_mean              =  -1.3688993645892E-02
(PID.TID 0000.0001) %MON forcing_fv_sd                =   7.5246625962459E-02
(PID.TID 0000.0001) %MON forcing_fv_del2              =   2.3426167469211E-04
(PID.TID 0000.0001) %MON trAdv_CFL_u_max              =   2.2401775602274E-02
(PID.TID 0000.0001) %MON trAdv_CFL_v_max              =   3.1506303105964E-02
(PID.TID 0000.0001) %MON trAdv_CFL_w_max              =   1.1159956572420E-01
(PID.TID 0000.0001) %MON advcfl_uvel_max              =   2.0096023869483E-02
(PID.TID 0000.0001) %MON advcfl_vvel_max              =   2.6142675043930E-02
(PID.TID 0000.0001) %MON advcfl_wvel_max              =   1.2220630601618E-01
(PID.TID 0000.0001) %MON advcfl_W_hf_max              =   1.3503652041107E-01
(PID.TID 0000.0001) %MON pe_b_mean                    =   1.3157400074811E-02
(PID.TID 0000.0001) %MON ke_max                       =   2.6263979192679E-03
(PID.TID 0000.0001) %MON ke_mean                      =   9.9299671084679E-06
(PID.TID 0000.0001) %MON ke_vol                       =   1.3604168238985E+22
(PID.TID 0000.0001) %MON vort_r_min                   =  -4.9874672715331E-07
(PID.TID 0000.0001) %MON vort_r_max                   =   5.2424095253124E-07
(PID.TID 0000.0001) %MON vort_a_mean                  =  -2.0556865257795E-05
(PID.TID 0000.0001) %MON vort_a_sd                    =   7.5247335755279E-05
(PID.TID 0000.0001) %MON vort_p_mean                  =  -2.4859228572284E-05
(PID.TID 0000.0001) %MON vort_p_sd                    =   1.2920027720446E-04
(PID.TID 0000.0001) %MON surfExpan_theta_mean         =   1.1468273993949E-02
(PID.TID 0000.0001) %MON surfExpan_salt_mean          =  -5.1771345879839E-03
(PID.TID 0000.0001) // =======================================================
(PID.TID 0000.0001) // End MONITOR dynamic field statistics
(PID.TID 0000.0001) // =======================================================
(PID.TID 0000.0001) // =======================================================
(PID.TID 0000.0001) // Begin MONITOR SEAICE statistics
(PID.TID 0000.0001) // =======================================================
(PID.TID 0000.0001) %MON seaice_tsnumber              =                     3
(PID.TID 0000.0001) %MON seaice_time_sec              =   2.5920000000000E+05
(PID.TID 0000.0001) %MON seaice_uice_max              =   1.2724390853030E-01
(PID.TID 0000.0001) %MON seaice_uice_min              =  -1.8208622789017E-01
(PID.TID 0000.0001) %MON seaice_uice_mean             =  -3.0913786881447E-04
(PID.TID 0000.0001) %MON seaice_uice_sd               =   9.4998738259483E-03
(PID.TID 0000.0001) %MON seaice_uice_del2             =   2.0182103708204E-04
(PID.TID 0000.0001) %MON seaice_vice_max              =   1.4350330033244E-01
(PID.TID 0000.0001) %MON seaice_vice_min              =  -1.4748903452627E-01
(PID.TID 0000.0001) %MON seaice_vice_mean             =   9.1141928681906E-04
(PID.TID 0000.0001) %MON seaice_vice_sd               =   1.3506900353633E-02
(PID.TID 0000.0001) %MON seaice_vice_del2             =   1.2914879877234E-04
(PID.TID 0000.0001) %MON seaice_area_max              =   6.7874329947991E-01
(PID.TID 0000.0001) %MON seaice_area_min              =   0.0000000000000E+00
(PID.TID 0000.0001) %MON seaice_area_mean             =   9.6242418794363E-03
(PID.TID 0000.0001) %MON seaice_area_sd               =   7.2159810826188E-02
(PID.TID 0000.0001) %MON seaice_area_del2             =   8.6631787825731E-04
(PID.TID 0000.0001) %MON seaice_heff_max              =   3.7961498185784E-01
(PID.TID 0000.0001) %MON seaice_heff_min              =   0.0000000000000E+00
(PID.TID 0000.0001) %MON seaice_heff_mean             =   5.0600578209015E-03
(PID.TID 0000.0001) %MON seaice_heff_sd               =   3.8280425971742E-02
(PID.TID 0000.0001) %MON seaice_heff_del2             =   4.3387161477706E-04
(PID.TID 0000.0001) %MON seaice_hsnow_max             =   1.8610649431870E-03
(PID.TID 0000.0001) %MON seaice_hsnow_min             =   0.0000000000000E+00
(PID.TID 0000.0001) %MON seaice_hsnow_mean            =   1.4992139780416E-05
(PID.TID 0000.0001) %MON seaice_hsnow_sd              =   1.3089548971085E-04
(PID.TID 0000.0001) %MON seaice_hsnow_del2            =   2.0820572686442E-06
(PID.TID 0000.0001) // =======================================================
(PID.TID 0000.0001) // End MONITOR SEAICE statistics
(PID.TID 0000.0001) // =======================================================
 EXTERNAL_FIELDS_LOAD,         3 : iP,iLd,i0,i1=   12    1   12    1 ; Wght=  0.4000000000  0.6000000000
 SEAICE_LSR: Residual Initial ipass,Uice,Vice=         1  2.75168993E-04  3.52394067E-04
 SEAICE_LSR (ipass=        1) iters,dU,Resid=       12  3.16136006E-14  2.31857989E-19
 SEAICE_LSR (ipass=        1) iters,dV,Resid=       12  7.74866282E-14  3.35785160E-19
 SEAICE_LSR: Residual Initial ipass,Uice,Vice=         2  9.40704001E-05  7.93744660E-05
 SEAICE_LSR (ipass=        2) iters,dU,Resid=       12  2.15105711E-15  2.28913987E-19
 SEAICE_LSR (ipass=        2) iters,dV,Resid=       12  3.60770441E-14  5.31429355E-19
 cg2d: Sum(rhs),rhsMax =   1.92172351590666E-01  1.98883986269227E+01
(PID.TID 0000.0001)      cg2d_init_res =   9.80656859198064E-02
(PID.TID 0000.0001)      cg2d_iters(min,last) =      -1     103
(PID.TID 0000.0001)      cg2d_last_res =   7.42172725840681E-10
(PID.TID 0000.0001) // =======================================================
(PID.TID 0000.0001) // Begin MONITOR dynamic field statistics
(PID.TID 0000.0001) // =======================================================
(PID.TID 0000.0001) %MON time_tsnumber                =                     4
(PID.TID 0000.0001) %MON time_secondsf                =   3.4560000000000E+05
(PID.TID 0000.0001) %MON dynstat_eta_max              =   1.3103148486555E+04
(PID.TID 0000.0001) %MON dynstat_eta_min              =  -2.3940438472622E+04
(PID.TID 0000.0001) %MON dynstat_eta_mean             =  -5.7717992933120E+01
(PID.TID 0000.0001) %MON dynstat_eta_sd               =   7.3742311565949E+03
(PID.TID 0000.0001) %MON dynstat_eta_del2             =   9.3592002025380E+01
(PID.TID 0000.0001) %MON dynstat_uvel_max             =   6.9746208099412E-02
(PID.TID 0000.0001) %MON dynstat_uvel_min             =  -8.1959333483786E-02
(PID.TID 0000.0001) %MON dynstat_uvel_mean            =  -4.6671128771477E-04
(PID.TID 0000.0001) %MON dynstat_uvel_sd              =   4.1161818945617E-03
(PID.TID 0000.0001) %MON dynstat_uvel_del2            =   2.2003197681369E-05
(PID.TID 0000.0001) %MON dynstat_vvel_max             =   1.1493558555237E-01
(PID.TID 0000.0001) %MON dynstat_vvel_min             =  -1.0576859023005E-01
(PID.TID 0000.0001) %MON dynstat_vvel_mean            =  -2.7722741122283E-04
(PID.TID 0000.0001) %MON dynstat_vvel_sd              =   4.2197070944309E-03
(PID.TID 0000.0001) %MON dynstat_vvel_del2            =   2.3149952015249E-05
(PID.TID 0000.0001) %MON dynstat_wvel_max             =   3.4525293785527E+00
(PID.TID 0000.0001) %MON dynstat_wvel_min             =  -5.6359456111176E+00
(PID.TID 0000.0001) %MON dynstat_wvel_mean            =   2.6569447731756E-04
(PID.TID 0000.0001) %MON dynstat_wvel_sd              =   1.6024170565960E-01
(PID.TID 0000.0001) %MON dynstat_wvel_del2            =   1.3203004396579E-03
(PID.TID 0000.0001) %MON dynstat_theta_max            =   2.9415131762664E+01
(PID.TID 0000.0001) %MON dynstat_theta_min            =  -1.8816762448884E+00
(PID.TID 0000.0001) %MON dynstat_theta_mean           =   3.5916308870357E+00
(PID.TID 0000.0001) %MON dynstat_theta_sd             =   4.4274607083546E+00
(PID.TID 0000.0001) %MON dynstat_theta_del2           =   2.2856526542012E-03
(PID.TID 0000.0001) %MON dynstat_salt_max             =   4.0715816860449E+01
(PID.TID 0000.0001) %MON dynstat_salt_min             =   1.7561085086012E+01
(PID.TID 0000.0001) %MON dynstat_salt_mean            =   3.4721497017553E+01
(PID.TID 0000.0001) %MON dynstat_salt_sd              =   4.8746250967298E-01
(PID.TID 0000.0001) %MON dynstat_salt_del2            =   5.2572692618150E-04
(PID.TID 0000.0001) %MON forcing_qnet_max             =   6.8114117795320E+02
(PID.TID 0000.0001) %MON forcing_qnet_min             =  -3.1494305800167E+02
(PID.TID 0000.0001) %MON forcing_qnet_mean            =  -2.6000696656987E+01
(PID.TID 0000.0001) %MON forcing_qnet_sd              =   1.6029830653441E+02
(PID.TID 0000.0001) %MON forcing_qnet_del2            =   1.0312944145012E+00
(PID.TID 0000.0001) %MON forcing_qsw_max              =   0.0000000000000E+00
(PID.TID 0000.0001) %MON forcing_qsw_min              =  -3.0187928232211E+02
(PID.TID 0000.0001) %MON forcing_qsw_mean             =  -1.8594494422320E+02
(PID.TID 0000.0001) %MON forcing_qsw_sd               =   7.8977862412479E+01
(PID.TID 0000.0001) %MON forcing_qsw_del2             =   1.1028061737212E-01
(PID.TID 0000.0001) %MON forcing_empmr_max            =   1.6301881578084E-03
(PID.TID 0000.0001) %MON forcing_empmr_min            =  -4.4998185712177E-04
(PID.TID 0000.0001) %MON forcing_empmr_mean           =   2.0836630859233E-05
(PID.TID 0000.0001) %MON forcing_empmr_sd             =   1.6001929815067E-04
(PID.TID 0000.0001) %MON forcing_empmr_del2           =   2.0472615391190E-06
(PID.TID 0000.0001) %MON forcing_fu_max               =   2.4746198790331E-01
(PID.TID 0000.0001) %MON forcing_fu_min               =  -2.1236929972025E-01
(PID.TID 0000.0001) %MON forcing_fu_mean              =  -4.3930421616495E-03
(PID.TID 0000.0001) %MON forcing_fu_sd                =   6.3996952183209E-02
(PID.TID 0000.0001) %MON forcing_fu_del2              =   2.0640984713875E-04
(PID.TID 0000.0001) %MON forcing_fv_max               =   2.6086070515377E-01
(PID.TID 0000.0001) %MON forcing_fv_min               =  -3.2928363582178E-01
(PID.TID 0000.0001) %MON forcing_fv_mean              =  -1.3690788591831E-02
(PID.TID 0000.0001) %MON forcing_fv_sd                =   7.5311085550742E-02
(PID.TID 0000.0001) %MON forcing_fv_del2              =   2.3487386222659E-04
(PID.TID 0000.0001) %MON trAdv_CFL_u_max              =   2.9518783245430E-02
(PID.TID 0000.0001) %MON trAdv_CFL_v_max              =   4.1208640216065E-02
(PID.TID 0000.0001) %MON trAdv_CFL_w_max              =   1.4541304349670E-01
(PID.TID 0000.0001) %MON advcfl_uvel_max              =   2.5031597588827E-02
(PID.TID 0000.0001) %MON advcfl_vvel_max              =   3.2492484562218E-02
(PID.TID 0000.0001) %MON advcfl_wvel_max              =   1.5923411434973E-01
(PID.TID 0000.0001) %MON advcfl_W_hf_max              =   1.7595114540772E-01
(PID.TID 0000.0001) %MON pe_b_mean                    =   1.3494867749157E-02
(PID.TID 0000.0001) %MON ke_max                       =   4.4061203369308E-03
(PID.TID 0000.0001) %MON ke_mean                      =   1.6180089294171E-05
(PID.TID 0000.0001) %MON ke_vol                       =   1.3604162107947E+22
(PID.TID 0000.0001) %MON vort_r_min                   =  -5.6691713765509E-07
(PID.TID 0000.0001) %MON vort_r_max                   =   5.8099321375026E-07
(PID.TID 0000.0001) %MON vort_a_mean                  =  -2.0556865257794E-05
(PID.TID 0000.0001) %MON vort_a_sd                    =   7.5247344330256E-05
(PID.TID 0000.0001) %MON vort_p_mean                  =  -2.4859215101150E-05
(PID.TID 0000.0001) %MON vort_p_sd                    =   1.2920355596598E-04
(PID.TID 0000.0001) %MON surfExpan_theta_mean         =   9.2670144892504E-03
(PID.TID 0000.0001) %MON surfExpan_salt_mean          =  -6.1897025001611E-03
(PID.TID 0000.0001) // =======================================================
(PID.TID 0000.0001) // End MONITOR dynamic field statistics
(PID.TID 0000.0001) // =======================================================
(PID.TID 0000.0001) // =======================================================
(PID.TID 0000.0001) // Begin MONITOR SEAICE statistics
(PID.TID 0000.0001) // =======================================================
(PID.TID 0000.0001) %MON seaice_tsnumber              =                     4
(PID.TID 0000.0001) %MON seaice_time_sec              =   3.4560000000000E+05
(PID.TID 0000.0001) %MON seaice_uice_max              =   1.0866972264841E-01
(PID.TID 0000.0001) %MON seaice_uice_min              =  -1.9592069054682E-01
(PID.TID 0000.0001) %MON seaice_uice_mean             =  -2.7035898065405E-04
(PID.TID 0000.0001) %MON seaice_uice_sd               =   9.5886716643878E-03
(PID.TID 0000.0001) %MON seaice_uice_del2             =   1.8776172896511E-04
(PID.TID 0000.0001) %MON seaice_vice_max              =   1.5194283551384E-01
(PID.TID 0000.0001) %MON seaice_vice_min              =  -1.6374102802408E-01
(PID.TID 0000.0001) %MON seaice_vice_mean             =   9.6336397598388E-04
(PID.TID 0000.0001) %MON seaice_vice_sd               =   1.4142746494476E-02
(PID.TID 0000.0001) %MON seaice_vice_del2             =   1.1597772033225E-04
(PID.TID 0000.0001) %MON seaice_area_max              =   7.8638852375284E-01
(PID.TID 0000.0001) %MON seaice_area_min              =   0.0000000000000E+00
(PID.TID 0000.0001) %MON seaice_area_mean             =   1.3342646670673E-02
(PID.TID 0000.0001) %MON seaice_area_sd               =   9.2047063829432E-02
(PID.TID 0000.0001) %MON seaice_area_del2             =   9.3314980629201E-04
(PID.TID 0000.0001) %MON seaice_heff_max              =   4.5243195455874E-01
(PID.TID 0000.0001) %MON seaice_heff_min              =   0.0000000000000E+00
(PID.TID 0000.0001) %MON seaice_heff_mean             =   7.2475992197766E-03
(PID.TID 0000.0001) %MON seaice_heff_sd               =   5.0573551441824E-02
(PID.TID 0000.0001) %MON seaice_heff_del2             =   5.0230652636297E-04
(PID.TID 0000.0001) %MON seaice_hsnow_max             =   3.4944226281482E-03
(PID.TID 0000.0001) %MON seaice_hsnow_min             =   0.0000000000000E+00
(PID.TID 0000.0001) %MON seaice_hsnow_mean            =   3.2241768872425E-05
(PID.TID 0000.0001) %MON seaice_hsnow_sd              =   2.6095145921456E-04
(PID.TID 0000.0001) %MON seaice_hsnow_del2            =   4.3944604786879E-06
(PID.TID 0000.0001) // =======================================================
(PID.TID 0000.0001) // End MONITOR SEAICE statistics
(PID.TID 0000.0001) // =======================================================
 EXTERNAL_FIELDS_LOAD,         4 : iP,iLd,i0,i1=   12    1   12    1 ; Wght=  0.3666666667  0.6333333333
 SEAICE_LSR: Residual Initial ipass,Uice,Vice=         1  4.38929527E-04  3.69279926E-04
 SEAICE_LSR (ipass=        1) iters,dU,Resid=       12  5.95190564E-13  5.58053415E-19
 SEAICE_LSR (ipass=        1) iters,dV,Resid=       12  8.63475957E-14  7.99600503E-19
 SEAICE_LSR: Residual Initial ipass,Uice,Vice=         2  5.39902646E-04  1.18448105E-04
 SEAICE_LSR (ipass=        2) iters,dU,Resid=       12  9.50906021E-14  4.12253845E-19
 SEAICE_LSR (ipass=        2) iters,dV,Resid=       12  3.59434704E-14  5.94946902E-19
 cg2d: Sum(rhs),rhsMax =   2.26710074373407E-01  1.98977556638025E+01
(PID.TID 0000.0001)      cg2d_init_res =   8.14401758936403E-02
(PID.TID 0000.0001)      cg2d_iters(min,last) =      -1     102
(PID.TID 0000.0001)      cg2d_last_res =   8.63627585946862E-10
(PID.TID 0000.0001) // =======================================================
(PID.TID 0000.0001) // Begin MONITOR dynamic field statistics
(PID.TID 0000.0001) // =======================================================
(PID.TID 0000.0001) %MON time_tsnumber                =                     5
(PID.TID 0000.0001) %MON time_secondsf                =   4.3200000000000E+05
(PID.TID 0000.0001) %MON dynstat_eta_max              =   1.3211580287695E+04
(PID.TID 0000.0001) %MON dynstat_eta_min              =  -2.3568643140699E+04
(PID.TID 0000.0001) %MON dynstat_eta_mean             =  -6.8123258488495E+01
(PID.TID 0000.0001) %MON dynstat_eta_sd               =   7.4387700330922E+03
(PID.TID 0000.0001) %MON dynstat_eta_del2             =   9.3724917983330E+01
(PID.TID 0000.0001) %MON dynstat_uvel_max             =   8.4685800893065E-02
(PID.TID 0000.0001) %MON dynstat_uvel_min             =  -9.9993009047370E-02
(PID.TID 0000.0001) %MON dynstat_uvel_mean            =  -3.9417931416194E-04
(PID.TID 0000.0001) %MON dynstat_uvel_sd              =   5.0192220011788E-03
(PID.TID 0000.0001) %MON dynstat_uvel_del2            =   2.6360483747644E-05
(PID.TID 0000.0001) %MON dynstat_vvel_max             =   1.3874555471157E-01
(PID.TID 0000.0001) %MON dynstat_vvel_min             =  -1.2778921481894E-01
(PID.TID 0000.0001) %MON dynstat_vvel_mean            =  -3.9198077825791E-04
(PID.TID 0000.0001) %MON dynstat_vvel_sd              =   5.1490970682611E-03
(PID.TID 0000.0001) %MON dynstat_vvel_del2            =   2.7544626706841E-05
(PID.TID 0000.0001) %MON dynstat_wvel_max             =   4.1196721531157E+00
(PID.TID 0000.0001) %MON dynstat_wvel_min             =  -6.8473956769339E+00
(PID.TID 0000.0001) %MON dynstat_wvel_mean            =   9.9300304162844E-06
(PID.TID 0000.0001) %MON dynstat_wvel_sd              =   1.9087093861809E-01
(PID.TID 0000.0001) %MON dynstat_wvel_del2            =   1.5406272516047E-03
(PID.TID 0000.0001) %MON dynstat_theta_max            =   2.9421633696579E+01
(PID.TID 0000.0001) %MON dynstat_theta_min            =  -1.8949180225345E+00
(PID.TID 0000.0001) %MON dynstat_theta_mean           =   3.5917874075056E+00
(PID.TID 0000.0001) %MON dynstat_theta_sd             =   4.4278776638875E+00
(PID.TID 0000.0001) %MON dynstat_theta_del2           =   2.2608644241783E-03
(PID.TID 0000.0001) %MON dynstat_salt_max             =   4.0715833869942E+01
(PID.TID 0000.0001) %MON dynstat_salt_min             =   1.7267720604378E+01
(PID.TID 0000.0001) %MON dynstat_salt_mean            =   3.4721507079608E+01
(PID.TID 0000.0001) %MON dynstat_salt_sd              =   4.8741109270638E-01
(PID.TID 0000.0001) %MON dynstat_salt_del2            =   5.2158409132788E-04
(PID.TID 0000.0001) %MON forcing_qnet_max             =   1.2842316179618E+03
(PID.TID 0000.0001) %MON forcing_qnet_min             =  -3.1401608637939E+02
(PID.TID 0000.0001) %MON forcing_qnet_mean            =  -2.5274164551992E+01
(PID.TID 0000.0001) %MON forcing_qnet_sd              =   1.6348264295804E+02
(PID.TID 0000.0001) %MON forcing_qnet_del2            =   1.1720153925336E+00
(PID.TID 0000.0001) %MON forcing_qsw_max              =   0.0000000000000E+00
(PID.TID 0000.0001) %MON forcing_qsw_min              =  -3.0186728538630E+02
(PID.TID 0000.0001) %MON forcing_qsw_mean             =  -1.8595109436249E+02
(PID.TID 0000.0001) %MON forcing_qsw_sd               =   7.8872389113840E+01
(PID.TID 0000.0001) %MON forcing_qsw_del2             =   1.1030265382505E-01
(PID.TID 0000.0001) %MON forcing_empmr_max            =   1.8715896052389E-03
(PID.TID 0000.0001) %MON forcing_empmr_min            =  -2.8938035716306E-03
(PID.TID 0000.0001) %MON forcing_empmr_mean           =   1.2276382701154E-05
(PID.TID 0000.0001) %MON forcing_empmr_sd             =   1.5588235179755E-04
(PID.TID 0000.0001) %MON forcing_empmr_del2           =   3.3106229221037E-06
(PID.TID 0000.0001) %MON forcing_fu_max               =   2.4741393863310E-01
(PID.TID 0000.0001) %MON forcing_fu_min               =  -2.1551509637860E-01
(PID.TID 0000.0001) %MON forcing_fu_mean              =  -4.3401455493951E-03
(PID.TID 0000.0001) %MON forcing_fu_sd                =   6.4043520999174E-02
(PID.TID 0000.0001) %MON forcing_fu_del2              =   2.0725425062320E-04
(PID.TID 0000.0001) %MON forcing_fv_max               =   2.6354394672640E-01
(PID.TID 0000.0001) %MON forcing_fv_min               =  -3.3007153975572E-01
(PID.TID 0000.0001) %MON forcing_fv_mean              =  -1.3692878634462E-02
(PID.TID 0000.0001) %MON forcing_fv_sd                =   7.5385099810139E-02
(PID.TID 0000.0001) %MON forcing_fv_del2              =   2.3568023794310E-04
(PID.TID 0000.0001) %MON trAdv_CFL_u_max              =   3.6223032353681E-02
(PID.TID 0000.0001) %MON trAdv_CFL_v_max              =   5.0257848329962E-02
(PID.TID 0000.0001) %MON trAdv_CFL_w_max              =   1.7657323838758E-01
(PID.TID 0000.0001) %MON advcfl_uvel_max              =   3.0805000037896E-02
(PID.TID 0000.0001) %MON advcfl_vvel_max              =   3.9223603141499E-02
(PID.TID 0000.0001) %MON advcfl_wvel_max              =   1.9336645008063E-01
(PID.TID 0000.0001) %MON advcfl_W_hf_max              =   2.1365527325168E-01
(PID.TID 0000.0001) %MON pe_b_mean                    =   1.3562758489278E-02
(PID.TID 0000.0001) %MON ke_max                       =   6.4891850435855E-03
(PID.TID 0000.0001) %MON ke_mean                      =   2.4016556383792E-05
(PID.TID 0000.0001) %MON ke_vol                       =   1.3604155681418E+22
(PID.TID 0000.0001) %MON vort_r_min                   =  -5.8033792416062E-07
(PID.TID 0000.0001) %MON vort_r_max                   =   6.2817306891167E-07
(PID.TID 0000.0001) %MON vort_a_mean                  =  -2.0556865257795E-05
(PID.TID 0000.0001) %MON vort_a_sd                    =   7.5247364059997E-05
(PID.TID 0000.0001) %MON vort_p_mean                  =  -2.4859218018159E-05
(PID.TID 0000.0001) %MON vort_p_sd                    =   1.2920533584417E-04
(PID.TID 0000.0001) %MON surfExpan_theta_mean         =   6.3767737782733E-03
(PID.TID 0000.0001) %MON surfExpan_salt_mean          =  -3.8046144177826E-03
(PID.TID 0000.0001) // =======================================================
(PID.TID 0000.0001) // End MONITOR dynamic field statistics
(PID.TID 0000.0001) // =======================================================
(PID.TID 0000.0001) // =======================================================
(PID.TID 0000.0001) // Begin MONITOR SEAICE statistics
(PID.TID 0000.0001) // =======================================================
(PID.TID 0000.0001) %MON seaice_tsnumber              =                     5
(PID.TID 0000.0001) %MON seaice_time_sec              =   4.3200000000000E+05
(PID.TID 0000.0001) %MON seaice_uice_max              =   1.2618769062569E-01
(PID.TID 0000.0001) %MON seaice_uice_min              =  -2.0838387705194E-01
(PID.TID 0000.0001) %MON seaice_uice_mean             =  -4.8825473628509E-04
(PID.TID 0000.0001) %MON seaice_uice_sd               =   1.1887054409816E-02
(PID.TID 0000.0001) %MON seaice_uice_del2             =   1.7521243144528E-04
(PID.TID 0000.0001) %MON seaice_vice_max              =   1.5360963429069E-01
(PID.TID 0000.0001) %MON seaice_vice_min              =  -1.5988459721491E-01
(PID.TID 0000.0001) %MON seaice_vice_mean             =   1.0557321327207E-03
(PID.TID 0000.0001) %MON seaice_vice_sd               =   1.5011524786829E-02
(PID.TID 0000.0001) %MON seaice_vice_del2             =   1.1222778114444E-04
(PID.TID 0000.0001) %MON seaice_area_max              =   8.6147320361604E-01
(PID.TID 0000.0001) %MON seaice_area_min              =   0.0000000000000E+00
(PID.TID 0000.0001) %MON seaice_area_mean             =   1.5638328003589E-02
(PID.TID 0000.0001) %MON seaice_area_sd               =   1.0593992592189E-01
(PID.TID 0000.0001) %MON seaice_area_del2             =   8.3974278304399E-04
(PID.TID 0000.0001) %MON seaice_heff_max              =   5.1946746736237E-01
(PID.TID 0000.0001) %MON seaice_heff_min              =   0.0000000000000E+00
(PID.TID 0000.0001) %MON seaice_heff_mean             =   8.6435947451713E-03
(PID.TID 0000.0001) %MON seaice_heff_sd               =   5.9723315981061E-02
(PID.TID 0000.0001) %MON seaice_heff_del2             =   4.5873318272900E-04
(PID.TID 0000.0001) %MON seaice_hsnow_max             =   6.0910546472058E-03
(PID.TID 0000.0001) %MON seaice_hsnow_min             =   0.0000000000000E+00
(PID.TID 0000.0001) %MON seaice_hsnow_mean            =   5.3594720567936E-05
(PID.TID 0000.0001) %MON seaice_hsnow_sd              =   4.2156702796336E-04
(PID.TID 0000.0001) %MON seaice_hsnow_del2            =   5.9156020759549E-06
(PID.TID 0000.0001) // =======================================================
(PID.TID 0000.0001) // End MONITOR SEAICE statistics
(PID.TID 0000.0001) // =======================================================
 EXTERNAL_FIELDS_LOAD,         5 : iP,iLd,i0,i1=   12    1   12    1 ; Wght=  0.3333333333  0.6666666667
 SEAICE_LSR: Residual Initial ipass,Uice,Vice=         1  4.96511287E-03  6.36073917E-04
 SEAICE_LSR (ipass=        1) iters,dU,Resid=       14  3.03923553E-15  2.13467181E-18
 SEAICE_LSR (ipass=        1) iters,dV,Resid=       14  9.64228697E-14  2.75411565E-18
 SEAICE_LSR: Residual Initial ipass,Uice,Vice=         2  2.46644885E-03  2.84151865E-04
 SEAICE_LSR (ipass=        2) iters,dU,Resid=       14  7.32053307E-16  1.16234356E-18
 SEAICE_LSR (ipass=        2) iters,dV,Resid=       14  1.63064007E-14  1.13156017E-18
 cg2d: Sum(rhs),rhsMax =   2.72444674392994E-01  1.98997839282701E+01
(PID.TID 0000.0001)      cg2d_init_res =   7.52093958966717E-02
(PID.TID 0000.0001)      cg2d_iters(min,last) =      -1     102
(PID.TID 0000.0001)      cg2d_last_res =   9.19166594421521E-10
(PID.TID 0000.0001) // =======================================================
(PID.TID 0000.0001) // Begin MONITOR dynamic field statistics
(PID.TID 0000.0001) // =======================================================
(PID.TID 0000.0001) %MON time_tsnumber                =                     6
(PID.TID 0000.0001) %MON time_secondsf                =   5.1840000000000E+05
(PID.TID 0000.0001) %MON dynstat_eta_max              =   1.4057158081253E+04
(PID.TID 0000.0001) %MON dynstat_eta_min              =  -2.3264704677111E+04
(PID.TID 0000.0001) %MON dynstat_eta_mean             =  -8.1874221565023E+01
(PID.TID 0000.0001) %MON dynstat_eta_sd               =   7.4014616543931E+03
(PID.TID 0000.0001) %MON dynstat_eta_del2             =   9.3885801183057E+01
(PID.TID 0000.0001) %MON dynstat_uvel_max             =   9.8487511831675E-02
(PID.TID 0000.0001) %MON dynstat_uvel_min             =  -1.1691793887362E-01
(PID.TID 0000.0001) %MON dynstat_uvel_mean            =  -2.7358340785546E-04
(PID.TID 0000.0001) %MON dynstat_uvel_sd              =   5.8990356262068E-03
(PID.TID 0000.0001) %MON dynstat_uvel_del2            =   3.0173875662003E-05
(PID.TID 0000.0001) %MON dynstat_vvel_max             =   1.5998604707314E-01
(PID.TID 0000.0001) %MON dynstat_vvel_min             =  -1.4765811107864E-01
(PID.TID 0000.0001) %MON dynstat_vvel_mean            =  -4.7216303192951E-04
(PID.TID 0000.0001) %MON dynstat_vvel_sd              =   6.0659667602828E-03
(PID.TID 0000.0001) %MON dynstat_vvel_del2            =   3.1335740475554E-05
(PID.TID 0000.0001) %MON dynstat_wvel_max             =   4.6785390390006E+00
(PID.TID 0000.0001) %MON dynstat_wvel_min             =  -7.9346320512017E+00
(PID.TID 0000.0001) %MON dynstat_wvel_mean            =  -7.8721651630773E-05
(PID.TID 0000.0001) %MON dynstat_wvel_sd              =   2.1722422883372E-01
(PID.TID 0000.0001) %MON dynstat_wvel_del2            =   1.7188263304651E-03
(PID.TID 0000.0001) %MON dynstat_theta_max            =   2.9427696821506E+01
(PID.TID 0000.0001) %MON dynstat_theta_min            =  -1.8898065562879E+00
(PID.TID 0000.0001) %MON dynstat_theta_mean           =   3.5919528858293E+00
(PID.TID 0000.0001) %MON dynstat_theta_sd             =   4.4281528298682E+00
(PID.TID 0000.0001) %MON dynstat_theta_del2           =   2.2973668238491E-03
(PID.TID 0000.0001) %MON dynstat_salt_max             =   4.0715839218242E+01
(PID.TID 0000.0001) %MON dynstat_salt_min             =   1.6954938101120E+01
(PID.TID 0000.0001) %MON dynstat_salt_mean            =   3.4721518791805E+01
(PID.TID 0000.0001) %MON dynstat_salt_sd              =   4.8733333111723E-01
(PID.TID 0000.0001) %MON dynstat_salt_del2            =   5.2069975868421E-04
(PID.TID 0000.0001) %MON forcing_qnet_max             =   7.0134905311556E+02
(PID.TID 0000.0001) %MON forcing_qnet_min             =  -3.1298523937345E+02
(PID.TID 0000.0001) %MON forcing_qnet_mean            =  -2.7235805990121E+01
(PID.TID 0000.0001) %MON forcing_qnet_sd              =   1.5584128386947E+02
(PID.TID 0000.0001) %MON forcing_qnet_del2            =   1.0122593561102E+00
(PID.TID 0000.0001) %MON forcing_qsw_max              =   0.0000000000000E+00
(PID.TID 0000.0001) %MON forcing_qsw_min              =  -3.0185528845048E+02
(PID.TID 0000.0001) %MON forcing_qsw_mean             =  -1.8595724303889E+02
(PID.TID 0000.0001) %MON forcing_qsw_sd               =   7.8769620529696E+01
(PID.TID 0000.0001) %MON forcing_qsw_del2             =   1.1038810628946E-01
(PID.TID 0000.0001) %MON forcing_empmr_max            =   1.6425834871773E-03
(PID.TID 0000.0001) %MON forcing_empmr_min            =  -4.5351267249946E-04
(PID.TID 0000.0001) %MON forcing_empmr_mean           =   1.6223717149600E-05
(PID.TID 0000.0001) %MON forcing_empmr_sd             =   1.3096770249966E-04
(PID.TID 0000.0001) %MON forcing_empmr_del2           =   1.9565168178546E-06
(PID.TID 0000.0001) %MON forcing_fu_max               =   2.4736588936290E-01
(PID.TID 0000.0001) %MON forcing_fu_min               =  -2.1866089303695E-01
(PID.TID 0000.0001) %MON forcing_fu_mean              =  -4.2940982387557E-03
(PID.TID 0000.0001) %MON forcing_fu_sd                =   6.4104903752430E-02
(PID.TID 0000.0001) %MON forcing_fu_del2              =   2.0827633006090E-04
(PID.TID 0000.0001) %MON forcing_fv_max               =   2.6622718829904E-01
(PID.TID 0000.0001) %MON forcing_fv_min               =  -3.3085944368965E-01
(PID.TID 0000.0001) %MON forcing_fv_mean              =  -1.3696256925705E-02
(PID.TID 0000.0001) %MON forcing_fv_sd                =   7.5466271983830E-02
(PID.TID 0000.0001) %MON forcing_fv_del2              =   2.3657121196473E-04
(PID.TID 0000.0001) %MON trAdv_CFL_u_max              =   4.1293649713792E-02
(PID.TID 0000.0001) %MON trAdv_CFL_v_max              =   5.8428974699876E-02
(PID.TID 0000.0001) %MON trAdv_CFL_w_max              =   2.0436000707402E-01
(PID.TID 0000.0001) %MON advcfl_uvel_max              =   3.6038925859500E-02
(PID.TID 0000.0001) %MON advcfl_vvel_max              =   4.5228326281294E-02
(PID.TID 0000.0001) %MON advcfl_wvel_max              =   2.2381140872901E-01
(PID.TID 0000.0001) %MON advcfl_W_hf_max              =   2.4727752377330E-01
(PID.TID 0000.0001) %MON pe_b_mean                    =   1.3545034069524E-02
(PID.TID 0000.0001) %MON ke_max                       =   8.7307892119636E-03
(PID.TID 0000.0001) %MON ke_mean                      =   3.3195278362296E-05
(PID.TID 0000.0001) %MON ke_vol                       =   1.3604151895080E+22
(PID.TID 0000.0001) %MON vort_r_min                   =  -5.8446324028582E-07
(PID.TID 0000.0001) %MON vort_r_max                   =   6.8231946522279E-07
(PID.TID 0000.0001) %MON vort_a_mean                  =  -2.0556865257795E-05
(PID.TID 0000.0001) %MON vort_a_sd                    =   7.5247389189770E-05
(PID.TID 0000.0001) %MON vort_p_mean                  =  -2.4859223238258E-05
(PID.TID 0000.0001) %MON vort_p_sd                    =   1.2920599723908E-04
(PID.TID 0000.0001) %MON surfExpan_theta_mean         =   3.9645255173769E-03
(PID.TID 0000.0001) %MON surfExpan_salt_mean          =  -5.3231468412300E-03
(PID.TID 0000.0001) // =======================================================
(PID.TID 0000.0001) // End MONITOR dynamic field statistics
(PID.TID 0000.0001) // =======================================================
(PID.TID 0000.0001) // =======================================================
(PID.TID 0000.0001) // Begin MONITOR SEAICE statistics
(PID.TID 0000.0001) // =======================================================
(PID.TID 0000.0001) %MON seaice_tsnumber              =                     6
(PID.TID 0000.0001) %MON seaice_time_sec              =   5.1840000000000E+05
(PID.TID 0000.0001) %MON seaice_uice_max              =   1.8111484434112E-01
(PID.TID 0000.0001) %MON seaice_uice_min              =  -2.1854009667831E-01
(PID.TID 0000.0001) %MON seaice_uice_mean             =  -3.0158170764032E-04
(PID.TID 0000.0001) %MON seaice_uice_sd               =   1.1275174992825E-02
(PID.TID 0000.0001) %MON seaice_uice_del2             =   1.7289255502545E-04
(PID.TID 0000.0001) %MON seaice_vice_max              =   1.6193605926794E-01
(PID.TID 0000.0001) %MON seaice_vice_min              =  -1.6608819065421E-01
(PID.TID 0000.0001) %MON seaice_vice_mean             =   1.0610221921741E-03
(PID.TID 0000.0001) %MON seaice_vice_sd               =   1.5329207854575E-02
(PID.TID 0000.0001) %MON seaice_vice_del2             =   1.1526287905071E-04
(PID.TID 0000.0001) %MON seaice_area_max              =   9.1248316192369E-01
(PID.TID 0000.0001) %MON seaice_area_min              =   0.0000000000000E+00
(PID.TID 0000.0001) %MON seaice_area_mean             =   1.8118803864577E-02
(PID.TID 0000.0001) %MON seaice_area_sd               =   1.1845579640471E-01
(PID.TID 0000.0001) %MON seaice_area_del2             =   9.0889647659014E-04
(PID.TID 0000.0001) %MON seaice_heff_max              =   5.7643418858819E-01
(PID.TID 0000.0001) %MON seaice_heff_min              =   0.0000000000000E+00
(PID.TID 0000.0001) %MON seaice_heff_mean             =   1.0411559783676E-02
(PID.TID 0000.0001) %MON seaice_heff_sd               =   6.9189763109663E-02
(PID.TID 0000.0001) %MON seaice_heff_del2             =   4.9636781841834E-04
(PID.TID 0000.0001) %MON seaice_hsnow_max             =   8.9803044745479E-03
(PID.TID 0000.0001) %MON seaice_hsnow_min             =   0.0000000000000E+00
(PID.TID 0000.0001) %MON seaice_hsnow_mean            =   8.1222247479841E-05
(PID.TID 0000.0001) %MON seaice_hsnow_sd              =   6.1936742434836E-04
(PID.TID 0000.0001) %MON seaice_hsnow_del2            =   8.4229189981253E-06
(PID.TID 0000.0001) // =======================================================
(PID.TID 0000.0001) // End MONITOR SEAICE statistics
(PID.TID 0000.0001) // =======================================================
 EXTERNAL_FIELDS_LOAD,         6 : iP,iLd,i0,i1=   12    1   12    1 ; Wght=  0.3000000000  0.7000000000
 SEAICE_LSR: Residual Initial ipass,Uice,Vice=         1  5.97555173E-04  3.72045982E-04
 SEAICE_LSR (ipass=        1) iters,dU,Resid=       18  1.16469334E-14  4.66675794E-17
 SEAICE_LSR (ipass=        1) iters,dV,Resid=       18  3.34343664E-13  8.87781372E-17
 SEAICE_LSR: Residual Initial ipass,Uice,Vice=         2  6.99888987E-04  1.12522859E-04
 SEAICE_LSR (ipass=        2) iters,dU,Resid=       18  6.33521013E-15  2.73359458E-17
 SEAICE_LSR (ipass=        2) iters,dV,Resid=       18  8.65557626E-14  2.60219763E-17
 cg2d: Sum(rhs),rhsMax =   3.06635384400337E-01  1.99001503663289E+01
(PID.TID 0000.0001)      cg2d_init_res =   7.39635926749621E-02
(PID.TID 0000.0001)      cg2d_iters(min,last) =      -1      98
(PID.TID 0000.0001)      cg2d_last_res =   9.17954996455453E-10
(PID.TID 0000.0001) // =======================================================
(PID.TID 0000.0001) // Begin MONITOR dynamic field statistics
(PID.TID 0000.0001) // =======================================================
(PID.TID 0000.0001) %MON time_tsnumber                =                     7
(PID.TID 0000.0001) %MON time_secondsf                =   6.0480000000000E+05
(PID.TID 0000.0001) %MON dynstat_eta_max              =   1.4827168006833E+04
(PID.TID 0000.0001) %MON dynstat_eta_min              =  -2.2986830687815E+04
(PID.TID 0000.0001) %MON dynstat_eta_mean             =  -9.2150803665495E+01
(PID.TID 0000.0001) %MON dynstat_eta_sd               =   7.3336360242184E+03
(PID.TID 0000.0001) %MON dynstat_eta_del2             =   9.4075415602516E+01
(PID.TID 0000.0001) %MON dynstat_uvel_max             =   1.1106567493930E-01
(PID.TID 0000.0001) %MON dynstat_uvel_min             =  -1.3170591380370E-01
(PID.TID 0000.0001) %MON dynstat_uvel_mean            =  -1.4535831726111E-04
(PID.TID 0000.0001) %MON dynstat_uvel_sd              =   6.7487225670642E-03
(PID.TID 0000.0001) %MON dynstat_uvel_del2            =   3.3411850117815E-05
(PID.TID 0000.0001) %MON dynstat_vvel_max             =   1.7842034594944E-01
(PID.TID 0000.0001) %MON dynstat_vvel_min             =  -1.6522625228050E-01
(PID.TID 0000.0001) %MON dynstat_vvel_mean            =  -5.0413960998288E-04
(PID.TID 0000.0001) %MON dynstat_vvel_sd              =   6.9504125622671E-03
(PID.TID 0000.0001) %MON dynstat_vvel_del2            =   3.4543414832645E-05
(PID.TID 0000.0001) %MON dynstat_wvel_max             =   5.1172835834891E+00
(PID.TID 0000.0001) %MON dynstat_wvel_min             =  -8.8789992384736E+00
(PID.TID 0000.0001) %MON dynstat_wvel_mean            =  -5.9788357795326E-05
(PID.TID 0000.0001) %MON dynstat_wvel_sd              =   2.3891276377281E-01
(PID.TID 0000.0001) %MON dynstat_wvel_del2            =   1.8536300584515E-03
(PID.TID 0000.0001) %MON dynstat_theta_max            =   2.9433386952314E+01
(PID.TID 0000.0001) %MON dynstat_theta_min            =  -1.8989892298401E+00
(PID.TID 0000.0001) %MON dynstat_theta_mean           =   3.5921151374612E+00
(PID.TID 0000.0001) %MON dynstat_theta_sd             =   4.4285838364249E+00
(PID.TID 0000.0001) %MON dynstat_theta_del2           =   2.2795642273687E-03
(PID.TID 0000.0001) %MON dynstat_salt_max             =   4.0715829707043E+01
(PID.TID 0000.0001) %MON dynstat_salt_min             =   1.6626710719857E+01
(PID.TID 0000.0001) %MON dynstat_salt_mean            =   3.4721527034232E+01
(PID.TID 0000.0001) %MON dynstat_salt_sd              =   4.8729927514096E-01
(PID.TID 0000.0001) %MON dynstat_salt_del2            =   5.1614460790606E-04
(PID.TID 0000.0001) %MON forcing_qnet_max             =   7.0898958409031E+02
(PID.TID 0000.0001) %MON forcing_qnet_min             =  -3.1225158416046E+02
(PID.TID 0000.0001) %MON forcing_qnet_mean            =  -2.6791382796487E+01
(PID.TID 0000.0001) %MON forcing_qnet_sd              =   1.5464197084834E+02
(PID.TID 0000.0001) %MON forcing_qnet_del2            =   1.0217095320463E+00
(PID.TID 0000.0001) %MON forcing_qsw_max              =   0.0000000000000E+00
(PID.TID 0000.0001) %MON forcing_qsw_min              =  -3.0184329151467E+02
(PID.TID 0000.0001) %MON forcing_qsw_mean             =  -1.8596338967801E+02
(PID.TID 0000.0001) %MON forcing_qsw_sd               =   7.8669568596678E+01
(PID.TID 0000.0001) %MON forcing_qsw_del2             =   1.1053681934200E-01
(PID.TID 0000.0001) %MON forcing_empmr_max            =   1.6338816575178E-03
(PID.TID 0000.0001) %MON forcing_empmr_min            =  -9.0951605933070E-04
(PID.TID 0000.0001) %MON forcing_empmr_mean           =   1.2124558864342E-05
(PID.TID 0000.0001) %MON forcing_empmr_sd             =   1.0982255515927E-04
(PID.TID 0000.0001) %MON forcing_empmr_del2           =   1.9111022480344E-06
(PID.TID 0000.0001) %MON forcing_fu_max               =   2.4731784009269E-01
(PID.TID 0000.0001) %MON forcing_fu_min               =  -2.2180668969530E-01
(PID.TID 0000.0001) %MON forcing_fu_mean              =  -4.2431932916311E-03
(PID.TID 0000.0001) %MON forcing_fu_sd                =   6.4179084459752E-02
(PID.TID 0000.0001) %MON forcing_fu_del2              =   2.0949521901156E-04
(PID.TID 0000.0001) %MON forcing_fv_max               =   2.6891042987167E-01
(PID.TID 0000.0001) %MON forcing_fv_min               =  -3.3164734762358E-01
(PID.TID 0000.0001) %MON forcing_fv_mean              =  -1.3697479651768E-02
(PID.TID 0000.0001) %MON forcing_fv_sd                =   7.5554869292200E-02
(PID.TID 0000.0001) %MON forcing_fv_del2              =   2.3767012652966E-04
(PID.TID 0000.0001) %MON trAdv_CFL_u_max              =   4.4206065545096E-02
(PID.TID 0000.0001) %MON trAdv_CFL_v_max              =   6.5544241162208E-02
(PID.TID 0000.0001) %MON trAdv_CFL_w_max              =   2.2824494845618E-01
(PID.TID 0000.0001) %MON advcfl_uvel_max              =   4.0645565239480E-02
(PID.TID 0000.0001) %MON advcfl_vvel_max              =   5.0439733773369E-02
(PID.TID 0000.0001) %MON advcfl_wvel_max              =   2.4998564742323E-01
(PID.TID 0000.0001) %MON advcfl_W_hf_max              =   2.7617852668976E-01
(PID.TID 0000.0001) %MON pe_b_mean                    =   1.3519357513198E-02
(PID.TID 0000.0001) %MON ke_max                       =   1.0997758088102E-02
(PID.TID 0000.0001) %MON ke_mean                      =   4.3463075121858E-05
(PID.TID 0000.0001) %MON ke_vol                       =   1.3604146891287E+22
(PID.TID 0000.0001) %MON vort_r_min                   =  -6.5474288048486E-07
(PID.TID 0000.0001) %MON vort_r_max                   =   7.4438507844315E-07
(PID.TID 0000.0001) %MON vort_a_mean                  =  -2.0556865257794E-05
(PID.TID 0000.0001) %MON vort_a_sd                    =   7.5247416196648E-05
(PID.TID 0000.0001) %MON vort_p_mean                  =  -2.4859231938669E-05
(PID.TID 0000.0001) %MON vort_p_sd                    =   1.2920612661096E-04
(PID.TID 0000.0001) %MON surfExpan_theta_mean         =   1.7421758056827E-03
(PID.TID 0000.0001) %MON surfExpan_salt_mean          =  -3.9731039758436E-03
(PID.TID 0000.0001) // =======================================================
(PID.TID 0000.0001) // End MONITOR dynamic field statistics
(PID.TID 0000.0001) // =======================================================
(PID.TID 0000.0001) // =======================================================
(PID.TID 0000.0001) // Begin MONITOR SEAICE statistics
(PID.TID 0000.0001) // =======================================================
(PID.TID 0000.0001) %MON seaice_tsnumber              =                     7
(PID.TID 0000.0001) %MON seaice_time_sec              =   6.0480000000000E+05
(PID.TID 0000.0001) %MON seaice_uice_max              =   1.2380052234535E-01
(PID.TID 0000.0001) %MON seaice_uice_min              =  -1.7560371761352E-01
(PID.TID 0000.0001) %MON seaice_uice_mean             =  -5.8625977257229E-04
(PID.TID 0000.0001) %MON seaice_uice_sd               =   1.2240326679273E-02
(PID.TID 0000.0001) %MON seaice_uice_del2             =   1.7636115172377E-04
(PID.TID 0000.0001) %MON seaice_vice_max              =   1.6087200574941E-01
(PID.TID 0000.0001) %MON seaice_vice_min              =  -1.7121207380920E-01
(PID.TID 0000.0001) %MON seaice_vice_mean             =   1.1519492028910E-03
(PID.TID 0000.0001) %MON seaice_vice_sd               =   1.5520475132885E-02
(PID.TID 0000.0001) %MON seaice_vice_del2             =   1.1752578617383E-04
(PID.TID 0000.0001) %MON seaice_area_max              =   9.4565946465603E-01
(PID.TID 0000.0001) %MON seaice_area_min              =   0.0000000000000E+00
(PID.TID 0000.0001) %MON seaice_area_mean             =   2.0102530763041E-02
(PID.TID 0000.0001) %MON seaice_area_sd               =   1.2819649049070E-01
(PID.TID 0000.0001) %MON seaice_area_del2             =   9.8633124145317E-04
(PID.TID 0000.0001) %MON seaice_heff_max              =   6.2489583770921E-01
(PID.TID 0000.0001) %MON seaice_heff_min              =   0.0000000000000E+00
(PID.TID 0000.0001) %MON seaice_heff_mean             =   1.1791494610845E-02
(PID.TID 0000.0001) %MON seaice_heff_sd               =   7.7005794140454E-02
(PID.TID 0000.0001) %MON seaice_heff_del2             =   5.5101307531992E-04
(PID.TID 0000.0001) %MON seaice_hsnow_max             =   1.2152452671758E-02
(PID.TID 0000.0001) %MON seaice_hsnow_min             =   0.0000000000000E+00
(PID.TID 0000.0001) %MON seaice_hsnow_mean            =   1.1329919144750E-04
(PID.TID 0000.0001) %MON seaice_hsnow_sd              =   8.4549220574946E-04
(PID.TID 0000.0001) %MON seaice_hsnow_del2            =   1.1324562439091E-05
(PID.TID 0000.0001) // =======================================================
(PID.TID 0000.0001) // End MONITOR SEAICE statistics
(PID.TID 0000.0001) // =======================================================
 EXTERNAL_FIELDS_LOAD,         7 : iP,iLd,i0,i1=   12    1   12    1 ; Wght=  0.2666666667  0.7333333333
 SEAICE_LSR: Residual Initial ipass,Uice,Vice=         1  7.84011685E-04  4.65080900E-04
 SEAICE_LSR (ipass=        1) iters,dU,Resid=       26  2.49453236E-14  3.29732523E-16
 SEAICE_LSR (ipass=        1) iters,dV,Resid=       26  1.48839274E-13  5.24011431E-16
 SEAICE_LSR: Residual Initial ipass,Uice,Vice=         2  3.03271612E-04  1.73421541E-04
 SEAICE_LSR (ipass=        2) iters,dU,Resid=       24  8.32268282E-14  1.15191694E-15
 SEAICE_LSR (ipass=        2) iters,dV,Resid=       24  2.47191156E-13  9.51179099E-16
 cg2d: Sum(rhs),rhsMax =   3.44786710458201E-01  1.99022938931198E+01
(PID.TID 0000.0001)      cg2d_init_res =   7.47046310909607E-02
(PID.TID 0000.0001)      cg2d_iters(min,last) =      -1     101
(PID.TID 0000.0001)      cg2d_last_res =   7.91098208349557E-10
(PID.TID 0000.0001) // =======================================================
(PID.TID 0000.0001) // Begin MONITOR dynamic field statistics
(PID.TID 0000.0001) // =======================================================
(PID.TID 0000.0001) %MON time_tsnumber                =                     8
(PID.TID 0000.0001) %MON time_secondsf                =   6.9120000000000E+05
(PID.TID 0000.0001) %MON dynstat_eta_max              =   1.5258961566181E+04
(PID.TID 0000.0001) %MON dynstat_eta_min              =  -2.2588194712011E+04
(PID.TID 0000.0001) %MON dynstat_eta_mean             =  -1.0362729290541E+02
(PID.TID 0000.0001) %MON dynstat_eta_sd               =   7.2825679339467E+03
(PID.TID 0000.0001) %MON dynstat_eta_del2             =   9.4222581526274E+01
(PID.TID 0000.0001) %MON dynstat_uvel_max             =   1.2230589768275E-01
(PID.TID 0000.0001) %MON dynstat_uvel_min             =  -1.4423234875062E-01
(PID.TID 0000.0001) %MON dynstat_uvel_mean            =  -4.0413324269610E-05
(PID.TID 0000.0001) %MON dynstat_uvel_sd              =   7.5610260064473E-03
(PID.TID 0000.0001) %MON dynstat_uvel_del2            =   3.6076800340409E-05
(PID.TID 0000.0001) %MON dynstat_vvel_max             =   1.9391224352448E-01
(PID.TID 0000.0001) %MON dynstat_vvel_min             =  -1.8030365099715E-01
(PID.TID 0000.0001) %MON dynstat_vvel_mean            =  -4.9241189156637E-04
(PID.TID 0000.0001) %MON dynstat_vvel_sd              =   7.7901762988015E-03
(PID.TID 0000.0001) %MON dynstat_vvel_del2            =   3.7194204317361E-05
(PID.TID 0000.0001) %MON dynstat_wvel_max             =   5.4269347767462E+00
(PID.TID 0000.0001) %MON dynstat_wvel_min             =  -9.6713250006725E+00
(PID.TID 0000.0001) %MON dynstat_wvel_mean            =  -6.0042410787694E-06
(PID.TID 0000.0001) %MON dynstat_wvel_sd              =   2.5577032741704E-01
(PID.TID 0000.0001) %MON dynstat_wvel_del2            =   1.9457825130706E-03
(PID.TID 0000.0001) %MON dynstat_theta_max            =   2.9438772410920E+01
(PID.TID 0000.0001) %MON dynstat_theta_min            =  -1.8943600500693E+00
(PID.TID 0000.0001) %MON dynstat_theta_mean           =   3.5922804334155E+00
(PID.TID 0000.0001) %MON dynstat_theta_sd             =   4.4289165596358E+00
(PID.TID 0000.0001) %MON dynstat_theta_del2           =   2.3051135832755E-03
(PID.TID 0000.0001) %MON dynstat_salt_max             =   4.0715808469673E+01
(PID.TID 0000.0001) %MON dynstat_salt_min             =   1.6289448778579E+01
(PID.TID 0000.0001) %MON dynstat_salt_mean            =   3.4721535834005E+01
(PID.TID 0000.0001) %MON dynstat_salt_sd              =   4.8725103367655E-01
(PID.TID 0000.0001) %MON dynstat_salt_del2            =   5.1343454308460E-04
(PID.TID 0000.0001) %MON forcing_qnet_max             =   6.9646430421985E+02
(PID.TID 0000.0001) %MON forcing_qnet_min             =  -3.1134906394431E+02
(PID.TID 0000.0001) %MON forcing_qnet_mean            =  -2.7740458187808E+01
(PID.TID 0000.0001) %MON forcing_qnet_sd              =   1.5109463837152E+02
(PID.TID 0000.0001) %MON forcing_qnet_del2            =   9.8769519962804E-01
(PID.TID 0000.0001) %MON forcing_qsw_max              =   0.0000000000000E+00
(PID.TID 0000.0001) %MON forcing_qsw_min              =  -3.0183129457886E+02
(PID.TID 0000.0001) %MON forcing_qsw_mean             =  -1.8596948126549E+02
(PID.TID 0000.0001) %MON forcing_qsw_sd               =   7.8572368848557E+01
(PID.TID 0000.0001) %MON forcing_qsw_del2             =   1.1074849619966E-01
(PID.TID 0000.0001) %MON forcing_empmr_max            =   1.6190670809522E-03
(PID.TID 0000.0001) %MON forcing_empmr_min            =  -4.5708705964117E-04
(PID.TID 0000.0001) %MON forcing_empmr_mean           =   1.3540238182781E-05
(PID.TID 0000.0001) %MON forcing_empmr_sd             =   1.1074932804503E-04
(PID.TID 0000.0001) %MON forcing_empmr_del2           =   1.7285989200145E-06
(PID.TID 0000.0001) %MON forcing_fu_max               =   2.4726979082249E-01
(PID.TID 0000.0001) %MON forcing_fu_min               =  -2.2495248635365E-01
(PID.TID 0000.0001) %MON forcing_fu_mean              =  -4.1948265497745E-03
(PID.TID 0000.0001) %MON forcing_fu_sd                =   6.4265979234386E-02
(PID.TID 0000.0001) %MON forcing_fu_del2              =   2.1090617918378E-04
(PID.TID 0000.0001) %MON forcing_fv_max               =   2.7159367144430E-01
(PID.TID 0000.0001) %MON forcing_fv_min               =  -3.3243525155752E-01
(PID.TID 0000.0001) %MON forcing_fv_mean              =  -1.3697937163404E-02
(PID.TID 0000.0001) %MON forcing_fv_sd                =   7.5649849209159E-02
(PID.TID 0000.0001) %MON forcing_fv_del2              =   2.3882639795431E-04
(PID.TID 0000.0001) %MON trAdv_CFL_u_max              =   4.5062786182542E-02
(PID.TID 0000.0001) %MON trAdv_CFL_v_max              =   7.1536831769699E-02
(PID.TID 0000.0001) %MON trAdv_CFL_w_max              =   2.4801016471193E-01
(PID.TID 0000.0001) %MON advcfl_uvel_max              =   4.4568951031477E-02
(PID.TID 0000.0001) %MON advcfl_vvel_max              =   5.4936665792162E-02
(PID.TID 0000.0001) %MON advcfl_wvel_max              =   2.7164741792469E-01
(PID.TID 0000.0001) %MON advcfl_W_hf_max              =   3.0009462359416E-01
(PID.TID 0000.0001) %MON pe_b_mean                    =   1.3515413757464E-02
(PID.TID 0000.0001) %MON ke_max                       =   1.3164550153364E-02
(PID.TID 0000.0001) %MON ke_mean                      =   5.4531613785226E-05
(PID.TID 0000.0001) %MON ke_vol                       =   1.3604143151775E+22
(PID.TID 0000.0001) %MON vort_r_min                   =  -7.1536053810885E-07
(PID.TID 0000.0001) %MON vort_r_max                   =   8.0479084717692E-07
(PID.TID 0000.0001) %MON vort_a_mean                  =  -2.0556865257795E-05
(PID.TID 0000.0001) %MON vort_a_sd                    =   7.5247442376141E-05
(PID.TID 0000.0001) %MON vort_p_mean                  =  -2.4859237494725E-05
(PID.TID 0000.0001) %MON vort_p_sd                    =   1.2920599051484E-04
(PID.TID 0000.0001) %MON surfExpan_theta_mean         =   1.0634152671283E-04
(PID.TID 0000.0001) %MON surfExpan_salt_mean          =  -4.3487608469304E-03
(PID.TID 0000.0001) // =======================================================
(PID.TID 0000.0001) // End MONITOR dynamic field statistics
(PID.TID 0000.0001) // =======================================================
(PID.TID 0000.0001) // =======================================================
(PID.TID 0000.0001) // Begin MONITOR SEAICE statistics
(PID.TID 0000.0001) // =======================================================
(PID.TID 0000.0001) %MON seaice_tsnumber              =                     8
(PID.TID 0000.0001) %MON seaice_time_sec              =   6.9120000000000E+05
(PID.TID 0000.0001) %MON seaice_uice_max              =   1.7834934790465E-01
(PID.TID 0000.0001) %MON seaice_uice_min              =  -2.0958605808001E-01
(PID.TID 0000.0001) %MON seaice_uice_mean             =  -5.7058195540227E-04
(PID.TID 0000.0001) %MON seaice_uice_sd               =   1.4064683905818E-02
(PID.TID 0000.0001) %MON seaice_uice_del2             =   2.2969746535269E-04
(PID.TID 0000.0001) %MON seaice_vice_max              =   1.6318932882525E-01
(PID.TID 0000.0001) %MON seaice_vice_min              =  -1.7733464320002E-01
(PID.TID 0000.0001) %MON seaice_vice_mean             =   1.2352730698024E-03
(PID.TID 0000.0001) %MON seaice_vice_sd               =   1.5667884859618E-02
(PID.TID 0000.0001) %MON seaice_vice_del2             =   1.2094466128699E-04
(PID.TID 0000.0001) %MON seaice_area_max              =   9.6695282675032E-01
(PID.TID 0000.0001) %MON seaice_area_min              =   0.0000000000000E+00
(PID.TID 0000.0001) %MON seaice_area_mean             =   2.1864676613958E-02
(PID.TID 0000.0001) %MON seaice_area_sd               =   1.3606375813688E-01
(PID.TID 0000.0001) %MON seaice_area_del2             =   9.8653436710074E-04
(PID.TID 0000.0001) %MON seaice_heff_max              =   6.6718627250458E-01
(PID.TID 0000.0001) %MON seaice_heff_min              =   0.0000000000000E+00
(PID.TID 0000.0001) %MON seaice_heff_mean             =   1.3301409770134E-02
(PID.TID 0000.0001) %MON seaice_heff_sd               =   8.4567197831276E-02
(PID.TID 0000.0001) %MON seaice_heff_del2             =   5.7292433251747E-04
(PID.TID 0000.0001) %MON seaice_hsnow_max             =   1.5479021831691E-02
(PID.TID 0000.0001) %MON seaice_hsnow_min             =   0.0000000000000E+00
(PID.TID 0000.0001) %MON seaice_hsnow_mean            =   1.4987749084645E-04
(PID.TID 0000.0001) %MON seaice_hsnow_sd              =   1.0946470456170E-03
(PID.TID 0000.0001) %MON seaice_hsnow_del2            =   1.4568546822963E-05
(PID.TID 0000.0001) // =======================================================
(PID.TID 0000.0001) // End MONITOR SEAICE statistics
(PID.TID 0000.0001) // =======================================================
 EXTERNAL_FIELDS_LOAD,         8 : iP,iLd,i0,i1=   12    1   12    1 ; Wght=  0.2333333333  0.7666666667
 SEAICE_LSR: Residual Initial ipass,Uice,Vice=         1  5.28188606E-04  5.26282952E-04
 SEAICE_LSR (ipass=        1) iters,dU,Resid=       34  1.51843815E-13  4.85147725E-15
 SEAICE_LSR (ipass=        1) iters,dV,Resid=       34  3.94489996E-13  9.12409592E-15
 SEAICE_LSR: Residual Initial ipass,Uice,Vice=         2  2.54141371E-04  2.23169967E-04
 SEAICE_LSR (ipass=        2) iters,dU,Resid=       32  2.93640112E-13  9.75109146E-15
 SEAICE_LSR (ipass=        2) iters,dV,Resid=       32  4.81628626E-13  1.17861964E-14
 cg2d: Sum(rhs),rhsMax =   3.75458108174886E-01  1.99064490355768E+01
(PID.TID 0000.0001)      cg2d_init_res =   7.47164145483183E-02
(PID.TID 0000.0001)      cg2d_iters(min,last) =      -1     101
(PID.TID 0000.0001)      cg2d_last_res =   8.12542558878526E-10
(PID.TID 0000.0001) // =======================================================
(PID.TID 0000.0001) // Begin MONITOR dynamic field statistics
(PID.TID 0000.0001) // =======================================================
(PID.TID 0000.0001) %MON time_tsnumber                =                     9
(PID.TID 0000.0001) %MON time_secondsf                =   7.7760000000000E+05
(PID.TID 0000.0001) %MON dynstat_eta_max              =   1.5337116432505E+04
(PID.TID 0000.0001) %MON dynstat_eta_min              =  -2.2028169787097E+04
(PID.TID 0000.0001) %MON dynstat_eta_mean             =  -1.1286928760880E+02
(PID.TID 0000.0001) %MON dynstat_eta_sd               =   7.2626905943327E+03
(PID.TID 0000.0001) %MON dynstat_eta_del2             =   9.4327018816006E+01
(PID.TID 0000.0001) %MON dynstat_uvel_max             =   1.3207784173214E-01
(PID.TID 0000.0001) %MON dynstat_uvel_min             =  -1.5444578919316E-01
(PID.TID 0000.0001) %MON dynstat_uvel_mean            =   2.5031014492921E-05
(PID.TID 0000.0001) %MON dynstat_uvel_sd              =   8.3314507607369E-03
(PID.TID 0000.0001) %MON dynstat_uvel_del2            =   3.8258422095829E-05
(PID.TID 0000.0001) %MON dynstat_vvel_max             =   2.0644471643405E-01
(PID.TID 0000.0001) %MON dynstat_vvel_min             =  -1.9269346689796E-01
(PID.TID 0000.0001) %MON dynstat_vvel_mean            =  -4.5360370962429E-04
(PID.TID 0000.0001) %MON dynstat_vvel_sd              =   8.5807661693235E-03
(PID.TID 0000.0001) %MON dynstat_vvel_del2            =   3.9373653136280E-05
(PID.TID 0000.0001) %MON dynstat_wvel_max             =   5.6012755070113E+00
(PID.TID 0000.0001) %MON dynstat_wvel_min             =  -1.0308899122128E+01
(PID.TID 0000.0001) %MON dynstat_wvel_mean            =   6.2160498889305E-05
(PID.TID 0000.0001) %MON dynstat_wvel_sd              =   2.6779665000271E-01
(PID.TID 0000.0001) %MON dynstat_wvel_del2            =   1.9974736431205E-03
(PID.TID 0000.0001) %MON dynstat_theta_max            =   2.9443922139519E+01
(PID.TID 0000.0001) %MON dynstat_theta_min            =  -1.9013704180624E+00
(PID.TID 0000.0001) %MON dynstat_theta_mean           =   3.5924415901664E+00
(PID.TID 0000.0001) %MON dynstat_theta_sd             =   4.4293494902195E+00
(PID.TID 0000.0001) %MON dynstat_theta_del2           =   2.2956958766945E-03
(PID.TID 0000.0001) %MON dynstat_salt_max             =   4.0715781411083E+01
(PID.TID 0000.0001) %MON dynstat_salt_min             =   1.5951592586172E+01
(PID.TID 0000.0001) %MON dynstat_salt_mean            =   3.4721542792761E+01
(PID.TID 0000.0001) %MON dynstat_salt_sd              =   4.8722665992495E-01
(PID.TID 0000.0001) %MON dynstat_salt_del2            =   5.0884588131271E-04
(PID.TID 0000.0001) %MON forcing_qnet_max             =   7.0077364512918E+02
(PID.TID 0000.0001) %MON forcing_qnet_min             =  -3.1324629188861E+02
(PID.TID 0000.0001) %MON forcing_qnet_mean            =  -2.7361142770934E+01
(PID.TID 0000.0001) %MON forcing_qnet_sd              =   1.4950239800006E+02
(PID.TID 0000.0001) %MON forcing_qnet_del2            =   8.9660158155502E-01
(PID.TID 0000.0001) %MON forcing_qsw_max              =   0.0000000000000E+00
(PID.TID 0000.0001) %MON forcing_qsw_min              =  -3.0181929764305E+02
(PID.TID 0000.0001) %MON forcing_qsw_mean             =  -1.8597531882415E+02
(PID.TID 0000.0001) %MON forcing_qsw_sd               =   7.8478432782835E+01
(PID.TID 0000.0001) %MON forcing_qsw_del2             =   1.1102150640870E-01
(PID.TID 0000.0001) %MON forcing_empmr_max            =   1.4381282939774E-03
(PID.TID 0000.0001) %MON forcing_empmr_min            =  -4.5888898042300E-04
(PID.TID 0000.0001) %MON forcing_empmr_mean           =   1.0903927756297E-05
(PID.TID 0000.0001) %MON forcing_empmr_sd             =   9.2985009692629E-05
(PID.TID 0000.0001) %MON forcing_empmr_del2           =   1.4700488392864E-06
(PID.TID 0000.0001) %MON forcing_fu_max               =   2.4722174155228E-01
(PID.TID 0000.0001) %MON forcing_fu_min               =  -2.2809828301201E-01
(PID.TID 0000.0001) %MON forcing_fu_mean              =  -4.1432640694908E-03
(PID.TID 0000.0001) %MON forcing_fu_sd                =   6.4366317166514E-02
(PID.TID 0000.0001) %MON forcing_fu_del2              =   2.1254653846737E-04
(PID.TID 0000.0001) %MON forcing_fv_max               =   2.7427691301694E-01
(PID.TID 0000.0001) %MON forcing_fv_min               =  -3.3322315549145E-01
(PID.TID 0000.0001) %MON forcing_fv_mean              =  -1.3700131644158E-02
(PID.TID 0000.0001) %MON forcing_fv_sd                =   7.5749137534368E-02
(PID.TID 0000.0001) %MON forcing_fv_del2              =   2.4014976849074E-04
(PID.TID 0000.0001) %MON trAdv_CFL_u_max              =   4.7681964780160E-02
(PID.TID 0000.0001) %MON trAdv_CFL_v_max              =   7.6412983544074E-02
(PID.TID 0000.0001) %MON trAdv_CFL_w_max              =   2.6363724045686E-01
(PID.TID 0000.0001) %MON advcfl_uvel_max              =   4.7772504968113E-02
(PID.TID 0000.0001) %MON advcfl_vvel_max              =   5.9236599445777E-02
(PID.TID 0000.0001) %MON advcfl_wvel_max              =   2.8877493749824E-01
(PID.TID 0000.0001) %MON advcfl_W_hf_max              =   3.1900353169878E-01
(PID.TID 0000.0001) %MON pe_b_mean                    =   1.3540850735911E-02
(PID.TID 0000.0001) %MON ke_max                       =   1.5119664698174E-02
(PID.TID 0000.0001) %MON ke_mean                      =   6.6143625145010E-05
(PID.TID 0000.0001) %MON ke_vol                       =   1.3604138975632E+22
(PID.TID 0000.0001) %MON vort_r_min                   =  -7.6648190078841E-07
(PID.TID 0000.0001) %MON vort_r_max                   =   8.5160166896601E-07
(PID.TID 0000.0001) %MON vort_a_mean                  =  -2.0556865257795E-05
(PID.TID 0000.0001) %MON vort_a_sd                    =   7.5247465020314E-05
(PID.TID 0000.0001) %MON vort_p_mean                  =  -2.4859241655517E-05
(PID.TID 0000.0001) %MON vort_p_sd                    =   1.2920586832288E-04
(PID.TID 0000.0001) %MON surfExpan_theta_mean         =  -1.0196564838265E-03
(PID.TID 0000.0001) %MON surfExpan_salt_mean          =  -3.3598956828584E-03
(PID.TID 0000.0001) // =======================================================
(PID.TID 0000.0001) // End MONITOR dynamic field statistics
(PID.TID 0000.0001) // =======================================================
(PID.TID 0000.0001) // =======================================================
(PID.TID 0000.0001) // Begin MONITOR SEAICE statistics
(PID.TID 0000.0001) // =======================================================
(PID.TID 0000.0001) %MON seaice_tsnumber              =                     9
(PID.TID 0000.0001) %MON seaice_time_sec              =   7.7760000000000E+05
(PID.TID 0000.0001) %MON seaice_uice_max              =   1.7245247754958E-01
(PID.TID 0000.0001) %MON seaice_uice_min              =  -2.2713473057221E-01
(PID.TID 0000.0001) %MON seaice_uice_mean             =  -6.6674828872217E-04
(PID.TID 0000.0001) %MON seaice_uice_sd               =   1.4899260225958E-02
(PID.TID 0000.0001) %MON seaice_uice_del2             =   2.3207089944370E-04
(PID.TID 0000.0001) %MON seaice_vice_max              =   1.6584903655925E-01
(PID.TID 0000.0001) %MON seaice_vice_min              =  -1.8453309121767E-01
(PID.TID 0000.0001) %MON seaice_vice_mean             =   1.3252833537485E-03
(PID.TID 0000.0001) %MON seaice_vice_sd               =   1.5909822751688E-02
(PID.TID 0000.0001) %MON seaice_vice_del2             =   1.3695992434847E-04
(PID.TID 0000.0001) %MON seaice_area_max              =   9.8126604129667E-01
(PID.TID 0000.0001) %MON seaice_area_min              =   0.0000000000000E+00
(PID.TID 0000.0001) %MON seaice_area_mean             =   2.3321745122960E-02
(PID.TID 0000.0001) %MON seaice_area_sd               =   1.4241917169970E-01
(PID.TID 0000.0001) %MON seaice_area_del2             =   9.3942131999373E-04
(PID.TID 0000.0001) %MON seaice_heff_max              =   7.0559764372322E-01
(PID.TID 0000.0001) %MON seaice_heff_min              =   0.0000000000000E+00
(PID.TID 0000.0001) %MON seaice_heff_mean             =   1.4557518387463E-02
(PID.TID 0000.0001) %MON seaice_heff_sd               =   9.1060359718649E-02
(PID.TID 0000.0001) %MON seaice_heff_del2             =   5.6811643347730E-04
(PID.TID 0000.0001) %MON seaice_hsnow_max             =   1.8937098411807E-02
(PID.TID 0000.0001) %MON seaice_hsnow_min             =   0.0000000000000E+00
(PID.TID 0000.0001) %MON seaice_hsnow_mean            =   1.9073662921872E-04
(PID.TID 0000.0001) %MON seaice_hsnow_sd              =   1.3647398119634E-03
(PID.TID 0000.0001) %MON seaice_hsnow_del2            =   1.7491354445489E-05
(PID.TID 0000.0001) // =======================================================
(PID.TID 0000.0001) // End MONITOR SEAICE statistics
(PID.TID 0000.0001) // =======================================================
 EXTERNAL_FIELDS_LOAD,         9 : iP,iLd,i0,i1=   12    1   12    1 ; Wght=  0.2000000000  0.8000000000
 SEAICE_LSR: Residual Initial ipass,Uice,Vice=         1  4.47376999E-04  5.83547043E-04
 SEAICE_LSR (ipass=        1) iters,dU,Resid=       44  1.49089074E-13  8.80902914E-15
 SEAICE_LSR (ipass=        1) iters,dV,Resid=       44  5.32629496E-13  2.66684094E-14
 SEAICE_LSR: Residual Initial ipass,Uice,Vice=         2  2.88171148E-04  2.91685136E-04
 SEAICE_LSR (ipass=        2) iters,dU,Resid=       42  1.91804905E-13  1.15584811E-14
 SEAICE_LSR (ipass=        2) iters,dV,Resid=       42  4.84903784E-13  2.49122624E-14
 cg2d: Sum(rhs),rhsMax =   4.11203868822053E-01  1.99115794977355E+01
(PID.TID 0000.0001)      cg2d_init_res =   7.40331786700575E-02
(PID.TID 0000.0001)      cg2d_iters(min,last) =      -1      99
(PID.TID 0000.0001)      cg2d_last_res =   9.86476788593688E-10
(PID.TID 0000.0001) // =======================================================
(PID.TID 0000.0001) // Begin MONITOR dynamic field statistics
(PID.TID 0000.0001) // =======================================================
(PID.TID 0000.0001) %MON time_tsnumber                =                    10
(PID.TID 0000.0001) %MON time_secondsf                =   8.6400000000000E+05
(PID.TID 0000.0001) %MON dynstat_eta_max              =   1.5135751560581E+04
(PID.TID 0000.0001) %MON dynstat_eta_min              =  -2.4251786250498E+04
(PID.TID 0000.0001) %MON dynstat_eta_mean             =  -1.2364694889046E+02
(PID.TID 0000.0001) %MON dynstat_eta_sd               =   7.2869424784902E+03
(PID.TID 0000.0001) %MON dynstat_eta_del2             =   9.4374322998330E+01
(PID.TID 0000.0001) %MON dynstat_uvel_max             =   1.4025409515073E-01
(PID.TID 0000.0001) %MON dynstat_uvel_min             =  -1.6234355235659E-01
(PID.TID 0000.0001) %MON dynstat_uvel_mean            =   4.9327568955624E-05
(PID.TID 0000.0001) %MON dynstat_uvel_sd              =   9.0562630411904E-03
(PID.TID 0000.0001) %MON dynstat_uvel_del2            =   4.0001436613290E-05
(PID.TID 0000.0001) %MON dynstat_vvel_max             =   2.1609008511128E-01
(PID.TID 0000.0001) %MON dynstat_vvel_min             =  -2.0223810373312E-01
(PID.TID 0000.0001) %MON dynstat_vvel_mean            =  -4.0808234515292E-04
(PID.TID 0000.0001) %MON dynstat_vvel_sd              =   9.3186855180381E-03
(PID.TID 0000.0001) %MON dynstat_vvel_del2            =   4.1137750567857E-05
(PID.TID 0000.0001) %MON dynstat_wvel_max             =   5.6385020457288E+00
(PID.TID 0000.0001) %MON dynstat_wvel_min             =  -1.0793483709444E+01
(PID.TID 0000.0001) %MON dynstat_wvel_mean            =   1.1977483375912E-04
(PID.TID 0000.0001) %MON dynstat_wvel_sd              =   2.7512642100869E-01
(PID.TID 0000.0001) %MON dynstat_wvel_del2            =   2.0122836737306E-03
(PID.TID 0000.0001) %MON dynstat_theta_max            =   2.9452234446905E+01
(PID.TID 0000.0001) %MON dynstat_theta_min            =  -1.9009835867450E+00
(PID.TID 0000.0001) %MON dynstat_theta_mean           =   3.5926057832345E+00
(PID.TID 0000.0001) %MON dynstat_theta_sd             =   4.4297036470070E+00
(PID.TID 0000.0001) %MON dynstat_theta_del2           =   2.3152565752056E-03
(PID.TID 0000.0001) %MON dynstat_salt_max             =   4.0715753407625E+01
(PID.TID 0000.0001) %MON dynstat_salt_min             =   1.5621720681692E+01
(PID.TID 0000.0001) %MON dynstat_salt_mean            =   3.4721551135828E+01
(PID.TID 0000.0001) %MON dynstat_salt_sd              =   4.8718593436903E-01
(PID.TID 0000.0001) %MON dynstat_salt_del2            =   5.0616368672967E-04
(PID.TID 0000.0001) %MON forcing_qnet_max             =   7.0446792408625E+02
(PID.TID 0000.0001) %MON forcing_qnet_min             =  -3.1232390350875E+02
(PID.TID 0000.0001) %MON forcing_qnet_mean            =  -2.8186539143845E+01
(PID.TID 0000.0001) %MON forcing_qnet_sd              =   1.4616035780749E+02
(PID.TID 0000.0001) %MON forcing_qnet_del2            =   8.3872506396286E-01
(PID.TID 0000.0001) %MON forcing_qsw_max              =   0.0000000000000E+00
(PID.TID 0000.0001) %MON forcing_qsw_min              =  -3.0180730070724E+02
(PID.TID 0000.0001) %MON forcing_qsw_mean             =  -1.8597973620668E+02
(PID.TID 0000.0001) %MON forcing_qsw_sd               =   7.8390284287125E+01
(PID.TID 0000.0001) %MON forcing_qsw_del2             =   1.1136014417948E-01
(PID.TID 0000.0001) %MON forcing_empmr_max            =   1.7499480512432E-03
(PID.TID 0000.0001) %MON forcing_empmr_min            =  -4.6070108010606E-04
(PID.TID 0000.0001) %MON forcing_empmr_mean           =   1.2715744140589E-05
(PID.TID 0000.0001) %MON forcing_empmr_sd             =   1.0543920325832E-04
(PID.TID 0000.0001) %MON forcing_empmr_del2           =   1.4652884679585E-06
(PID.TID 0000.0001) %MON forcing_fu_max               =   2.4734156444157E-01
(PID.TID 0000.0001) %MON forcing_fu_min               =  -2.3124407967036E-01
(PID.TID 0000.0001) %MON forcing_fu_mean              =  -4.0947055475559E-03
(PID.TID 0000.0001) %MON forcing_fu_sd                =   6.4478847481587E-02
(PID.TID 0000.0001) %MON forcing_fu_del2              =   2.1441075918894E-04
(PID.TID 0000.0001) %MON forcing_fv_max               =   2.7696015458957E-01
(PID.TID 0000.0001) %MON forcing_fv_min               =  -3.3401105942538E-01
(PID.TID 0000.0001) %MON forcing_fv_mean              =  -1.3706995913479E-02
(PID.TID 0000.0001) %MON forcing_fv_sd                =   7.5852979781363E-02
(PID.TID 0000.0001) %MON forcing_fv_del2              =   2.4162974660106E-04
(PID.TID 0000.0001) %MON trAdv_CFL_u_max              =   5.0136045466507E-02
(PID.TID 0000.0001) %MON trAdv_CFL_v_max              =   8.0223526207981E-02
(PID.TID 0000.0001) %MON trAdv_CFL_w_max              =   2.7522580154057E-01
(PID.TID 0000.0001) %MON advcfl_uvel_max              =   5.0231287067666E-02
(PID.TID 0000.0001) %MON advcfl_vvel_max              =   6.2663315210385E-02
(PID.TID 0000.0001) %MON advcfl_wvel_max              =   3.0147677746720E-01
(PID.TID 0000.0001) %MON advcfl_W_hf_max              =   3.3302579921533E-01
(PID.TID 0000.0001) %MON pe_b_mean                    =   1.3602713643155E-02
(PID.TID 0000.0001) %MON ke_max                       =   1.6771171157234E-02
(PID.TID 0000.0001) %MON ke_mean                      =   7.8043890365636E-05
(PID.TID 0000.0001) %MON ke_vol                       =   1.3604135612593E+22
(PID.TID 0000.0001) %MON vort_r_min                   =  -8.0848554573654E-07
(PID.TID 0000.0001) %MON vort_r_max                   =   8.7642382381895E-07
(PID.TID 0000.0001) %MON vort_a_mean                  =  -2.0556865257795E-05
(PID.TID 0000.0001) %MON vort_a_sd                    =   7.5247481704775E-05
(PID.TID 0000.0001) %MON vort_p_mean                  =  -2.4859242489687E-05
(PID.TID 0000.0001) %MON vort_p_sd                    =   1.2920581098515E-04
(PID.TID 0000.0001) %MON surfExpan_theta_mean         =  -1.7184779724983E-03
(PID.TID 0000.0001) %MON surfExpan_salt_mean          =  -3.8879500243859E-03
(PID.TID 0000.0001) // =======================================================
(PID.TID 0000.0001) // End MONITOR dynamic field statistics
(PID.TID 0000.0001) // =======================================================
(PID.TID 0000.0001) // =======================================================
(PID.TID 0000.0001) // Begin MONITOR SEAICE statistics
(PID.TID 0000.0001) // =======================================================
(PID.TID 0000.0001) %MON seaice_tsnumber              =                    10
(PID.TID 0000.0001) %MON seaice_time_sec              =   8.6400000000000E+05
(PID.TID 0000.0001) %MON seaice_uice_max              =   1.7314891543641E-01
(PID.TID 0000.0001) %MON seaice_uice_min              =  -2.3167466569709E-01
(PID.TID 0000.0001) %MON seaice_uice_mean             =  -6.3550508909075E-04
(PID.TID 0000.0001) %MON seaice_uice_sd               =   1.5027693710855E-02
(PID.TID 0000.0001) %MON seaice_uice_del2             =   2.2433244098224E-04
(PID.TID 0000.0001) %MON seaice_vice_max              =   1.6914203251757E-01
(PID.TID 0000.0001) %MON seaice_vice_min              =  -1.9231978633805E-01
(PID.TID 0000.0001) %MON seaice_vice_mean             =   1.4131088888786E-03
(PID.TID 0000.0001) %MON seaice_vice_sd               =   1.6241305610186E-02
(PID.TID 0000.0001) %MON seaice_vice_del2             =   1.3591615344854E-04
(PID.TID 0000.0001) %MON seaice_area_max              =   9.9122972367033E-01
(PID.TID 0000.0001) %MON seaice_area_min              =   0.0000000000000E+00
(PID.TID 0000.0001) %MON seaice_area_mean             =   2.4792142013416E-02
(PID.TID 0000.0001) %MON seaice_area_sd               =   1.4783338105272E-01
(PID.TID 0000.0001) %MON seaice_area_del2             =   9.0555718244030E-04
(PID.TID 0000.0001) %MON seaice_heff_max              =   7.4146794293946E-01
(PID.TID 0000.0001) %MON seaice_heff_min              =   0.0000000000000E+00
(PID.TID 0000.0001) %MON seaice_heff_mean             =   1.5978808594581E-02
(PID.TID 0000.0001) %MON seaice_heff_sd               =   9.7527246095150E-02
(PID.TID 0000.0001) %MON seaice_heff_del2             =   5.6114648739364E-04
(PID.TID 0000.0001) %MON seaice_hsnow_max             =   2.2469981883609E-02
(PID.TID 0000.0001) %MON seaice_hsnow_min             =   0.0000000000000E+00
(PID.TID 0000.0001) %MON seaice_hsnow_mean            =   2.3565397237504E-04
(PID.TID 0000.0001) %MON seaice_hsnow_sd              =   1.6545555014384E-03
(PID.TID 0000.0001) %MON seaice_hsnow_del2            =   2.0103678156894E-05
(PID.TID 0000.0001) // =======================================================
(PID.TID 0000.0001) // End MONITOR SEAICE statistics
(PID.TID 0000.0001) // =======================================================
 Compute Stats, Diag. #     23  ETAN      vol(   0 ): 3.639E+15  Parms: SM      M1      
 Compute Stats, Diag. #     30  UVEL      vol(   0 ): 1.250E+23  Parms: UUR     MR      
 Compute Stats, Diag. #     31  VVEL      vol(   0 ): 1.262E+23  Parms: VVR     MR      
 Compute Stats, Diag. #     32  WVEL      vol(   0 ): 1.501E+23  Parms: WM      LR      
 Compute Stats, Diag. #     26  THETA     vol(   0 ): 1.360E+23  Parms: SMR     MR      
 Compute Stats, Diag. #     27  SALT      vol(   0 ): 1.360E+23  Parms: SMR     MR      
 Compute Stats, Diag. #     80  CONVADJ   vol(   0 ): 1.501E+23  Parms: SMR     LR      
 Compute Stats, Diag. #     25  DETADT2   vol(   0 ): 3.639E+15  Parms: SM      M1      
 Compute Stats, Diag. #    241  SIheff    vol(   0 ): 3.639E+15  Parms: SM      M1      
 Compute Stats, Diag. #    241  SIheff    vol(   1 ): 1.289E+15  Parms: SM      M1      
 Compute Stats, Diag. #    241  SIheff    vol(   3 ): 7.935E+14  Parms: SM      M1      
 Compute Stats, Diag. #    238  SIarea    vol(   0 ): 3.639E+15  Parms: SM      M1      
 Compute Stats, Diag. #    238  SIarea    vol(   1 ): 1.289E+15  Parms: SM      M1      
 Compute Stats, Diag. #    238  SIarea    vol(   3 ): 7.935E+14  Parms: SM      M1      
 Compute Stats, Diag. #    243  SIhsnow   vol(   0 ): 3.639E+15  Parms: SM      M1      
 Compute Stats, Diag. #    243  SIhsnow   vol(   1 ): 1.289E+15  Parms: SM      M1      
 Compute Stats, Diag. #    243  SIhsnow   vol(   3 ): 7.935E+14  Parms: SM      M1      
 Compute Stats, Diag. #    255  SIuice    vol(   0 ): 3.457E+15  Parms: UU      M1      
 Compute Stats, Diag. #    255  SIuice    vol(   1 ): 1.262E+15  Parms: UU      M1      
 Compute Stats, Diag. #    255  SIuice    vol(   3 ): 7.592E+14  Parms: UU      M1      
 Compute Stats, Diag. #    256  SIvice    vol(   0 ): 3.478E+15  Parms: VV      M1      
 Compute Stats, Diag. #    256  SIvice    vol(   1 ): 1.293E+15  Parms: VV      M1      
 Compute Stats, Diag. #    256  SIvice    vol(   3 ): 7.207E+14  Parms: VV      M1      
(PID.TID 0000.0001) DIAGSTATS_CLOSE_IO: close file: dynStDiag.0000000000.txt , unit=     9
(PID.TID 0000.0001) DIAGSTATS_CLOSE_IO: close file: seaiceStDiag.0000000000.txt , unit=    10
(PID.TID 0000.0001) %CHECKPOINT        10 ckptA
(PID.TID 0000.0001)   Seconds in section "ALL                    [THE_MODEL_MAIN]":
(PID.TID 0000.0001)           User time:   16.856942200101912
(PID.TID 0000.0001)         System time:  0.16400900483131409
(PID.TID 0000.0001)     Wall clock time:   17.050212144851685
(PID.TID 0000.0001)          No. starts:           1
(PID.TID 0000.0001)           No. stops:           1
(PID.TID 0000.0001)   Seconds in section "INITIALISE_FIXED       [THE_MODEL_MAIN]":
(PID.TID 0000.0001)           User time:  0.15590700786560774
(PID.TID 0000.0001)         System time:   6.3808999955654144E-002
(PID.TID 0000.0001)     Wall clock time:  0.22467398643493652
(PID.TID 0000.0001)          No. starts:           1
(PID.TID 0000.0001)           No. stops:           1
(PID.TID 0000.0001)   Seconds in section "THE_MAIN_LOOP          [THE_MODEL_MAIN]":
(PID.TID 0000.0001)           User time:   16.700997576117516
(PID.TID 0000.0001)         System time:  0.10019700229167938
(PID.TID 0000.0001)     Wall clock time:   16.825503110885620
(PID.TID 0000.0001)          No. starts:           1
(PID.TID 0000.0001)           No. stops:           1
(PID.TID 0000.0001)   Seconds in section "INITIALISE_VARIA    [THE_MAIN_LOOP]":
(PID.TID 0000.0001)           User time:  0.34384101629257202
(PID.TID 0000.0001)         System time:   5.6040003895759583E-002
(PID.TID 0000.0001)     Wall clock time:  0.39988493919372559
(PID.TID 0000.0001)          No. starts:           1
(PID.TID 0000.0001)           No. stops:           1
(PID.TID 0000.0001)   Seconds in section "MAIN LOOP           [THE_MAIN_LOOP]":
(PID.TID 0000.0001)           User time:   16.357133030891418
(PID.TID 0000.0001)         System time:   4.4153004884719849E-002
(PID.TID 0000.0001)     Wall clock time:   16.425592899322510
(PID.TID 0000.0001)          No. starts:           1
(PID.TID 0000.0001)           No. stops:           1
(PID.TID 0000.0001)   Seconds in section "MAIN_DO_LOOP        [THE_MAIN_LOOP]":
(PID.TID 0000.0001)           User time:   16.357055485248566
(PID.TID 0000.0001)         System time:   4.4151008129119873E-002
(PID.TID 0000.0001)     Wall clock time:   16.425513267517090
(PID.TID 0000.0001)          No. starts:          10
(PID.TID 0000.0001)           No. stops:          10
(PID.TID 0000.0001)   Seconds in section "FORWARD_STEP        [MAIN_DO_LOOP]":
(PID.TID 0000.0001)           User time:   16.356919765472412
(PID.TID 0000.0001)         System time:   4.4150002300739288E-002
(PID.TID 0000.0001)     Wall clock time:   16.425372600555420
(PID.TID 0000.0001)          No. starts:          10
(PID.TID 0000.0001)           No. stops:          10
(PID.TID 0000.0001)   Seconds in section "UPDATE_R_STAR       [FORWARD_STEP]":
(PID.TID 0000.0001)           User time:  0.43086761236190796
(PID.TID 0000.0001)         System time:   0.0000000000000000
(PID.TID 0000.0001)     Wall clock time:  0.43091773986816406
(PID.TID 0000.0001)          No. starts:          20
(PID.TID 0000.0001)           No. stops:          20
(PID.TID 0000.0001)   Seconds in section "DO_STATEVARS_DIAGS  [FORWARD_STEP]":
(PID.TID 0000.0001)           User time:  0.70330327749252319
(PID.TID 0000.0001)         System time:   1.1900067329406738E-004
(PID.TID 0000.0001)     Wall clock time:  0.70350623130798340
(PID.TID 0000.0001)          No. starts:          30
(PID.TID 0000.0001)           No. stops:          30
(PID.TID 0000.0001)   Seconds in section "LOAD_FIELDS_DRIVER  [FORWARD_STEP]":
(PID.TID 0000.0001)           User time:  0.17405092716217041
(PID.TID 0000.0001)         System time:   4.1749998927116394E-003
(PID.TID 0000.0001)     Wall clock time:  0.20207309722900391
(PID.TID 0000.0001)          No. starts:          10
(PID.TID 0000.0001)           No. stops:          10
(PID.TID 0000.0001)   Seconds in section "EXF_GETFORCING     [LOAD_FLDS_DRIVER]":
(PID.TID 0000.0001)           User time:  0.16648495197296143
(PID.TID 0000.0001)         System time:   4.1719973087310791E-003
(PID.TID 0000.0001)     Wall clock time:  0.19452071189880371
(PID.TID 0000.0001)          No. starts:          10
(PID.TID 0000.0001)           No. stops:          10
(PID.TID 0000.0001)   Seconds in section "EXTERNAL_FLDS_LOAD [LOAD_FLDS_DRIVER]":
(PID.TID 0000.0001)           User time:   7.2798132896423340E-003
(PID.TID 0000.0001)         System time:   0.0000000000000000
(PID.TID 0000.0001)     Wall clock time:   7.2801113128662109E-003
(PID.TID 0000.0001)          No. starts:          10
(PID.TID 0000.0001)           No. stops:          10
(PID.TID 0000.0001)   Seconds in section "DO_ATMOSPHERIC_PHYS [FORWARD_STEP]":
(PID.TID 0000.0001)           User time:   9.5546245574951172E-005
(PID.TID 0000.0001)         System time:   0.0000000000000000
(PID.TID 0000.0001)     Wall clock time:   9.6559524536132812E-005
(PID.TID 0000.0001)          No. starts:          10
(PID.TID 0000.0001)           No. stops:          10
(PID.TID 0000.0001)   Seconds in section "DO_OCEANIC_PHYS     [FORWARD_STEP]":
(PID.TID 0000.0001)           User time:   5.4385369420051575
(PID.TID 0000.0001)         System time:   1.1851005256175995E-002
(PID.TID 0000.0001)     Wall clock time:   5.4505000114440918
(PID.TID 0000.0001)          No. starts:          10
(PID.TID 0000.0001)           No. stops:          10
(PID.TID 0000.0001)   Seconds in section "SEAICE_MODEL    [DO_OCEANIC_PHYS]":
(PID.TID 0000.0001)           User time:   2.2158291339874268
(PID.TID 0000.0001)         System time:   1.1499971151351929E-004
(PID.TID 0000.0001)     Wall clock time:   2.2159988880157471
(PID.TID 0000.0001)          No. starts:          10
(PID.TID 0000.0001)           No. stops:          10
(PID.TID 0000.0001)   Seconds in section "SEAICE_DYNSOLVER   [SEAICE_MODEL]":
(PID.TID 0000.0001)           User time:   1.8401798009872437
(PID.TID 0000.0001)         System time:   1.1499971151351929E-004
(PID.TID 0000.0001)     Wall clock time:   1.8403439521789551
(PID.TID 0000.0001)          No. starts:          10
(PID.TID 0000.0001)           No. stops:          10
(PID.TID 0000.0001)   Seconds in section "GGL90_CALC [DO_OCEANIC_PHYS]":
(PID.TID 0000.0001)           User time:   2.5336995720863342
(PID.TID 0000.0001)         System time:   7.7390074729919434E-003
(PID.TID 0000.0001)     Wall clock time:   2.5415196418762207
(PID.TID 0000.0001)          No. starts:         120
(PID.TID 0000.0001)           No. stops:         120
(PID.TID 0000.0001)   Seconds in section "DYNAMICS            [FORWARD_STEP]":
(PID.TID 0000.0001)           User time:   3.7737487554550171
(PID.TID 0000.0001)         System time:   0.0000000000000000
(PID.TID 0000.0001)     Wall clock time:   3.7738964557647705
(PID.TID 0000.0001)          No. starts:          10
(PID.TID 0000.0001)           No. stops:          10
(PID.TID 0000.0001)   Seconds in section "UPDATE_CG2D         [FORWARD_STEP]":
(PID.TID 0000.0001)           User time:   8.0075383186340332E-002
(PID.TID 0000.0001)         System time:   0.0000000000000000
(PID.TID 0000.0001)     Wall clock time:   8.0090761184692383E-002
(PID.TID 0000.0001)          No. starts:          10
(PID.TID 0000.0001)           No. stops:          10
(PID.TID 0000.0001)   Seconds in section "SOLVE_FOR_PRESSURE  [FORWARD_STEP]":
(PID.TID 0000.0001)           User time:   1.6612925529479980
(PID.TID 0000.0001)         System time:   0.0000000000000000
(PID.TID 0000.0001)     Wall clock time:   1.6614196300506592
(PID.TID 0000.0001)          No. starts:          10
(PID.TID 0000.0001)           No. stops:          10
(PID.TID 0000.0001)   Seconds in section "MOM_CORRECTION_STEP [FORWARD_STEP]":
(PID.TID 0000.0001)           User time:  0.11631786823272705
(PID.TID 0000.0001)         System time:   0.0000000000000000
(PID.TID 0000.0001)     Wall clock time:  0.11634755134582520
(PID.TID 0000.0001)          No. starts:          10
(PID.TID 0000.0001)           No. stops:          10
(PID.TID 0000.0001)   Seconds in section "INTEGR_CONTINUITY   [FORWARD_STEP]":
(PID.TID 0000.0001)           User time:  0.21468019485473633
(PID.TID 0000.0001)         System time:   0.0000000000000000
(PID.TID 0000.0001)     Wall clock time:  0.21470284461975098
(PID.TID 0000.0001)          No. starts:          10
(PID.TID 0000.0001)           No. stops:          10
(PID.TID 0000.0001)   Seconds in section "CALC_R_STAR         [FORWARD_STEP]":
(PID.TID 0000.0001)           User time:   3.8596034049987793E-002
(PID.TID 0000.0001)         System time:   0.0000000000000000
(PID.TID 0000.0001)     Wall clock time:   3.8620948791503906E-002
(PID.TID 0000.0001)          No. starts:          10
(PID.TID 0000.0001)           No. stops:          10
(PID.TID 0000.0001)   Seconds in section "BLOCKING_EXCHANGES  [FORWARD_STEP]":
(PID.TID 0000.0001)           User time:  0.28014242649078369
(PID.TID 0000.0001)         System time:   0.0000000000000000
(PID.TID 0000.0001)     Wall clock time:  0.28017520904541016
(PID.TID 0000.0001)          No. starts:          20
(PID.TID 0000.0001)           No. stops:          20
(PID.TID 0000.0001)   Seconds in section "THERMODYNAMICS      [FORWARD_STEP]":
(PID.TID 0000.0001)           User time:   2.2415007352828979
(PID.TID 0000.0001)         System time:   0.0000000000000000
(PID.TID 0000.0001)     Wall clock time:   2.2415831089019775
(PID.TID 0000.0001)          No. starts:          10
(PID.TID 0000.0001)           No. stops:          10
(PID.TID 0000.0001)   Seconds in section "TRC_CORRECTION_STEP [FORWARD_STEP]":
(PID.TID 0000.0001)           User time:   9.4771385192871094E-005
(PID.TID 0000.0001)         System time:   0.0000000000000000
(PID.TID 0000.0001)     Wall clock time:   9.2506408691406250E-005
(PID.TID 0000.0001)          No. starts:          10
(PID.TID 0000.0001)           No. stops:          10
(PID.TID 0000.0001)   Seconds in section "DO_STATEVARS_TAVE   [FORWARD_STEP]":
(PID.TID 0000.0001)           User time:   7.5578689575195312E-005
(PID.TID 0000.0001)         System time:   0.0000000000000000
(PID.TID 0000.0001)     Wall clock time:   7.2956085205078125E-005
(PID.TID 0000.0001)          No. starts:          10
(PID.TID 0000.0001)           No. stops:          10
(PID.TID 0000.0001)   Seconds in section "MONITOR             [FORWARD_STEP]":
(PID.TID 0000.0001)           User time:   1.0771859884262085
(PID.TID 0000.0001)         System time:   0.0000000000000000
(PID.TID 0000.0001)     Wall clock time:   1.0772709846496582
(PID.TID 0000.0001)          No. starts:          10
(PID.TID 0000.0001)           No. stops:          10
(PID.TID 0000.0001)   Seconds in section "DO_THE_MODEL_IO     [FORWARD_STEP]":
(PID.TID 0000.0001)           User time:   6.6535830497741699E-002
(PID.TID 0000.0001)         System time:   1.5974998474121094E-002
(PID.TID 0000.0001)     Wall clock time:   8.2523584365844727E-002
(PID.TID 0000.0001)          No. starts:          10
(PID.TID 0000.0001)           No. stops:          10
(PID.TID 0000.0001)   Seconds in section "DO_WRITE_PICKUP     [FORWARD_STEP]":
(PID.TID 0000.0001)           User time:   5.6586265563964844E-002
(PID.TID 0000.0001)         System time:   1.2005999684333801E-002
(PID.TID 0000.0001)     Wall clock time:   6.8593025207519531E-002
(PID.TID 0000.0001)          No. starts:          10
(PID.TID 0000.0001)           No. stops:          10
(PID.TID 0000.0001) // ======================================================
(PID.TID 0000.0001) // Tile <-> Tile communication statistics
(PID.TID 0000.0001) // ======================================================
(PID.TID 0000.0001) // o Tile number: 000001
(PID.TID 0000.0001) //         No. X exchanges =              0
(PID.TID 0000.0001) //            Max. X spins =              0
(PID.TID 0000.0001) //            Min. X spins =     1000000000
(PID.TID 0000.0001) //          Total. X spins =              0
(PID.TID 0000.0001) //            Avg. X spins =       0.00E+00
(PID.TID 0000.0001) //         No. Y exchanges =              0
(PID.TID 0000.0001) //            Max. Y spins =              0
(PID.TID 0000.0001) //            Min. Y spins =     1000000000
(PID.TID 0000.0001) //          Total. Y spins =              0
(PID.TID 0000.0001) //            Avg. Y spins =       0.00E+00
(PID.TID 0000.0001) // o Tile number: 000002
(PID.TID 0000.0001) //         No. X exchanges =              0
(PID.TID 0000.0001) //            Max. X spins =              0
(PID.TID 0000.0001) //            Min. X spins =     1000000000
(PID.TID 0000.0001) //          Total. X spins =              0
(PID.TID 0000.0001) //            Avg. X spins =       0.00E+00
(PID.TID 0000.0001) //         No. Y exchanges =              0
(PID.TID 0000.0001) //            Max. Y spins =              0
(PID.TID 0000.0001) //            Min. Y spins =     1000000000
(PID.TID 0000.0001) //          Total. Y spins =              0
(PID.TID 0000.0001) //            Avg. Y spins =       0.00E+00
(PID.TID 0000.0001) // o Tile number: 000003
(PID.TID 0000.0001) //         No. X exchanges =              0
(PID.TID 0000.0001) //            Max. X spins =              0
(PID.TID 0000.0001) //            Min. X spins =     1000000000
(PID.TID 0000.0001) //          Total. X spins =              0
(PID.TID 0000.0001) //            Avg. X spins =       0.00E+00
(PID.TID 0000.0001) //         No. Y exchanges =              0
(PID.TID 0000.0001) //            Max. Y spins =              0
(PID.TID 0000.0001) //            Min. Y spins =     1000000000
(PID.TID 0000.0001) //          Total. Y spins =              0
(PID.TID 0000.0001) //            Avg. Y spins =       0.00E+00
(PID.TID 0000.0001) // o Tile number: 000004
(PID.TID 0000.0001) //         No. X exchanges =              0
(PID.TID 0000.0001) //            Max. X spins =              0
(PID.TID 0000.0001) //            Min. X spins =     1000000000
(PID.TID 0000.0001) //          Total. X spins =              0
(PID.TID 0000.0001) //            Avg. X spins =       0.00E+00
(PID.TID 0000.0001) //         No. Y exchanges =              0
(PID.TID 0000.0001) //            Max. Y spins =              0
(PID.TID 0000.0001) //            Min. Y spins =     1000000000
(PID.TID 0000.0001) //          Total. Y spins =              0
(PID.TID 0000.0001) //            Avg. Y spins =       0.00E+00
(PID.TID 0000.0001) // o Tile number: 000005
(PID.TID 0000.0001) //         No. X exchanges =              0
(PID.TID 0000.0001) //            Max. X spins =              0
(PID.TID 0000.0001) //            Min. X spins =     1000000000
(PID.TID 0000.0001) //          Total. X spins =              0
(PID.TID 0000.0001) //            Avg. X spins =       0.00E+00
(PID.TID 0000.0001) //         No. Y exchanges =              0
(PID.TID 0000.0001) //            Max. Y spins =              0
(PID.TID 0000.0001) //            Min. Y spins =     1000000000
(PID.TID 0000.0001) //          Total. Y spins =              0
(PID.TID 0000.0001) //            Avg. Y spins =       0.00E+00
(PID.TID 0000.0001) // o Tile number: 000006
(PID.TID 0000.0001) //         No. X exchanges =              0
(PID.TID 0000.0001) //            Max. X spins =              0
(PID.TID 0000.0001) //            Min. X spins =     1000000000
(PID.TID 0000.0001) //          Total. X spins =              0
(PID.TID 0000.0001) //            Avg. X spins =       0.00E+00
(PID.TID 0000.0001) //         No. Y exchanges =              0
(PID.TID 0000.0001) //            Max. Y spins =              0
(PID.TID 0000.0001) //            Min. Y spins =     1000000000
(PID.TID 0000.0001) //          Total. Y spins =              0
(PID.TID 0000.0001) //            Avg. Y spins =       0.00E+00
(PID.TID 0000.0001) // o Tile number: 000007
(PID.TID 0000.0001) //         No. X exchanges =              0
(PID.TID 0000.0001) //            Max. X spins =              0
(PID.TID 0000.0001) //            Min. X spins =     1000000000
(PID.TID 0000.0001) //          Total. X spins =              0
(PID.TID 0000.0001) //            Avg. X spins =       0.00E+00
(PID.TID 0000.0001) //         No. Y exchanges =              0
(PID.TID 0000.0001) //            Max. Y spins =              0
(PID.TID 0000.0001) //            Min. Y spins =     1000000000
(PID.TID 0000.0001) //          Total. Y spins =              0
(PID.TID 0000.0001) //            Avg. Y spins =       0.00E+00
(PID.TID 0000.0001) // o Tile number: 000008
(PID.TID 0000.0001) //         No. X exchanges =              0
(PID.TID 0000.0001) //            Max. X spins =              0
(PID.TID 0000.0001) //            Min. X spins =     1000000000
(PID.TID 0000.0001) //          Total. X spins =              0
(PID.TID 0000.0001) //            Avg. X spins =       0.00E+00
(PID.TID 0000.0001) //         No. Y exchanges =              0
(PID.TID 0000.0001) //            Max. Y spins =              0
(PID.TID 0000.0001) //            Min. Y spins =     1000000000
(PID.TID 0000.0001) //          Total. Y spins =              0
(PID.TID 0000.0001) //            Avg. Y spins =       0.00E+00
(PID.TID 0000.0001) // o Tile number: 000009
(PID.TID 0000.0001) //         No. X exchanges =              0
(PID.TID 0000.0001) //            Max. X spins =              0
(PID.TID 0000.0001) //            Min. X spins =     1000000000
(PID.TID 0000.0001) //          Total. X spins =              0
(PID.TID 0000.0001) //            Avg. X spins =       0.00E+00
(PID.TID 0000.0001) //         No. Y exchanges =              0
(PID.TID 0000.0001) //            Max. Y spins =              0
(PID.TID 0000.0001) //            Min. Y spins =     1000000000
(PID.TID 0000.0001) //          Total. Y spins =              0
(PID.TID 0000.0001) //            Avg. Y spins =       0.00E+00
(PID.TID 0000.0001) // o Tile number: 000010
(PID.TID 0000.0001) //         No. X exchanges =              0
(PID.TID 0000.0001) //            Max. X spins =              0
(PID.TID 0000.0001) //            Min. X spins =     1000000000
(PID.TID 0000.0001) //          Total. X spins =              0
(PID.TID 0000.0001) //            Avg. X spins =       0.00E+00
(PID.TID 0000.0001) //         No. Y exchanges =              0
(PID.TID 0000.0001) //            Max. Y spins =              0
(PID.TID 0000.0001) //            Min. Y spins =     1000000000
(PID.TID 0000.0001) //          Total. Y spins =              0
(PID.TID 0000.0001) //            Avg. Y spins =       0.00E+00
(PID.TID 0000.0001) // o Tile number: 000011
(PID.TID 0000.0001) //         No. X exchanges =              0
(PID.TID 0000.0001) //            Max. X spins =              0
(PID.TID 0000.0001) //            Min. X spins =     1000000000
(PID.TID 0000.0001) //          Total. X spins =              0
(PID.TID 0000.0001) //            Avg. X spins =       0.00E+00
(PID.TID 0000.0001) //         No. Y exchanges =              0
(PID.TID 0000.0001) //            Max. Y spins =              0
(PID.TID 0000.0001) //            Min. Y spins =     1000000000
(PID.TID 0000.0001) //          Total. Y spins =              0
(PID.TID 0000.0001) //            Avg. Y spins =       0.00E+00
(PID.TID 0000.0001) // o Tile number: 000012
(PID.TID 0000.0001) //         No. X exchanges =              0
(PID.TID 0000.0001) //            Max. X spins =              0
(PID.TID 0000.0001) //            Min. X spins =     1000000000
(PID.TID 0000.0001) //          Total. X spins =              0
(PID.TID 0000.0001) //            Avg. X spins =       0.00E+00
(PID.TID 0000.0001) //         No. Y exchanges =              0
(PID.TID 0000.0001) //            Max. Y spins =              0
(PID.TID 0000.0001) //            Min. Y spins =     1000000000
(PID.TID 0000.0001) //          Total. Y spins =              0
(PID.TID 0000.0001) //            Avg. Y spins =       0.00E+00
(PID.TID 0000.0001) // o Thread number: 000001
(PID.TID 0000.0001) //            No. barriers =          19882
(PID.TID 0000.0001) //      Max. barrier spins =              1
(PID.TID 0000.0001) //      Min. barrier spins =              1
(PID.TID 0000.0001) //     Total barrier spins =          19882
(PID.TID 0000.0001) //      Avg. barrier spins =       1.00E+00
PROGRAM MAIN: Execution ended Normally
