(PID.TID 0000.0001) 
(PID.TID 0000.0001) // ======================================================
(PID.TID 0000.0001) //                      MITgcm UV
(PID.TID 0000.0001) //                      =========
(PID.TID 0000.0001) // ======================================================
(PID.TID 0000.0001) // execution environment starting up...
(PID.TID 0000.0001) 
(PID.TID 0000.0001) // MITgcmUV version:  checkpoint69c
(PID.TID 0000.0001) // Build user:        jm_c
(PID.TID 0000.0001) // Build host:        villon
(PID.TID 0000.0001) // Build date:        Tue Dec 10 12:25:01 EST 2024
(PID.TID 0000.0001) 
(PID.TID 0000.0001) // =======================================================
(PID.TID 0000.0001) // Execution Environment parameter file "eedata"
(PID.TID 0000.0001) // =======================================================
(PID.TID 0000.0001) ># Example "eedata" file
(PID.TID 0000.0001) ># Lines beginning "#" are comments
(PID.TID 0000.0001) >#  nTx      :: No. threads per process in X
(PID.TID 0000.0001) >#  nTy      :: No. threads per process in Y
(PID.TID 0000.0001) ># debugMode :: print debug msg (sequence of S/R calls)
(PID.TID 0000.0001) > &EEPARMS
(PID.TID 0000.0001) > useCubedSphereExchange=.TRUE.,
(PID.TID 0000.0001) > nTx=1,
(PID.TID 0000.0001) > nTy=1,
(PID.TID 0000.0001) > /
(PID.TID 0000.0001) ># Note: Some systems use & as the namelist terminator (as shown here).
(PID.TID 0000.0001) >#       Other systems use a / character.
(PID.TID 0000.0001) 
(PID.TID 0000.0001) // =======================================================
(PID.TID 0000.0001) // Computational Grid Specification ( see files "SIZE.h" )
(PID.TID 0000.0001) //                                  ( and "eedata"       )
(PID.TID 0000.0001) // =======================================================
(PID.TID 0000.0001)      nPx =    1 ; /* No. processes in X */
(PID.TID 0000.0001)      nPy =    1 ; /* No. processes in Y */
(PID.TID 0000.0001)      nSx =   12 ; /* No. tiles in X per process */
(PID.TID 0000.0001)      nSy =    1 ; /* No. tiles in Y per process */
(PID.TID 0000.0001)      sNx =   32 ; /* Tile size in X */
(PID.TID 0000.0001)      sNy =   16 ; /* Tile size in Y */
(PID.TID 0000.0001)      OLx =    4 ; /* Tile overlap distance in X */
(PID.TID 0000.0001)      OLy =    4 ; /* Tile overlap distance in Y */
(PID.TID 0000.0001)      nTx =    1 ; /* No. threads in X per process */
(PID.TID 0000.0001)      nTy =    1 ; /* No. threads in Y per process */
(PID.TID 0000.0001)       Nr =   15 ; /* No. levels in the vertical   */
(PID.TID 0000.0001)       Nx =  384 ; /* Total domain size in X ( = nPx*nSx*sNx ) */
(PID.TID 0000.0001)       Ny =   16 ; /* Total domain size in Y ( = nPy*nSy*sNy ) */
(PID.TID 0000.0001)   nTiles =   12 ; /* Total no. tiles per process ( = nSx*nSy ) */
(PID.TID 0000.0001)   nProcs =    1 ; /* Total no. processes ( = nPx*nPy ) */
(PID.TID 0000.0001) nThreads =    1 ; /* Total no. threads per process ( = nTx*nTy ) */
(PID.TID 0000.0001) usingMPI =    F ; /* Flag used to control whether MPI is in use */
(PID.TID 0000.0001)                   /*  note: To execute a program with MPI calls */
(PID.TID 0000.0001)                   /*  it must be launched appropriately e.g     */
(PID.TID 0000.0001)                   /*  "mpirun -np 64 ......"                    */
(PID.TID 0000.0001) useCoupler=   F ; /* Flag used to control communications with   */
(PID.TID 0000.0001)                   /*  other model components, through a coupler */
(PID.TID 0000.0001) useNest2W_parent =    F ;/* Control 2-W Nesting comm */
(PID.TID 0000.0001) useNest2W_child  =    F ;/* Control 2-W Nesting comm */
(PID.TID 0000.0001) debugMode =    F ; /* print debug msg. (sequence of S/R calls)  */
(PID.TID 0000.0001) printMapIncludesZeros=    F ; /* print zeros in Std.Output maps */
(PID.TID 0000.0001) maxLengthPrt1D=   65 /* maxLength of 1D array printed to StdOut */
(PID.TID 0000.0001) 
(PID.TID 0000.0001) // ======================================================
(PID.TID 0000.0001) // Mapping of tiles to threads
(PID.TID 0000.0001) // ======================================================
(PID.TID 0000.0001) // -o- Thread   1, tiles (   1:  12,   1:   1)
(PID.TID 0000.0001) 
(PID.TID 0000.0001) W2_READPARMS: file data.exch2 not found
(PID.TID 0000.0001) => use W2_EXCH2 default: regular 6-facets Cube
(PID.TID 0000.0001) W2_useE2ioLayOut=    T ;/* T: use Exch2 glob IO map; F: use model default */
(PID.TID 0000.0001) W2_mapIO        =  -1 ; /* select option for Exch2 global-IO map */
(PID.TID 0000.0001) W2_printMsg     =  -1 ; /* select option for printing information */
(PID.TID 0000.0001) ===== Start setting W2 TOPOLOGY:
(PID.TID 0000.0001)  write to log-file: w2_tile_topology.0000.log
(PID.TID 0000.0001) =====       setting W2 TOPOLOGY: Done
(PID.TID 0000.0001) 
(PID.TID 0000.0001)  INI_PARMS: opening model parameter file "data"
(PID.TID 0000.0001)  OPEN_COPY_DATA_FILE: opening file data
(PID.TID 0000.0001) // =======================================================
(PID.TID 0000.0001) // Parameter file "data"
(PID.TID 0000.0001) // =======================================================
(PID.TID 0000.0001) ># ====================
(PID.TID 0000.0001) ># | Model parameters |
(PID.TID 0000.0001) ># ====================
(PID.TID 0000.0001) >#
(PID.TID 0000.0001) ># Continuous equation parameters
(PID.TID 0000.0001) > &PARM01
(PID.TID 0000.0001) > tRef=15*20.,
(PID.TID 0000.0001) > sRef=15*35.,
(PID.TID 0000.0001) > viscAh = 3.E5,
(PID.TID 0000.0001) ># background dissipation will be taken care of by IDEMIX
(PID.TID 0000.0001) ># so we turn it off here
(PID.TID 0000.0001) >#viscAr = 1.030905162225000e+05,
(PID.TID 0000.0001) >#viscAr = 1.E-3,
(PID.TID 0000.0001) >#diffKrT= 3.092715486675000e+03,
(PID.TID 0000.0001) >#diffKrT= 3.E-5,
(PID.TID 0000.0001) >#diffKrS= 3.092715486675000e+03,
(PID.TID 0000.0001) >#diffKrS= 3.E-5,
(PID.TID 0000.0001) ># should use this with ggl90 for avoiding local instabilities
(PID.TID 0000.0001) > ivdc_kappa= 1.030905162225000e+08,
(PID.TID 0000.0001) >#ivdc_kappa= 1.,
(PID.TID 0000.0001) > implicitDiffusion=.TRUE.,
(PID.TID 0000.0001) > implicitViscosity=.TRUE.,
(PID.TID 0000.0001) > gravity=9.81,
(PID.TID 0000.0001) > rhoConst=1035.,
(PID.TID 0000.0001) > rhoConstFresh=1000.,
(PID.TID 0000.0001) > buoyancyRelation='OCEANICP',
(PID.TID 0000.0001) > integr_GeoPot=1,
(PID.TID 0000.0001) > eosType='TEOS10',
(PID.TID 0000.0001) > staggerTimeStep=.TRUE.,
(PID.TID 0000.0001) > vectorInvariantMomentum=.TRUE.,
(PID.TID 0000.0001) > implicitFreeSurface=.TRUE.,
(PID.TID 0000.0001) > exactConserv=.TRUE.,
(PID.TID 0000.0001) > select_rStar=2,
(PID.TID 0000.0001) > nonlinFreeSurf=4,
(PID.TID 0000.0001) > hFacInf=0.2,
(PID.TID 0000.0001) > hFacSup=2.0,
(PID.TID 0000.0001) > useRealFreshWaterFlux=.TRUE.,
(PID.TID 0000.0001) > hFacMin=.1,
(PID.TID 0000.0001) ># 20 m
(PID.TID 0000.0001) > hFacMinDr=203067.0,
(PID.TID 0000.0001) >#- to check that it has no impact:
(PID.TID 0000.0001) > doResetHFactors=.TRUE.,
(PID.TID 0000.0001) >#tempAdvScheme=77,
(PID.TID 0000.0001) >#saltAdvScheme=77,
(PID.TID 0000.0001) > readBinaryPrec=64,
(PID.TID 0000.0001) > writeBinaryPrec=64,
(PID.TID 0000.0001) > useSingleCpuIO=.TRUE.,
(PID.TID 0000.0001) > debugLevel = 2,
(PID.TID 0000.0001) > plotLevel=0,
(PID.TID 0000.0001) > /
(PID.TID 0000.0001) >
(PID.TID 0000.0001) ># Elliptic solver parameters
(PID.TID 0000.0001) > &PARM02
(PID.TID 0000.0001) > cg2dMaxIters=200,
(PID.TID 0000.0001) > cg2dTargetResidual=1.E-9,
(PID.TID 0000.0001) >#cg2dTargetResWunit=1.E-14,
(PID.TID 0000.0001) > /
(PID.TID 0000.0001) >
(PID.TID 0000.0001) ># Time stepping parameters
(PID.TID 0000.0001) > &PARM03
(PID.TID 0000.0001) >#nIter0=72000,
(PID.TID 0000.0001) > nIter0=0,
(PID.TID 0000.0001) > nTimeSteps=10,
(PID.TID 0000.0001) >#endTime=31104000.,
(PID.TID 0000.0001) > deltaTMom   =1200.,
(PID.TID 0000.0001) > deltaTtracer=86400.,
(PID.TID 0000.0001) > deltaTFreeSurf=86400.,
(PID.TID 0000.0001) > deltaTClock =86400.,
(PID.TID 0000.0001) > abEps = 0.1,
(PID.TID 0000.0001) > forcing_In_AB=.FALSE.,
(PID.TID 0000.0001) >#pickupStrictlyMatch=.FALSE.,
(PID.TID 0000.0001) > pChkptFreq   =3110400000.,
(PID.TID 0000.0001) > chkptFreq    = 155520000.,
(PID.TID 0000.0001) >#tave_lastIter=0.,
(PID.TID 0000.0001) >#taveFreq     = 2592000.,
(PID.TID 0000.0001) >#dumpFreq     =  864000.,
(PID.TID 0000.0001) > monitorFreq  = 15552000.,
(PID.TID 0000.0001) > periodicExternalForcing=.TRUE.,
(PID.TID 0000.0001) > externForcingPeriod=2592000.,
(PID.TID 0000.0001) > externForcingCycle=31104000.,
(PID.TID 0000.0001) ># 6 months restoring timescale for temperature
(PID.TID 0000.0001) >#tauThetaClimRelax = 15552000.,
(PID.TID 0000.0001) ># 2 months restoring timescale for tsalinity
(PID.TID 0000.0001) >#tauSaltClimRelax = 5184000.,
(PID.TID 0000.0001) >#latBandClimRelax=60.,
(PID.TID 0000.0001) > monitorFreq =1.,
(PID.TID 0000.0001) > /
(PID.TID 0000.0001) >
(PID.TID 0000.0001) ># Gridding parameters
(PID.TID 0000.0001) > &PARM04
(PID.TID 0000.0001) > usingCurvilinearGrid=.TRUE.,
(PID.TID 0000.0001) > horizGridFile='grid_cs32',
(PID.TID 0000.0001) ># radius_fromHorizGrid=64676839500.,
(PID.TID 0000.0001) > radius_fromHorizGrid=6370.E3,
(PID.TID 0000.0001) > delR = 7105181.631178, 6571679.735642, 6042512.265968,
(PID.TID 0000.0001) >        5517067.241693, 4995190.435925, 4476390.802366,
(PID.TID 0000.0001) >        3960087.645808, 3446365.011284, 2934956.237702,
(PID.TID 0000.0001) >        2425564.880893, 1917984.297155, 1411815.607161,
(PID.TID 0000.0001) >        1007433.323163,  704400.618506,  502655.686646,
(PID.TID 0000.0001) > /
(PID.TID 0000.0001) >
(PID.TID 0000.0001) ># Input datasets
(PID.TID 0000.0001) > &PARM05
(PID.TID 0000.0001) > bathyFile      ='bathy_in_P.bin',
(PID.TID 0000.0001) > geoPotAnomFile ='geopotanom.bin',
(PID.TID 0000.0001) > hydrogThetaFile='lev_T_cs_flip15.bin',
(PID.TID 0000.0001) > hydrogSaltFile ='lev_S_cs_flip15.bin',
(PID.TID 0000.0001) > /
(PID.TID 0000.0001) 
(PID.TID 0000.0001)  INI_PARMS ; starts to read PARM01
(PID.TID 0000.0001)  INI_PARMS ; read PARM01 : OK
(PID.TID 0000.0001)  INI_PARMS ; starts to read PARM02
(PID.TID 0000.0001)  INI_PARMS ; read PARM02 : OK
(PID.TID 0000.0001)  INI_PARMS ; starts to read PARM03
(PID.TID 0000.0001)  INI_PARMS ; read PARM03 : OK
(PID.TID 0000.0001)  INI_PARMS ; starts to read PARM04
(PID.TID 0000.0001)  INI_PARMS ; read PARM04 : OK
(PID.TID 0000.0001)  INI_PARMS ; starts to read PARM05
(PID.TID 0000.0001)  INI_PARMS ; read PARM05 : OK
(PID.TID 0000.0001)  INI_PARMS: finished reading file "data"
(PID.TID 0000.0001)  PACKAGES_BOOT: opening data.pkg
(PID.TID 0000.0001)  OPEN_COPY_DATA_FILE: opening file data.pkg
(PID.TID 0000.0001) // =======================================================
(PID.TID 0000.0001) // Parameter file "data.pkg"
(PID.TID 0000.0001) // =======================================================
(PID.TID 0000.0001) ># Packages
(PID.TID 0000.0001) > &PACKAGES
(PID.TID 0000.0001) >#useGMRedi=.TRUE.,
(PID.TID 0000.0001) > useEXF   =.TRUE.,
(PID.TID 0000.0001) > useCAL   =.TRUE.,
(PID.TID 0000.0001) > useSEAICE=.TRUE.,
(PID.TID 0000.0001) > useGGL90 =.TRUE.,
(PID.TID 0000.0001) > useDiagnostics=.TRUE.,
(PID.TID 0000.0001) >#useMNC = .TRUE.,
(PID.TID 0000.0001) > /
(PID.TID 0000.0001) 
(PID.TID 0000.0001)  PACKAGES_BOOT: finished reading data.pkg
(PID.TID 0000.0001)  PACKAGES_BOOT: On/Off package Summary
 --------  pkgs with a standard "usePKG" On/Off switch in "data.pkg":  --------
 pkg/ggl90                compiled   and   used ( useGGL90                 = T )
 pkg/gmredi               compiled but not used ( useGMRedi                = F )
 pkg/cal                  compiled   and   used ( useCAL                   = T )
 pkg/exf                  compiled   and   used ( useEXF                   = T )
 pkg/bulk_force           compiled but not used ( useBulkForce             = F )
 pkg/seaice               compiled   and   used ( useSEAICE                = T )
 pkg/thsice               compiled but not used ( useThSIce                = F )
 pkg/diagnostics          compiled   and   used ( useDiagnostics           = T )
 pkg/mnc                  compiled but not used ( useMNC                   = F )
 -------- pkgs without standard "usePKG" On/Off switch in "data.pkg":  --------
 pkg/generic_advdiff      compiled   and   used ( useGAD                   = T )
 pkg/mom_common           compiled   and   used ( momStepping              = T )
 pkg/mom_vecinv           compiled   and   used ( +vectorInvariantMomentum = T )
 pkg/mom_fluxform         compiled but not used ( & not vectorInvariantMom = F )
 pkg/monitor              compiled   and   used ( monitorFreq > 0.         = T )
 pkg/timeave              compiled but not used ( taveFreq > 0.            = F )
 pkg/debug                compiled but not used ( debugMode                = F )
 pkg/exch2                compiled   and   used
 pkg/rw                   compiled   and   used
 pkg/mdsio                compiled   and   used
(PID.TID 0000.0001)  PACKAGES_BOOT: End of package Summary
(PID.TID 0000.0001) 
(PID.TID 0000.0001) CAL_READPARMS: opening data.cal
(PID.TID 0000.0001)  OPEN_COPY_DATA_FILE: opening file data.cal
(PID.TID 0000.0001) // =======================================================
(PID.TID 0000.0001) // Parameter file "data.cal"
(PID.TID 0000.0001) // =======================================================
(PID.TID 0000.0001) >#
(PID.TID 0000.0001) ># *******************
(PID.TID 0000.0001) ># Calendar Parameters
(PID.TID 0000.0001) ># *******************
(PID.TID 0000.0001) > &CAL_NML
(PID.TID 0000.0001) > TheCalendar='model',
(PID.TID 0000.0001) > startDate_1=00010101,
(PID.TID 0000.0001) > startDate_2=000000,
(PID.TID 0000.0001) > /
(PID.TID 0000.0001) 
(PID.TID 0000.0001) CAL_READPARMS: finished reading data.cal
(PID.TID 0000.0001) EXF_READPARMS: opening data.exf
(PID.TID 0000.0001)  OPEN_COPY_DATA_FILE: opening file data.exf
(PID.TID 0000.0001) // =======================================================
(PID.TID 0000.0001) // Parameter file "data.exf"
(PID.TID 0000.0001) // =======================================================
(PID.TID 0000.0001) ># *********************
(PID.TID 0000.0001) ># External Forcing Data
(PID.TID 0000.0001) ># *********************
(PID.TID 0000.0001) > &EXF_NML_01
(PID.TID 0000.0001) >#exf_debugLev      = 3,
(PID.TID 0000.0001) >#useExfCheckRange  = .TRUE.,
(PID.TID 0000.0001) >#useStabilityFct_overIce=.TRUE.,
(PID.TID 0000.0001) >#snow_emissivity   = 0.98,
(PID.TID 0000.0001) >#ice_emissivity    = 0.98,
(PID.TID 0000.0001) > ocean_emissivity  = 1.,
(PID.TID 0000.0001) > atmrho            = 1.22,
(PID.TID 0000.0001) > humid_fac         = .608,
(PID.TID 0000.0001) > ht                = 10.,
(PID.TID 0000.0001) > exf_albedo        = 0.066,
(PID.TID 0000.0001) >#readStressOnAgrid = .TRUE.,
(PID.TID 0000.0001) > readStressOnCgrid = .TRUE.,
(PID.TID 0000.0001) > exf_monFreq       = 0.,
(PID.TID 0000.0001) > repeatPeriod      = 31104000.,
(PID.TID 0000.0001) > exf_iprec         = 64,
(PID.TID 0000.0001) > /
(PID.TID 0000.0001) >
(PID.TID 0000.0001) ># *********************
(PID.TID 0000.0001) > &EXF_NML_02
(PID.TID 0000.0001) >#
(PID.TID 0000.0001) > atempstartdate1   = 00010116,
(PID.TID 0000.0001) >#atempstartdate2   = 180000,
(PID.TID 0000.0001) > atempperiod       = 2592000.0,
(PID.TID 0000.0001) >#
(PID.TID 0000.0001) > aqhstartdate1     = 00010116,
(PID.TID 0000.0001) >#aqhstartdate2     = 180000,
(PID.TID 0000.0001) > aqhperiod         = 2592000.0,
(PID.TID 0000.0001) >#
(PID.TID 0000.0001) > precipstartdate1  = 00010116,
(PID.TID 0000.0001) >#precipstartdate2  = 180000,
(PID.TID 0000.0001) > precipperiod      = 2592000.0,
(PID.TID 0000.0001) >#
(PID.TID 0000.0001) > snowprecipstartdate1= 00010116,
(PID.TID 0000.0001) >#snowprecipstartdate2= 180000,
(PID.TID 0000.0001) > snowprecipperiod    = 2592000.,
(PID.TID 0000.0001) >#
(PID.TID 0000.0001) > runoffstartdate1  = 00010116,
(PID.TID 0000.0001) >#runoffstartdate2  = 180000,
(PID.TID 0000.0001) > runoffperiod      = 2592000.0,
(PID.TID 0000.0001) >#
(PID.TID 0000.0001) > uwindstartdate1   = 00010116,
(PID.TID 0000.0001) >#uwindstartdate2   = 180000,
(PID.TID 0000.0001) > uwindperiod       = 2592000.0,
(PID.TID 0000.0001) >#
(PID.TID 0000.0001) > vwindstartdate1   = 00010116,
(PID.TID 0000.0001) >#vwindstartdate2   = 180000,
(PID.TID 0000.0001) > vwindperiod       = 2592000.0,
(PID.TID 0000.0001) >#
(PID.TID 0000.0001) > ustressstartdate1 = 00010116,
(PID.TID 0000.0001) >#ustressstartdate2 = 180000,
(PID.TID 0000.0001) > ustressperiod     = 2592000.0,
(PID.TID 0000.0001) >#
(PID.TID 0000.0001) > vstressstartdate1 = 00010116,
(PID.TID 0000.0001) >#vstressstartdate2 = 180000,
(PID.TID 0000.0001) > vstressperiod     = 2592000.0,
(PID.TID 0000.0001) >#
(PID.TID 0000.0001) > wspeedstartdate1  = 00010116,
(PID.TID 0000.0001) >#wspeedstartdate2  = 180000,
(PID.TID 0000.0001) > wspeedperiod      = 2592000.0,
(PID.TID 0000.0001) >#
(PID.TID 0000.0001) > swdownstartdate1  = 00010116,
(PID.TID 0000.0001) >#swdownstartdate2  = 180000,
(PID.TID 0000.0001) > swdownperiod      = 2592000.0,
(PID.TID 0000.0001) >#
(PID.TID 0000.0001) > lwdownstartdate1  = 00010116,
(PID.TID 0000.0001) >#lwdownstartdate2  = 180000,
(PID.TID 0000.0001) > lwdownperiod      = 2592000.0,
(PID.TID 0000.0001) >#
(PID.TID 0000.0001) > climsssstartdate1  = 00010116,
(PID.TID 0000.0001) >#climsssstartdate2  = 180000,
(PID.TID 0000.0001) > climsssperiod      = 2592000.0,
(PID.TID 0000.0001) >#
(PID.TID 0000.0001) > climsststartdate1  = 00010116,
(PID.TID 0000.0001) >#climsststartdate2  = 180000,
(PID.TID 0000.0001) > climsstperiod      = 2592000.0,
(PID.TID 0000.0001) >#
(PID.TID 0000.0001) > atempfile         = 'core_t_Air_cs32.bin',
(PID.TID 0000.0001) > aqhfile           = 'core_q_air_cs32.bin',
(PID.TID 0000.0001) > ustressfile       = 'trenberth_taux.bin',
(PID.TID 0000.0001) > vstressfile       = 'trenberth_tauy.bin',
(PID.TID 0000.0001) >#uwindfile         = 'core_u_wind_cs32.bin',
(PID.TID 0000.0001) >#vwindfile         = 'core_v_wind_cs32.bin',
(PID.TID 0000.0001) > wspeedfile        = 'core_wndSpd_cs32.bin',
(PID.TID 0000.0001) > precipfile        = 'core_prec_1_cs32.bin',
(PID.TID 0000.0001) >#snowprecipfile    = 'core_snwP_1_cs32.bin',
(PID.TID 0000.0001) > lwdownfile        = 'core_dwnLw_cs32.bin',
(PID.TID 0000.0001) > swdownfile        = 'core_dwnSw_cs32.bin',
(PID.TID 0000.0001) > runoffFile        = 'core_rnof_1_cs32.bin'
(PID.TID 0000.0001) > runoftempFile     = 'runoff_temperature.bin'
(PID.TID 0000.0001) > climsstfile       = 'lev_surfT_cs_12m.bin',
(PID.TID 0000.0001) > climsssfile       = 'lev_surfS_cs_12m.bin',
(PID.TID 0000.0001) >#
(PID.TID 0000.0001) > /
(PID.TID 0000.0001) >
(PID.TID 0000.0001) ># *********************
(PID.TID 0000.0001) > &EXF_NML_03
(PID.TID 0000.0001) > /
(PID.TID 0000.0001) >
(PID.TID 0000.0001) ># *********************
(PID.TID 0000.0001) > &EXF_NML_04
(PID.TID 0000.0001) > /
(PID.TID 0000.0001) 
(PID.TID 0000.0001) EXF_READPARMS: reading EXF_NML_01
(PID.TID 0000.0001) EXF_READPARMS: reading EXF_NML_02
(PID.TID 0000.0001) EXF_READPARMS: reading EXF_NML_03
(PID.TID 0000.0001) EXF_READPARMS: finished reading data.exf
(PID.TID 0000.0001)  GGL90_READPARMS: opening data.ggl90
(PID.TID 0000.0001)  OPEN_COPY_DATA_FILE: opening file data.ggl90
(PID.TID 0000.0001) // =======================================================
(PID.TID 0000.0001) // Parameter file "data.ggl90"
(PID.TID 0000.0001) // =======================================================
(PID.TID 0000.0001) ># =====================================================================
(PID.TID 0000.0001) ># | Parameters for Gaspar et al. (1990)'s TKE vertical mixing scheme  |
(PID.TID 0000.0001) ># =====================================================================
(PID.TID 0000.0001) > &GGL90_PARM01
(PID.TID 0000.0001) > GGL90diffTKEh=0.E3,
(PID.TID 0000.0001) > GGL90ck = 0.1,
(PID.TID 0000.0001) > GGL90ceps = 0.7,
(PID.TID 0000.0001) > GGL90alpha=30.,
(PID.TID 0000.0001) > GGL90m2 = 3.0,
(PID.TID 0000.0001) > GGL90TKEmin = 0.E-6,
(PID.TID 0000.0001) > GGL90TKEbottom=4.E-6,
(PID.TID 0000.0001) > GGL90TKEsurfMin=1.E-4,
(PID.TID 0000.0001) > mxlMaxFlag=2,
(PID.TID 0000.0001) > GGL90viscMax=1.E2,
(PID.TID 0000.0001) > GGL90diffMax=1.E2,
(PID.TID 0000.0001) > calcMeanVertShear=.TRUE.,
(PID.TID 0000.0001) > GGL90_dirichlet=.FALSE.,
(PID.TID 0000.0001) > useIDEMIX  = .TRUE.,
(PID.TID 0000.0001) >#-- IO related params:
(PID.TID 0000.0001) > GGL90mixingMaps=.FALSE.,
(PID.TID 0000.0001) > GGL90writeState=.FALSE.,
(PID.TID 0000.0001) > /
(PID.TID 0000.0001) >
(PID.TID 0000.0001) > &GGL90_PARM02
(PID.TID 0000.0001) >#- below are old defaults that are not recommended
(PID.TID 0000.0001) ># IDEMIX_tau_v =  86400.0,
(PID.TID 0000.0001) ># IDEMIX_jstar = 10.0,
(PID.TID 0000.0001) ># IDEMIX_mu0   = 1.3333333333333333,
(PID.TID 0000.0001) >#--
(PID.TID 0000.0001) > IDEMIX_include_GM_bottom = .FALSE.,
(PID.TID 0000.0001) > IDEMIX_include_GM        = .FALSE.,
(PID.TID 0000.0001) > IDEMIX_tidal_file = 'idemix_tidal_forcing.192x32.bin',
(PID.TID 0000.0001) > IDEMIX_wind_file  = 'idemix_wind_forcing.192x32.bin',
(PID.TID 0000.0001) > /
(PID.TID 0000.0001) 
(PID.TID 0000.0001)  GGL90_READPARMS ; starts to read GGL90_PARM01
(PID.TID 0000.0001)  GGL90_READPARMS: read GGL90_PARM01 : OK
(PID.TID 0000.0001)  GGL90_READPARMS ; starts to read GGL90_PARM02
(PID.TID 0000.0001)  GGL90_READPARMS: read GGL90_PARM02 : OK
(PID.TID 0000.0001)  GGL90_READPARMS: finished reading data.ggl90
(PID.TID 0000.0001) // =======================================================
(PID.TID 0000.0001) // GGL90 configuration
(PID.TID 0000.0001) // =======================================================
(PID.TID 0000.0001) GGL90dumpFreq =   /* GGL90 state write out interval ( s ). */
(PID.TID 0000.0001)                 0.000000000000000E+00
(PID.TID 0000.0001)     ;
(PID.TID 0000.0001) GGL90taveFreq =   /* GGL90 averaging interval ( s ). */
(PID.TID 0000.0001)                 1.234567000000000E+05
(PID.TID 0000.0001)     ;
(PID.TID 0000.0001) GGL90mixingMAPS =   /* GGL90 IO flag */
(PID.TID 0000.0001)                   F
(PID.TID 0000.0001)     ;
(PID.TID 0000.0001) GGL90writeState =   /* GGL90 IO flag */
(PID.TID 0000.0001)                   F
(PID.TID 0000.0001)     ;
(PID.TID 0000.0001) GGL90ck =   /* GGL90 viscosity parameter */
(PID.TID 0000.0001)                 1.000000000000000E-01
(PID.TID 0000.0001)     ;
(PID.TID 0000.0001) GGL90ceps =   /* GGL90 dissipation parameter */
(PID.TID 0000.0001)                 7.000000000000000E-01
(PID.TID 0000.0001)     ;
(PID.TID 0000.0001) GGL90alpha =   /* GGL90 TKE diffusivity parameter */
(PID.TID 0000.0001)                 3.000000000000000E+01
(PID.TID 0000.0001)     ;
(PID.TID 0000.0001) GGL90m2 =   /* GGL90 wind stress to vertical stress ratio */
(PID.TID 0000.0001)                 3.000000000000000E+00
(PID.TID 0000.0001)     ;
(PID.TID 0000.0001) GGL90TKEmin =   /* GGL90 minimum kinetic energy ( m^2/s^2 ) */
(PID.TID 0000.0001)                 0.000000000000000E+00
(PID.TID 0000.0001)     ;
(PID.TID 0000.0001) GGL90TKEsurfMin =   /* GGL90 minimum surface kinetic energy ( m^2/s^2 ) */
(PID.TID 0000.0001)                 1.000000000000000E-04
(PID.TID 0000.0001)     ;
(PID.TID 0000.0001) GGL90TKEbottom =   /* GGL90 bottom kinetic energy ( m^2/s^2 ) */
(PID.TID 0000.0001)                 4.000000000000000E-06
(PID.TID 0000.0001)     ;
(PID.TID 0000.0001) GGL90viscMax =   /* GGL90 upper limit for viscosity (m^2/s ) */
(PID.TID 0000.0001)                 1.000000000000000E+02
(PID.TID 0000.0001)     ;
(PID.TID 0000.0001) GGL90diffMax =   /* GGL90 upper limit for diffusivity (m^2/s ) */
(PID.TID 0000.0001)                 1.000000000000000E+02
(PID.TID 0000.0001)     ;
(PID.TID 0000.0001) GGL90diffTKEh =   /* GGL90 horizontal diffusivity for TKE ( m^2/s ) */
(PID.TID 0000.0001)                 0.000000000000000E+00
(PID.TID 0000.0001)     ;
(PID.TID 0000.0001) GGL90mixingLengthMin =   /* GGL90 minimum mixing length (m) */
(PID.TID 0000.0001)                 1.000000000000000E-08
(PID.TID 0000.0001)     ;
(PID.TID 0000.0001) mxlMaxFlag =   /* Flag for limiting mixing-length method */
(PID.TID 0000.0001)                       2
(PID.TID 0000.0001)     ;
(PID.TID 0000.0001) mxlSurfFlag =   /* GGL90 flag for near surface mixing */
(PID.TID 0000.0001)                   F
(PID.TID 0000.0001)     ;
(PID.TID 0000.0001) calcMeanVertShear = /* calc Mean of Vert.Shear (vs shear of Mean flow) */
(PID.TID 0000.0001)                   T
(PID.TID 0000.0001)     ;
(PID.TID 0000.0001) GGL90: GGL90TKEFile =
(PID.TID 0000.0001) GGL90_dirichlet =   /* GGL90 Boundary condition flag */
(PID.TID 0000.0001)                   F
(PID.TID 0000.0001)     ;
(PID.TID 0000.0001) useIDEMIX =   /* turn on IDEMIX contribution. */
(PID.TID 0000.0001)                   T
(PID.TID 0000.0001)     ;
(PID.TID 0000.0001) IDEMIX_tau_v =   /* IDEMIX vertical group speed parameter. */
(PID.TID 0000.0001)                 1.728000000000000E+05
(PID.TID 0000.0001)     ;
(PID.TID 0000.0001) IDEMIX_tau_h =   /* IDEMIX horizontal group speed parameter. */
(PID.TID 0000.0001)                 8.640000000000000E+05
(PID.TID 0000.0001)     ;
(PID.TID 0000.0001) IDEMIX_gamma =   /* IDEMIX group speed parameter. */
(PID.TID 0000.0001)                 1.570000000000000E+00
(PID.TID 0000.0001)     ;
(PID.TID 0000.0001) IDEMIX_jstar =   /* IDEMIX baroclinic mode bandwidth. */
(PID.TID 0000.0001)                 5.000000000000000E+00
(PID.TID 0000.0001)     ;
(PID.TID 0000.0001) IDEMIX_mu0 =   /* IDEMIX dissipation parameter. */
(PID.TID 0000.0001)                 3.333333333333333E-01
(PID.TID 0000.0001)     ;
(PID.TID 0000.0001) IDEMIX_mixing_efficiency =   /* IDEMIX mixing efficiency. */
(PID.TID 0000.0001)                 1.666000000000000E-01
(PID.TID 0000.0001)     ;
(PID.TID 0000.0001) IDEMIX_diff_max =   /* IDEMIX maximal diffusivity. */
(PID.TID 0000.0001)                 1.000000000000000E+00
(PID.TID 0000.0001)     ;
(PID.TID 0000.0001) IDEMIX_diff_min =   /* IDEMIX minimal diffusivity. */
(PID.TID 0000.0001)                 1.000000000000000E-09
(PID.TID 0000.0001)     ;
(PID.TID 0000.0001) IDEMIX_frac_F_b =   /* Fraction of F_b which enters IW field. */
(PID.TID 0000.0001)                 1.000000000000000E+00
(PID.TID 0000.0001)     ;
(PID.TID 0000.0001) IDEMIX_frac_F_s =   /* Fraction of F_s which enters IW field. */
(PID.TID 0000.0001)                 2.000000000000000E-01
(PID.TID 0000.0001)     ;
(PID.TID 0000.0001) IDEMIX_include_GM =   /* IDEMIX GM flag */
(PID.TID 0000.0001)                   F
(PID.TID 0000.0001)     ;
(PID.TID 0000.0001) IDEMIX_include_GM_bottom =   /* IDEMIX GM flag */
(PID.TID 0000.0001)                   F
(PID.TID 0000.0001)     ;
(PID.TID 0000.0001) IDEMIX_tidal_file = /* file name of tidal energy field */
(PID.TID 0000.0001)               'idemix_tidal_forcing.192x32.bin'
(PID.TID 0000.0001)     ;
(PID.TID 0000.0001) IDEMIX_wind_file  = /* file name of wind energy field */
(PID.TID 0000.0001)               'idemix_wind_forcing.192x32.bin'
(PID.TID 0000.0001)     ;
(PID.TID 0000.0001) // =======================================================
(PID.TID 0000.0001) // End of GGL90 config. summary
(PID.TID 0000.0001) // =======================================================
(PID.TID 0000.0001) 
(PID.TID 0000.0001) 
(PID.TID 0000.0001)  SEAICE_READPARMS: opening data.seaice
(PID.TID 0000.0001)  OPEN_COPY_DATA_FILE: opening file data.seaice
(PID.TID 0000.0001) // =======================================================
(PID.TID 0000.0001) // Parameter file "data.seaice"
(PID.TID 0000.0001) // =======================================================
(PID.TID 0000.0001) ># SEAICE parameters
(PID.TID 0000.0001) > &SEAICE_PARM01
(PID.TID 0000.0001) > LSR_ERROR             = 1.E-12,
(PID.TID 0000.0001) ># test strong implicit coupling method for LSR
(PID.TID 0000.0001) > SEAICEuseStrImpCpl    = .TRUE.,
(PID.TID 0000.0001) >#SEAICE_deltaTevp = 60.,
(PID.TID 0000.0001) > SEAICE_clipVelocities = .TRUE.,
(PID.TID 0000.0001) >#
(PID.TID 0000.0001) > SEAICE_salt0          = 4.,
(PID.TID 0000.0001) > SEAICE_multDim        = 7,
(PID.TID 0000.0001) > SEAICE_wetAlbTemp     = 0.,
(PID.TID 0000.0001) > SEAICE_mcPheePiston   = 0.00057,
(PID.TID 0000.0001) > SEAICE_areaLossFormula= 2,
(PID.TID 0000.0001) > SEAICEheatConsFix     = .TRUE.,
(PID.TID 0000.0001) >#SEAICE_monFreq        = 2592000.,
(PID.TID 0000.0001) >#SEAICEwriteState      = .TRUE.,
(PID.TID 0000.0001) > /
(PID.TID 0000.0001) >
(PID.TID 0000.0001) > &SEAICE_PARM03
(PID.TID 0000.0001) > /
(PID.TID 0000.0001) 
(PID.TID 0000.0001)  SEAICE_READPARMS: finished reading data.seaice
(PID.TID 0000.0001)  DIAGNOSTICS_READPARMS: opening data.diagnostics
(PID.TID 0000.0001)  OPEN_COPY_DATA_FILE: opening file data.diagnostics
(PID.TID 0000.0001) // =======================================================
(PID.TID 0000.0001) // Parameter file "data.diagnostics"
(PID.TID 0000.0001) // =======================================================
(PID.TID 0000.0001) ># Diagnostic Package Choices
(PID.TID 0000.0001) >#--------------------
(PID.TID 0000.0001) >#  dumpAtLast (logical): always write output at the end of simulation (default=F)
(PID.TID 0000.0001) >#  diag_mnc   (logical): write to NetCDF files (default=useMNC)
(PID.TID 0000.0001) >#--for each output-stream:
(PID.TID 0000.0001) >#  fileName(n) : prefix of the output file name (max 80c long) for outp.stream n
(PID.TID 0000.0001) >#  frequency(n):< 0 : write snap-shot output every |frequency| seconds
(PID.TID 0000.0001) >#               > 0 : write time-average output every frequency seconds
(PID.TID 0000.0001) >#  timePhase(n)     : write at time = timePhase + multiple of |frequency|
(PID.TID 0000.0001) >#    averagingFreq  : frequency (in s) for periodic averaging interval
(PID.TID 0000.0001) >#    averagingPhase : phase     (in s) for periodic averaging interval
(PID.TID 0000.0001) >#    repeatCycle    : number of averaging intervals in 1 cycle
(PID.TID 0000.0001) >#  levels(:,n) : list of levels to write to file (Notes: declared as REAL)
(PID.TID 0000.0001) >#                when this entry is missing, select all common levels of this list
(PID.TID 0000.0001) >#  fields(:,n) : list of selected diagnostics fields (8.c) in outp.stream n
(PID.TID 0000.0001) >#                (see "available_diagnostics.log" file for the full list of diags)
(PID.TID 0000.0001) >#  missing_value(n) : missing value for real-type fields in output file "n"
(PID.TID 0000.0001) >#  fileFlags(n)     : specific code (8c string) for output file "n"
(PID.TID 0000.0001) >#--------------------
(PID.TID 0000.0001) > &DIAGNOSTICS_LIST
(PID.TID 0000.0001) ># diag_mnc     = .FALSE.,
(PID.TID 0000.0001) ># dumpAtLast   = .TRUE.,
(PID.TID 0000.0001) >#--
(PID.TID 0000.0001) >  fields(1:11,1) = 'ETAN    ','ETANSQ  ','DETADT2 ','PHIBOT  ','PHIBOTSQ',
(PID.TID 0000.0001) >                   'oceTAUX ','oceTAUY ',
(PID.TID 0000.0001) >                   'oceQnet ','oceSflux','oceFWflx','MXLDEPTH',
(PID.TID 0000.0001) >#                  'surForcT','surForcS','TFLUX   ','SFLUX   ','oceFreez',
(PID.TID 0000.0001) >#                  'TRELAX  ','SRELAX  ',
(PID.TID 0000.0001) >#                  'GM_VisbK',
(PID.TID 0000.0001) >   fileName(1) = 'surfDiag',
(PID.TID 0000.0001) >  frequency(1) = 15552000.,
(PID.TID 0000.0001) ># frequency(1) = 1.,
(PID.TID 0000.0001) >  fields(1:15,2) = 'UVEL    ','VVEL    ','WVEL    ','PHIHYD  ',
(PID.TID 0000.0001) >                   'VVELMASS','UVELMASS','WVELSQ  ',
(PID.TID 0000.0001) >                   'THETA   ','UTHMASS ','VTHMASS ','WTHMASS ',
(PID.TID 0000.0001) >                   'SALT    ','USLTMASS','VSLTMASS','WSLTMASS',
(PID.TID 0000.0001) ># do not specify levels => all levels are selected
(PID.TID 0000.0001) >   fileName(2) = 'dynDiag',
(PID.TID 0000.0001) >  frequency(2) = 15552000.,
(PID.TID 0000.0001) >
(PID.TID 0000.0001) >  fields(1:7,3)  = 'DRHODR  ','RHOAnoma',
(PID.TID 0000.0001) >                   'GGL90TKE','GGL90Kr ','GGL90Lmx',
(PID.TID 0000.0001) >		   'IDEMIX_E','IDEMIX_K',
(PID.TID 0000.0001) >#                  'GM_PsiX ','GM_PsiY ',
(PID.TID 0000.0001) >#                  'GM_Kwx  ','GM_Kwy  ','GM_Kwz  ',
(PID.TID 0000.0001) >#                  'GM_Kux  ','GM_Kvy  ',
(PID.TID 0000.0001) >#                  'GM_Kuz  ','GM_Kvz  ',
(PID.TID 0000.0001) >#- disable this output list by commenting out the file name
(PID.TID 0000.0001) >   fileName(3) = 'oceDiag',
(PID.TID 0000.0001) >  frequency(3) = 15552000.,
(PID.TID 0000.0001) >
(PID.TID 0000.0001) >  fields(1:7,4)  = 'ADVx_TH ','ADVy_TH ','ADVr_TH ',
(PID.TID 0000.0001) >                   'DIFx_TH ','DIFy_TH ','DFrE_TH ',
(PID.TID 0000.0001) >                   'DFrI_TH ',
(PID.TID 0000.0001) >#                  'ADVx_SLT',
(PID.TID 0000.0001) >#  fileName(4) = 'flxDiag',
(PID.TID 0000.0001) >  frequency(4) = 1728000.,
(PID.TID 0000.0001) >
(PID.TID 0000.0001) >  fields(1:5,5)  = 'SIheff  ','SIarea  ','SIhsnow ',
(PID.TID 0000.0001) >                   'SIuice  ','SIvice  ',
(PID.TID 0000.0001) >  fileName(5) = 'seaiceDiag',
(PID.TID 0000.0001) >  frequency(5) = 15552000.,
(PID.TID 0000.0001) ># frequency(5) = 1.,
(PID.TID 0000.0001) >#averagingFreq(5) = 2592000.,
(PID.TID 0000.0001) >#  repeatCycle(5) = 12,
(PID.TID 0000.0001) >#---
(PID.TID 0000.0001) >  frequency(6) = 86400.0,
(PID.TID 0000.0001) >  fields(1:12,6) ='UVELMASS','VVELMASS',
(PID.TID 0000.0001) >                 'ADVx_TH ','ADVy_TH ','DFxE_TH ','DFyE_TH ',
(PID.TID 0000.0001) >                 'ADVx_SLT','ADVy_SLT','DFxE_SLT','DFyE_SLT',
(PID.TID 0000.0001) >                 'AB_gT   ','AB_gS   ',
(PID.TID 0000.0001) >#  filename(6) = 'budg2d_hflux_set2',
(PID.TID 0000.0001) >   fileFlags(6) = 'DI      ',
(PID.TID 0000.0001) >#---
(PID.TID 0000.0001) >  frequency(7) = -86400.0,
(PID.TID 0000.0001) >   fields(1:3,7) = 'ETAN    ','SIheff  ','SIhsnow ',
(PID.TID 0000.0001) >#  filename(7) = 'budg2d_snap_set1',
(PID.TID 0000.0001) >   timePhase(7)= 0.,
(PID.TID 0000.0001) >   fileFlags(7) = 'D       ',
(PID.TID 0000.0001) >#---
(PID.TID 0000.0001) >  frequency(8) = -86400.0,
(PID.TID 0000.0001) >   fields(1:2,8) = 'THETA   ','SALT    ',
(PID.TID 0000.0001) >#  filename(8) = 'budg2d_snap_set2',
(PID.TID 0000.0001) >   timePhase(8)= 0.,
(PID.TID 0000.0001) >   fileFlags(8) = 'DI      ',
(PID.TID 0000.0001) >#---
(PID.TID 0000.0001) >  frequency(9) = 86400.0,
(PID.TID 0000.0001) >  frequency(9) = 1.0,
(PID.TID 0000.0001) >   fields(1:16,9) = 'oceFWflx','SIatmFW ','TFLUX   ','SItflux ','SFLUX   ',
(PID.TID 0000.0001) >                  'SRELAX  ','TRELAX  ','oceSflux','oceQnet ','SIatmQnt','oceQsw  ',
(PID.TID 0000.0001) >#                 'WTHMASS ','WSLTMASS','SIaaflux','SIsnPrcp','SIacSubl',
(PID.TID 0000.0001) >   	          'EXFlwdn ','EXFswdn ','EXFlwnet','EXFhs   ','EXFhl   ',
(PID.TID 0000.0001) >   levels(1,9) = 1.,
(PID.TID 0000.0001) >#  filename(9) = 'budg2d_zflux_set1',
(PID.TID 0000.0001) >   fileFlags(9) = 'D       ',
(PID.TID 0000.0001) >#---
(PID.TID 0000.0001) >  frequency(10) = 86400.0,
(PID.TID 0000.0001) >   fields(1:8,10) ='ADVxHEFF','ADVyHEFF','DFxEHEFF','DFyEHEFF',
(PID.TID 0000.0001) >                 'ADVxSNOW','ADVySNOW','DFxESNOW','DFyESNOW',
(PID.TID 0000.0001) >#  filename(10) = 'budg2d_hflux_set1',
(PID.TID 0000.0001) >   fileFlags(10) = 'D       ',
(PID.TID 0000.0001) > /
(PID.TID 0000.0001) >
(PID.TID 0000.0001) >#--------------------
(PID.TID 0000.0001) ># Parameter for Diagnostics of per level statistics:
(PID.TID 0000.0001) >#--------------------
(PID.TID 0000.0001) >#  diagSt_mnc (logical): write stat-diags to NetCDF files (default=diag_mnc)
(PID.TID 0000.0001) >#  diagSt_regMaskFile : file containing the region-mask to read-in
(PID.TID 0000.0001) >#  nSetRegMskFile   : number of region-mask sets within the region-mask file
(PID.TID 0000.0001) >#  set_regMask(i)   : region-mask set-index that identifies the region "i"
(PID.TID 0000.0001) >#  val_regMask(i)   : region "i" identifier value in the region mask
(PID.TID 0000.0001) >#--for each output-stream:
(PID.TID 0000.0001) >#  stat_fName(n) : prefix of the output file name (max 80c long) for outp.stream n
(PID.TID 0000.0001) >#  stat_freq(n):< 0 : write snap-shot output every |stat_freq| seconds
(PID.TID 0000.0001) >#               > 0 : write time-average output every stat_freq seconds
(PID.TID 0000.0001) >#  stat_phase(n)    : write at time = stat_phase + multiple of |stat_freq|
(PID.TID 0000.0001) >#  stat_region(:,n) : list of "regions" (default: 1 region only=global)
(PID.TID 0000.0001) >#  stat_fields(:,n) : list of selected diagnostics fields (8.c) in outp.stream n
(PID.TID 0000.0001) >#                (see "available_diagnostics.log" file for the full list of diags)
(PID.TID 0000.0001) >#--------------------
(PID.TID 0000.0001) > &DIAG_STATIS_PARMS
(PID.TID 0000.0001) >#- regional mask: 3 lat. band: 1 : y <= -24 ; 2 : -24<y<24 ; 3 : 24 <= y
(PID.TID 0000.0001) > diagSt_regMaskFile='regMask_lat24.bin',
(PID.TID 0000.0001) > nSetRegMskFile = 1,
(PID.TID 0000.0001) > set_regMask(1:3) = 1,  1,  1,
(PID.TID 0000.0001) > val_regMask(1:3) = 1., 2., 3.,
(PID.TID 0000.0001) >#---
(PID.TID 0000.0001) > stat_fields(1:8,1)  = 'ETAN    ','UVEL    ','VVEL    ','WVEL    ',
(PID.TID 0000.0001) >                       'THETA   ','SALT    ','CONVADJ ','DETADT2 ',
(PID.TID 0000.0001) >  stat_fName(1) = 'dynStDiag',
(PID.TID 0000.0001) >   stat_freq(1) = 864000.,
(PID.TID 0000.0001) > stat_fields(1:5,5)  = 'SIheff  ','SIarea  ','SIhsnow ',
(PID.TID 0000.0001) >                       'SIuice  ','SIvice  ',
(PID.TID 0000.0001) > stat_region(1:3,5)  = 1, 3, 0,
(PID.TID 0000.0001) >  stat_fName(5) = 'seaiceStDiag',
(PID.TID 0000.0001) >   stat_freq(5) = 864000.,
(PID.TID 0000.0001) > /
(PID.TID 0000.0001) >
(PID.TID 0000.0001) 
(PID.TID 0000.0001) S/R DIAGNOSTICS_READPARMS, read namelist "diagnostics_list": start
(PID.TID 0000.0001) S/R DIAGNOSTICS_READPARMS, read namelist "diagnostics_list": OK
(PID.TID 0000.0001) S/R DIAGNOSTICS_READPARMS, read namelist "DIAG_STATIS_PARMS": start
(PID.TID 0000.0001) S/R DIAGNOSTICS_READPARMS, read namelist "DIAG_STATIS_PARMS": OK
(PID.TID 0000.0001) -----------------------------------------------------
(PID.TID 0000.0001)  DIAGNOSTICS_READPARMS: global parameter summary:
(PID.TID 0000.0001)  diag_dBugLevel = /* level of printed debug messages */
(PID.TID 0000.0001)                       2
(PID.TID 0000.0001)     ;
(PID.TID 0000.0001)  dumpAtLast = /* always write time-ave diags at the end */
(PID.TID 0000.0001)                   F
(PID.TID 0000.0001)     ;
(PID.TID 0000.0001)  diag_mnc =   /* write NetCDF output files */
(PID.TID 0000.0001)                   F
(PID.TID 0000.0001)     ;
(PID.TID 0000.0001)  useMissingValue = /* put MissingValue where mask = 0 */
(PID.TID 0000.0001)                   F
(PID.TID 0000.0001)     ;
(PID.TID 0000.0001)  diagCG_maxIters = /* max number of iters in diag_cg2d */
(PID.TID 0000.0001)                     200
(PID.TID 0000.0001)     ;
(PID.TID 0000.0001)  diagCG_resTarget = /* residual target for diag_cg2d */
(PID.TID 0000.0001)                 1.000000000000000E-09
(PID.TID 0000.0001)     ;
(PID.TID 0000.0001)  diagCG_pcOffDFac = /* preconditioner off-diagonal factor */
(PID.TID 0000.0001)                 9.611687812379854E-01
(PID.TID 0000.0001)     ;
(PID.TID 0000.0001) -----------------------------------------------------
(PID.TID 0000.0001)  DIAGNOSTICS_READPARMS: active diagnostics summary:
(PID.TID 0000.0001) -----------------------------------------------------
(PID.TID 0000.0001) Creating Output Stream: surfDiag
(PID.TID 0000.0001) Output Frequency:   15552000.000000 ; Phase:           0.000000
(PID.TID 0000.0001)  Averaging Freq.:   15552000.000000 , Phase:           0.000000 , Cycle:   1
(PID.TID 0000.0001)  missing value: -9.990000000000E+02
(PID.TID 0000.0001)  Levels:    will be set later
(PID.TID 0000.0001)  Fields:    ETAN     ETANSQ   DETADT2  PHIBOT   PHIBOTSQ oceTAUX  oceTAUY  oceQnet  oceSflux oceFWflx
(PID.TID 0000.0001)  Fields:    MXLDEPTH
(PID.TID 0000.0001) Creating Output Stream: dynDiag
(PID.TID 0000.0001) Output Frequency:   15552000.000000 ; Phase:           0.000000
(PID.TID 0000.0001)  Averaging Freq.:   15552000.000000 , Phase:           0.000000 , Cycle:   1
(PID.TID 0000.0001)  missing value: -9.990000000000E+02
(PID.TID 0000.0001)  Levels:    will be set later
(PID.TID 0000.0001)  Fields:    UVEL     VVEL     WVEL     PHIHYD   VVELMASS UVELMASS WVELSQ   THETA    UTHMASS  VTHMASS
(PID.TID 0000.0001)  Fields:    WTHMASS  SALT     USLTMASS VSLTMASS WSLTMASS
(PID.TID 0000.0001) Creating Output Stream: oceDiag
(PID.TID 0000.0001) Output Frequency:   15552000.000000 ; Phase:           0.000000
(PID.TID 0000.0001)  Averaging Freq.:   15552000.000000 , Phase:           0.000000 , Cycle:   1
(PID.TID 0000.0001)  missing value: -9.990000000000E+02
(PID.TID 0000.0001)  Levels:    will be set later
(PID.TID 0000.0001)  Fields:    DRHODR   RHOAnoma GGL90TKE GGL90Kr  GGL90Lmx IDEMIX_E IDEMIX_K
(PID.TID 0000.0001) Creating Output Stream: seaiceDiag
(PID.TID 0000.0001) Output Frequency:   15552000.000000 ; Phase:           0.000000
(PID.TID 0000.0001)  Averaging Freq.:   15552000.000000 , Phase:           0.000000 , Cycle:   1
(PID.TID 0000.0001)  missing value: -9.990000000000E+02
(PID.TID 0000.0001)  Levels:    will be set later
(PID.TID 0000.0001)  Fields:    SIheff   SIarea   SIhsnow  SIuice   SIvice
(PID.TID 0000.0001) -----------------------------------------------------
(PID.TID 0000.0001)  DIAGNOSTICS_READPARMS: statistics diags. summary:
(PID.TID 0000.0001) Creating Stats. Output Stream: dynStDiag
(PID.TID 0000.0001) Output Frequency:     864000.000000 ; Phase:           0.000000
(PID.TID 0000.0001)  Regions:   0
(PID.TID 0000.0001)  Fields:    ETAN     UVEL     VVEL     WVEL     THETA    SALT     CONVADJ  DETADT2
(PID.TID 0000.0001) Creating Stats. Output Stream: seaiceStDiag
(PID.TID 0000.0001) Output Frequency:     864000.000000 ; Phase:           0.000000
(PID.TID 0000.0001)  Regions:   0  1  3
(PID.TID 0000.0001)  Fields:    SIheff   SIarea   SIhsnow  SIuice   SIvice
(PID.TID 0000.0001) -----------------------------------------------------
(PID.TID 0000.0001) 
(PID.TID 0000.0001) SET_PARMS: done
(PID.TID 0000.0001) Enter INI_VERTICAL_GRID: setInterFDr=    T ; setCenterDr=    F
(PID.TID 0000.0001) tile:   1 ; Read from file grid_cs32.face001.bin
(PID.TID 0000.0001)   => xC yC dxF dyF rA xG yG dxV dyU rAz dxC dyC rAw rAs dxG dyG AngleCS AngleSN
(PID.TID 0000.0001) tile:   2 ; Read from file grid_cs32.face001.bin
(PID.TID 0000.0001)   => xC yC dxF dyF rA xG yG dxV dyU rAz dxC dyC rAw rAs dxG dyG AngleCS AngleSN
(PID.TID 0000.0001) tile:   3 ; Read from file grid_cs32.face002.bin
(PID.TID 0000.0001)   => xC yC dxF dyF rA xG yG dxV dyU rAz dxC dyC rAw rAs dxG dyG AngleCS AngleSN
(PID.TID 0000.0001) tile:   4 ; Read from file grid_cs32.face002.bin
(PID.TID 0000.0001)   => xC yC dxF dyF rA xG yG dxV dyU rAz dxC dyC rAw rAs dxG dyG AngleCS AngleSN
(PID.TID 0000.0001) tile:   5 ; Read from file grid_cs32.face003.bin
(PID.TID 0000.0001)   => xC yC dxF dyF rA xG yG dxV dyU rAz dxC dyC rAw rAs dxG dyG AngleCS AngleSN
(PID.TID 0000.0001) tile:   6 ; Read from file grid_cs32.face003.bin
(PID.TID 0000.0001)   => xC yC dxF dyF rA xG yG dxV dyU rAz dxC dyC rAw rAs dxG dyG AngleCS AngleSN
(PID.TID 0000.0001) tile:   7 ; Read from file grid_cs32.face004.bin
(PID.TID 0000.0001)   => xC yC dxF dyF rA xG yG dxV dyU rAz dxC dyC rAw rAs dxG dyG AngleCS AngleSN
(PID.TID 0000.0001) tile:   8 ; Read from file grid_cs32.face004.bin
(PID.TID 0000.0001)   => xC yC dxF dyF rA xG yG dxV dyU rAz dxC dyC rAw rAs dxG dyG AngleCS AngleSN
(PID.TID 0000.0001) tile:   9 ; Read from file grid_cs32.face005.bin
(PID.TID 0000.0001)   => xC yC dxF dyF rA xG yG dxV dyU rAz dxC dyC rAw rAs dxG dyG AngleCS AngleSN
(PID.TID 0000.0001) tile:  10 ; Read from file grid_cs32.face005.bin
(PID.TID 0000.0001)   => xC yC dxF dyF rA xG yG dxV dyU rAz dxC dyC rAw rAs dxG dyG AngleCS AngleSN
(PID.TID 0000.0001) tile:  11 ; Read from file grid_cs32.face006.bin
(PID.TID 0000.0001)   => xC yC dxF dyF rA xG yG dxV dyU rAz dxC dyC rAw rAs dxG dyG AngleCS AngleSN
(PID.TID 0000.0001) tile:  12 ; Read from file grid_cs32.face006.bin
(PID.TID 0000.0001)   => xC yC dxF dyF rA xG yG dxV dyU rAz dxC dyC rAw rAs dxG dyG AngleCS AngleSN
(PID.TID 0000.0001) %MON XC_max                       =   1.7854351589505E+02
(PID.TID 0000.0001) %MON XC_min                       =  -1.7854351589505E+02
(PID.TID 0000.0001) %MON XC_mean                      =  -1.4199289892029E-14
(PID.TID 0000.0001) %MON XC_sd                        =   1.0355545336287E+02
(PID.TID 0000.0001) %MON XG_max                       =   1.8000000000000E+02
(PID.TID 0000.0001) %MON XG_min                       =  -1.7708797161002E+02
(PID.TID 0000.0001) %MON XG_mean                      =   1.8603515625000E+00
(PID.TID 0000.0001) %MON XG_sd                        =   1.0357130300504E+02
(PID.TID 0000.0001) %MON DXC_max                      =   3.2375185836900E+05
(PID.TID 0000.0001) %MON DXC_min                      =   1.1142031410131E+05
(PID.TID 0000.0001) %MON DXC_mean                     =   2.8605689051214E+05
(PID.TID 0000.0001) %MON DXC_sd                       =   3.4042087138252E+04
(PID.TID 0000.0001) %MON DXF_max                      =   3.2369947500827E+05
(PID.TID 0000.0001) %MON DXF_min                      =   1.2020820513318E+05
(PID.TID 0000.0001) %MON DXF_mean                     =   2.8605437324820E+05
(PID.TID 0000.0001) %MON DXF_sd                       =   3.4050524252539E+04
(PID.TID 0000.0001) %MON DXG_max                      =   3.2375195872773E+05
(PID.TID 0000.0001) %MON DXG_min                      =   1.0098378008791E+05
(PID.TID 0000.0001) %MON DXG_mean                     =   2.8603818508931E+05
(PID.TID 0000.0001) %MON DXG_sd                       =   3.4140406908005E+04
(PID.TID 0000.0001) %MON DXV_max                      =   3.2380418162750E+05
(PID.TID 0000.0001) %MON DXV_min                      =   8.0152299824136E+04
(PID.TID 0000.0001) %MON DXV_mean                     =   2.8603970633619E+05
(PID.TID 0000.0001) %MON DXV_sd                       =   3.4145142117723E+04
(PID.TID 0000.0001) %MON YC_max                       =   8.7940663871962E+01
(PID.TID 0000.0001) %MON YC_min                       =  -8.7940663871962E+01
(PID.TID 0000.0001) %MON YC_mean                      =  -2.3684757858670E-15
(PID.TID 0000.0001) %MON YC_sd                        =   3.8676242969072E+01
(PID.TID 0000.0001) %MON YG_max                       =   9.0000000000000E+01
(PID.TID 0000.0001) %MON YG_min                       =  -9.0000000000000E+01
(PID.TID 0000.0001) %MON YG_mean                      =  -4.1448326252673E-15
(PID.TID 0000.0001) %MON YG_sd                        =   3.8676895860710E+01
(PID.TID 0000.0001) %MON DYC_max                      =   3.2375185836900E+05
(PID.TID 0000.0001) %MON DYC_min                      =   1.1142031410131E+05
(PID.TID 0000.0001) %MON DYC_mean                     =   2.8605689051214E+05
(PID.TID 0000.0001) %MON DYC_sd                       =   3.4042087138252E+04
(PID.TID 0000.0001) %MON DYF_max                      =   3.2369947500827E+05
(PID.TID 0000.0001) %MON DYF_min                      =   1.2020820513318E+05
(PID.TID 0000.0001) %MON DYF_mean                     =   2.8605437324820E+05
(PID.TID 0000.0001) %MON DYF_sd                       =   3.4050524252539E+04
(PID.TID 0000.0001) %MON DYG_max                      =   3.2375195872773E+05
(PID.TID 0000.0001) %MON DYG_min                      =   1.0098378008791E+05
(PID.TID 0000.0001) %MON DYG_mean                     =   2.8603818508931E+05
(PID.TID 0000.0001) %MON DYG_sd                       =   3.4140406908005E+04
(PID.TID 0000.0001) %MON DYU_max                      =   3.2380418162750E+05
(PID.TID 0000.0001) %MON DYU_min                      =   8.0152299824136E+04
(PID.TID 0000.0001) %MON DYU_mean                     =   2.8603970633619E+05
(PID.TID 0000.0001) %MON DYU_sd                       =   3.4145142117723E+04
(PID.TID 0000.0001) %MON RA_max                       =   1.0479260248419E+11
(PID.TID 0000.0001) %MON RA_min                       =   1.4019007022556E+10
(PID.TID 0000.0001) %MON RA_mean                      =   8.2992246709265E+10
(PID.TID 0000.0001) %MON RA_sd                        =   1.7509089299457E+10
(PID.TID 0000.0001) %MON RAW_max                      =   1.0480965274559E+11
(PID.TID 0000.0001) %MON RAW_min                      =   1.2166903467143E+10
(PID.TID 0000.0001) %MON RAW_mean                     =   8.2992246709235E+10
(PID.TID 0000.0001) %MON RAW_sd                       =   1.7481917919656E+10
(PID.TID 0000.0001) %MON RAS_max                      =   1.0480965274559E+11
(PID.TID 0000.0001) %MON RAS_min                      =   1.2166903467143E+10
(PID.TID 0000.0001) %MON RAS_mean                     =   8.2992246709235E+10
(PID.TID 0000.0001) %MON RAS_sd                       =   1.7481917919656E+10
(PID.TID 0000.0001) %MON RAZ_max                      =   1.0484349334619E+11
(PID.TID 0000.0001) %MON RAZ_min                      =   8.8317900612505E+09
(PID.TID 0000.0001) %MON RAZ_mean                     =   8.2992246709235E+10
(PID.TID 0000.0001) %MON RAZ_sd                       =   1.7482297311044E+10
(PID.TID 0000.0001) %MON AngleCS_max                  =   9.9999994756719E-01
(PID.TID 0000.0001) %MON AngleCS_min                  =  -9.9968286884824E-01
(PID.TID 0000.0001) %MON AngleCS_mean                 =   3.3078922539000E-01
(PID.TID 0000.0001) %MON AngleCS_sd                   =   6.2496278958502E-01
(PID.TID 0000.0001) %MON AngleSN_max                  =   9.9968286884824E-01
(PID.TID 0000.0001) %MON AngleSN_min                  =  -9.9999994756719E-01
(PID.TID 0000.0001) %MON AngleSN_mean                 =  -3.3078922539000E-01
(PID.TID 0000.0001) %MON AngleSN_sd                   =   6.2496278958502E-01
(PID.TID 0000.0001)  MDS_READ_FIELD: opening global file: bathy_in_P.bin
(PID.TID 0000.0001) 
(PID.TID 0000.0001) // =======================================================
(PID.TID 0000.0001) // Calendar configuration >>> START <<<
(PID.TID 0000.0001) // =======================================================
(PID.TID 0000.0001) 
(PID.TID 0000.0001) modelstart = /* Start time of the model integration [s] */
(PID.TID 0000.0001)                 0.000000000000000E+00
(PID.TID 0000.0001)     ;
(PID.TID 0000.0001) modelend  = /* End time of the model integration [s] */
(PID.TID 0000.0001)                 8.640000000000000E+05
(PID.TID 0000.0001)     ;
(PID.TID 0000.0001) modelStep = /* Time interval for a model forward step [s] */
(PID.TID 0000.0001)                 8.640000000000000E+04
(PID.TID 0000.0001)     ;
(PID.TID 0000.0001) usingGregorianCalendar= /* Calendar Type: Gregorian Calendar */
(PID.TID 0000.0001)                   F
(PID.TID 0000.0001)     ;
(PID.TID 0000.0001) usingJulianCalendar = /* Calendar Type: Julian Calendar */
(PID.TID 0000.0001)                   F
(PID.TID 0000.0001)     ;
(PID.TID 0000.0001) usingNoLeapYearCal  = /* Calendar Type: without Leap Year */
(PID.TID 0000.0001)                   F
(PID.TID 0000.0001)     ;
(PID.TID 0000.0001) usingModelCalendar  = /* Calendar Type: Model Calendar */
(PID.TID 0000.0001)                   T
(PID.TID 0000.0001)     ;
(PID.TID 0000.0001) modelStartDate YYYYMMDD = /* Model start date YYYY-MM-DD */
(PID.TID 0000.0001)                   10101
(PID.TID 0000.0001)     ;
(PID.TID 0000.0001)   modelStartDate HHMMSS = /* Model start date HH-MM-SS  */
(PID.TID 0000.0001)                       0
(PID.TID 0000.0001)     ;
(PID.TID 0000.0001) modelEndDate   YYYYMMDD = /* Model end date YYYY-MM-DD */
(PID.TID 0000.0001)                   10111
(PID.TID 0000.0001)     ;
(PID.TID 0000.0001)   modelEndDate   HHMMSS = /* Model end date HH-MM-SS  */
(PID.TID 0000.0001)                       0
(PID.TID 0000.0001)     ;
(PID.TID 0000.0001) intyears = /* Number of calendar years affected by the integration */
(PID.TID 0000.0001)                       1
(PID.TID 0000.0001)     ;
(PID.TID 0000.0001) intmonths= /* Number of calendar months affected by the integration */
(PID.TID 0000.0001)                       1
(PID.TID 0000.0001)     ;
(PID.TID 0000.0001) intdays = /* Number of calendar days affected by the integration */
(PID.TID 0000.0001)                      10
(PID.TID 0000.0001)     ;
(PID.TID 0000.0001) modelIter0 = /* Base timestep number  */
(PID.TID 0000.0001)                       0
(PID.TID 0000.0001)     ;
(PID.TID 0000.0001) modelIterEnd = /* Final timestep number  */
(PID.TID 0000.0001)                      10
(PID.TID 0000.0001)     ;
(PID.TID 0000.0001) modelIntSteps= /* Number of model timesteps  */
(PID.TID 0000.0001)                      10
(PID.TID 0000.0001)     ;
(PID.TID 0000.0001) 
(PID.TID 0000.0001) // =======================================================
(PID.TID 0000.0001) // Calendar configuration  >>> END <<<
(PID.TID 0000.0001) // =======================================================
(PID.TID 0000.0001) 
(PID.TID 0000.0001) GAD_INIT_FIXED: GAD_OlMinSize=  1  0  1
(PID.TID 0000.0001) 
(PID.TID 0000.0001) // ===================================
(PID.TID 0000.0001) // GAD parameters :
(PID.TID 0000.0001) // ===================================
(PID.TID 0000.0001) tempAdvScheme =   /* Temp. Horiz.Advection scheme selector */
(PID.TID 0000.0001)                       2
(PID.TID 0000.0001)     ;
(PID.TID 0000.0001) tempVertAdvScheme =   /* Temp. Vert. Advection scheme selector */
(PID.TID 0000.0001)                       2
(PID.TID 0000.0001)     ;
(PID.TID 0000.0001) tempMultiDimAdvec =   /* use Muti-Dim Advec method for Temp */
(PID.TID 0000.0001)                   F
(PID.TID 0000.0001)     ;
(PID.TID 0000.0001) tempSOM_Advection = /* use 2nd Order Moment Advection for Temp */
(PID.TID 0000.0001)                   F
(PID.TID 0000.0001)     ;
(PID.TID 0000.0001) AdamsBashforthGt = /* apply Adams-Bashforth extrapolation on Gt */
(PID.TID 0000.0001)                   T
(PID.TID 0000.0001)     ;
(PID.TID 0000.0001) AdamsBashforth_T = /* apply Adams-Bashforth extrapolation on Temp */
(PID.TID 0000.0001)                   F
(PID.TID 0000.0001)     ;
(PID.TID 0000.0001) saltAdvScheme =   /* Salt. Horiz.advection scheme selector */
(PID.TID 0000.0001)                       2
(PID.TID 0000.0001)     ;
(PID.TID 0000.0001) saltVertAdvScheme =   /* Salt. Vert. Advection scheme selector */
(PID.TID 0000.0001)                       2
(PID.TID 0000.0001)     ;
(PID.TID 0000.0001) saltMultiDimAdvec =   /* use Muti-Dim Advec method for Salt */
(PID.TID 0000.0001)                   F
(PID.TID 0000.0001)     ;
(PID.TID 0000.0001) saltSOM_Advection = /* use 2nd Order Moment Advection for Salt */
(PID.TID 0000.0001)                   F
(PID.TID 0000.0001)     ;
(PID.TID 0000.0001) AdamsBashforthGs = /* apply Adams-Bashforth extrapolation on Gs */
(PID.TID 0000.0001)                   T
(PID.TID 0000.0001)     ;
(PID.TID 0000.0001) AdamsBashforth_S = /* apply Adams-Bashforth extrapolation on Salt */
(PID.TID 0000.0001)                   F
(PID.TID 0000.0001)     ;
(PID.TID 0000.0001) // ===================================
(PID.TID 0000.0001) 
(PID.TID 0000.0001) // =======================================================
(PID.TID 0000.0001) // External forcing (EXF) configuration >>> START <<<
(PID.TID 0000.0001) // =======================================================
(PID.TID 0000.0001) 
(PID.TID 0000.0001)  EXF general parameters:
(PID.TID 0000.0001) 
(PID.TID 0000.0001) exf_iprec = /* exf file precision */
(PID.TID 0000.0001)                      64
(PID.TID 0000.0001)     ;
(PID.TID 0000.0001) useExfYearlyFields = /* add extension _YEAR to input file names */
(PID.TID 0000.0001)                   F
(PID.TID 0000.0001)     ;
(PID.TID 0000.0001) twoDigitYear = /* use 2-digit year extension */
(PID.TID 0000.0001)                   F
(PID.TID 0000.0001)     ;
(PID.TID 0000.0001) useExfCheckRange = /* check for fields range */
(PID.TID 0000.0001)                   T
(PID.TID 0000.0001)     ;
(PID.TID 0000.0001) diags_opOceWeighted = /* weight flux diags by open-ocean fraction */
(PID.TID 0000.0001)                   T
(PID.TID 0000.0001)     ;
(PID.TID 0000.0001) exf_debugLev = /* select EXF-debug printing level */
(PID.TID 0000.0001)                       2
(PID.TID 0000.0001)     ;
(PID.TID 0000.0001) exf_monFreq  = /* EXF monitor frequency [ s ] */
(PID.TID 0000.0001)                 0.000000000000000E+00
(PID.TID 0000.0001)     ;
(PID.TID 0000.0001) exf_adjMonSelect = /* select group of exf AD-variables to monitor */
(PID.TID 0000.0001)                       1
(PID.TID 0000.0001)     ;
(PID.TID 0000.0001) repeatPeriod = /* period for cycling forcing dataset [ s ] */
(PID.TID 0000.0001)                 3.110400000000000E+07
(PID.TID 0000.0001)     ;
(PID.TID 0000.0001) climTempFreeze= /* Minimum climatological temperature [deg.C] */
(PID.TID 0000.0001)                -1.900000000000000E+00
(PID.TID 0000.0001)     ;
(PID.TID 0000.0001) windStressMax = /* Maximum absolute windstress [ Pa ] */
(PID.TID 0000.0001)                 2.000000000000000E+00
(PID.TID 0000.0001)     ;
(PID.TID 0000.0001) stressIsOnCgrid = /* set u,v_stress on Arakawa C-grid */
(PID.TID 0000.0001)                   T
(PID.TID 0000.0001)     ;
(PID.TID 0000.0001) rotateStressOnAgrid = /* rotate u,v_stress on Arakawa A-grid */
(PID.TID 0000.0001)                   F
(PID.TID 0000.0001)     ;
(PID.TID 0000.0001) cen2kel = /* conversion of deg. Centigrade to Kelvin [K] */
(PID.TID 0000.0001)                 2.731500000000000E+02
(PID.TID 0000.0001)     ;
(PID.TID 0000.0001) gravity_mks= /* gravitational acceleration [m/s^2] */
(PID.TID 0000.0001)                 9.810000000000000E+00
(PID.TID 0000.0001)     ;
(PID.TID 0000.0001) atmrho =  /* mean atmospheric density [kg/m^3] */
(PID.TID 0000.0001)                 1.220000000000000E+00
(PID.TID 0000.0001)     ;
(PID.TID 0000.0001) atmcp =  /* mean atmospheric specific heat [J/kg/K] */
(PID.TID 0000.0001)                 1.005000000000000E+03
(PID.TID 0000.0001)     ;
(PID.TID 0000.0001) flamb =  /* latent heat of evaporation [J/kg] */
(PID.TID 0000.0001)                 2.500000000000000E+06
(PID.TID 0000.0001)     ;
(PID.TID 0000.0001) flami =  /* latent heat of pure-ice melting [J/kg] */
(PID.TID 0000.0001)                 3.340000000000000E+05
(PID.TID 0000.0001)     ;
(PID.TID 0000.0001) cvapor_fac = /* const. for Saturation calculation [?] */
(PID.TID 0000.0001)                 6.403800000000000E+05
(PID.TID 0000.0001)     ;
(PID.TID 0000.0001) cvapor_exp = /* const. for Saturation calculation [?] */
(PID.TID 0000.0001)                 5.107400000000000E+03
(PID.TID 0000.0001)     ;
(PID.TID 0000.0001) cvapor_fac_ice= /* const. for Saturation calculation [?] */
(PID.TID 0000.0001)                 1.163780000000000E+07
(PID.TID 0000.0001)     ;
(PID.TID 0000.0001) cvapor_exp_ice= /* const. for Saturation calculation [?] */
(PID.TID 0000.0001)                 5.897800000000000E+03
(PID.TID 0000.0001)     ;
(PID.TID 0000.0001) humid_fac = /* humidity coef. in virtual temp. [(kg/kg)^-1] */
(PID.TID 0000.0001)                 6.080000000000000E-01
(PID.TID 0000.0001)     ;
(PID.TID 0000.0001) gamma_blk = /* adiabatic lapse rate [?] */
(PID.TID 0000.0001)                 1.000000000000000E-02
(PID.TID 0000.0001)     ;
(PID.TID 0000.0001) saltsat = /* reduction of Qsat over salty water [-] */
(PID.TID 0000.0001)                 9.800000000000000E-01
(PID.TID 0000.0001)     ;
(PID.TID 0000.0001) noNegativeEvap = /* prevent negative Evaporation */
(PID.TID 0000.0001)                   F
(PID.TID 0000.0001)     ;
(PID.TID 0000.0001) sstExtrapol = /* extrapolation coeff from lev. 1 & 2 to surf [-] */
(PID.TID 0000.0001)                 0.000000000000000E+00
(PID.TID 0000.0001)     ;
(PID.TID 0000.0001) cDrag_1 = /* coef used in drag calculation [m/s] */
(PID.TID 0000.0001)                 2.700000000000000E-03
(PID.TID 0000.0001)     ;
(PID.TID 0000.0001) cDrag_2 = /* coef used in drag calculation [-] */
(PID.TID 0000.0001)                 1.420000000000000E-04
(PID.TID 0000.0001)     ;
(PID.TID 0000.0001) cDrag_3 = /* coef used in drag calculation [s/m] */
(PID.TID 0000.0001)                 7.640000000000000E-05
(PID.TID 0000.0001)     ;
(PID.TID 0000.0001) cDrag_8 = /* coef used in drag calculation [(s/m)^6] */
(PID.TID 0000.0001)                 1.234567000000000E+05
(PID.TID 0000.0001)     ;
(PID.TID 0000.0001) cDragMax = /* maximum drag (Large and Yeager, 2009) [-] */
(PID.TID 0000.0001)                 1.234567000000000E+05
(PID.TID 0000.0001)     ;
(PID.TID 0000.0001) umax = /* at maximum wind (Large and Yeager, 2009) [m/s] */
(PID.TID 0000.0001)                 1.234567000000000E+05
(PID.TID 0000.0001)     ;
(PID.TID 0000.0001) cStanton_1 = /* coef used in Stanton number calculation [-] */
(PID.TID 0000.0001)                 3.270000000000000E-02
(PID.TID 0000.0001)     ;
(PID.TID 0000.0001) cStanton_2 = /* coef used in Stanton number calculation [-] */
(PID.TID 0000.0001)                 1.800000000000000E-02
(PID.TID 0000.0001)     ;
(PID.TID 0000.0001) cDalton = /* Dalton number [-] */
(PID.TID 0000.0001)                 3.460000000000000E-02
(PID.TID 0000.0001)     ;
(PID.TID 0000.0001) exf_scal_BulkCdn= /* Drag coefficient scaling factor [-] */
(PID.TID 0000.0001)                 1.000000000000000E+00
(PID.TID 0000.0001)     ;
(PID.TID 0000.0001) zolmin = /* minimum stability parameter [?] */
(PID.TID 0000.0001)                -1.000000000000000E+02
(PID.TID 0000.0001)     ;
(PID.TID 0000.0001) psim_fac = /* coef used in turbulent fluxes calculation [-] */
(PID.TID 0000.0001)                 5.000000000000000E+00
(PID.TID 0000.0001)     ;
(PID.TID 0000.0001) zref =  /* reference height [ m ] */
(PID.TID 0000.0001)                 1.000000000000000E+01
(PID.TID 0000.0001)     ;
(PID.TID 0000.0001) hu =  /* height of mean wind [ m ] */
(PID.TID 0000.0001)                 1.000000000000000E+01
(PID.TID 0000.0001)     ;
(PID.TID 0000.0001) ht =  /* height of mean temperature [ m ] */
(PID.TID 0000.0001)                 1.000000000000000E+01
(PID.TID 0000.0001)     ;
(PID.TID 0000.0001) hq =  /* height of mean spec.humidity [ m ] */
(PID.TID 0000.0001)                 1.000000000000000E+01
(PID.TID 0000.0001)     ;
(PID.TID 0000.0001) uMin = /* minimum wind speed [m/s] */
(PID.TID 0000.0001)                 5.000000000000000E-01
(PID.TID 0000.0001)     ;
(PID.TID 0000.0001) useStabilityFct_overIce= /* transfert Coeffs over sea-ice depend on stability */
(PID.TID 0000.0001)                   F
(PID.TID 0000.0001)     ;
(PID.TID 0000.0001) exf_iceCd = /* drag coefficient over sea-ice (fixed) [-] */
(PID.TID 0000.0001)                 1.630000000000000E-03
(PID.TID 0000.0001)     ;
(PID.TID 0000.0001) exf_iceCe = /* transfert coeff. over sea-ice, for Evap (fixed) [-] */
(PID.TID 0000.0001)                 1.630000000000000E-03
(PID.TID 0000.0001)     ;
(PID.TID 0000.0001) exf_iceCh = /* transfert coeff. over sea-ice, Sens.Heat.(fixed)[-] */
(PID.TID 0000.0001)                 1.630000000000000E-03
(PID.TID 0000.0001)     ;
(PID.TID 0000.0001) exf_albedo =  /* Sea-water albedo [-] */
(PID.TID 0000.0001)                 6.600000000000000E-02
(PID.TID 0000.0001)     ;
(PID.TID 0000.0001) useExfZenAlbedo = /* Sea-water albedo varies with zenith angle */
(PID.TID 0000.0001)                   F
(PID.TID 0000.0001)     ;
(PID.TID 0000.0001) select_ZenAlbedo = /* Sea-water albedo computation method */
(PID.TID 0000.0001)                       0
(PID.TID 0000.0001)     ;
(PID.TID 0000.0001) useExfZenIncoming = /* compute incoming solar radiation */
(PID.TID 0000.0001)                   F
(PID.TID 0000.0001)     ;
(PID.TID 0000.0001) ocean_emissivity = /* longwave ocean-surface emissivity [-] */
(PID.TID 0000.0001)                 1.000000000000000E+00
(PID.TID 0000.0001)     ;
(PID.TID 0000.0001) ice_emissivity = /* longwave seaice emissivity [-] */
(PID.TID 0000.0001)                 9.500000000000000E-01
(PID.TID 0000.0001)     ;
(PID.TID 0000.0001) snow_emissivity = /* longwave snow  emissivity [-] */
(PID.TID 0000.0001)                 9.500000000000000E-01
(PID.TID 0000.0001)     ;
(PID.TID 0000.0001) 
(PID.TID 0000.0001)  EXF main CPP flags:
(PID.TID 0000.0001) 
(PID.TID 0000.0001) // USE_EXF_INTERPOLATION:          NOT defined
(PID.TID 0000.0001) // ALLOW_ATM_TEMP:                     defined
(PID.TID 0000.0001) // ALLOW_ATM_WIND (useAtmWind):    NOT defined
(PID.TID 0000.0001) // ALLOW_DOWNWARD_RADIATION:           defined
(PID.TID 0000.0001) // ALLOW_BULKFORMULAE:                 defined
(PID.TID 0000.0001) 
(PID.TID 0000.0001)    Zonal wind stress forcing starts at             1296000.
(PID.TID 0000.0001)    Zonal wind stress forcing period is             2592000.
(PID.TID 0000.0001)    Zonal wind stress forcing repeat-cycle is      31104000.
(PID.TID 0000.0001)    Zonal wind stress forcing is read from file:
(PID.TID 0000.0001)    >> trenberth_taux.bin <<
(PID.TID 0000.0001) 
(PID.TID 0000.0001)    Meridional wind stress forcing starts at        1296000.
(PID.TID 0000.0001)    Meridional wind stress forcing period is        2592000.
(PID.TID 0000.0001)    Meridional wind stress forcing rep-cycle is    31104000.
(PID.TID 0000.0001)    Meridional wind stress forcing is read from file:
(PID.TID 0000.0001)    >> trenberth_tauy.bin <<
(PID.TID 0000.0001) 
(PID.TID 0000.0001)    Surface wind speed starts at                    1296000.
(PID.TID 0000.0001)    Surface wind speed period is                    2592000.
(PID.TID 0000.0001)    Surface wind speed repeat-cycle is             31104000.
(PID.TID 0000.0001)    Surface wind speed is read from file:
(PID.TID 0000.0001)    >> core_wndSpd_cs32.bin <<
(PID.TID 0000.0001) 
(PID.TID 0000.0001)    Atmospheric temperature starts at               1296000.
(PID.TID 0000.0001)    Atmospheric temperature period is               2592000.
(PID.TID 0000.0001)    Atmospheric temperature repeat-cycle is        31104000.
(PID.TID 0000.0001)    Atmospheric temperature is read from file:
(PID.TID 0000.0001)    >> core_t_Air_cs32.bin <<
(PID.TID 0000.0001) 
(PID.TID 0000.0001)    Atmospheric specific humidity starts at         1296000.
(PID.TID 0000.0001)    Atmospheric specific humidity period is         2592000.
(PID.TID 0000.0001)    Atmospheric specific humidity rep-cycle is     31104000.
(PID.TID 0000.0001)    Atmospheric specific humidity is read from file:
(PID.TID 0000.0001)    >> core_q_air_cs32.bin <<
(PID.TID 0000.0001) 
(PID.TID 0000.0001) // ALLOW_READ_TURBFLUXES:          NOT defined
(PID.TID 0000.0001) // EXF_READ_EVAP:                  NOT defined
(PID.TID 0000.0001) 
(PID.TID 0000.0001)    Precipitation data starts at                    1296000.
(PID.TID 0000.0001)    Precipitation data period is                    2592000.
(PID.TID 0000.0001)    Precipitation data repeat-cycle is             31104000.
(PID.TID 0000.0001)    Precipitation data is read from file:
(PID.TID 0000.0001)    >> core_prec_1_cs32.bin <<
(PID.TID 0000.0001) 
(PID.TID 0000.0001) // ALLOW_RUNOFF:                       defined
(PID.TID 0000.0001)    Runoff data starts at                           1296000.
(PID.TID 0000.0001)    Runoff data period is                           2592000.
(PID.TID 0000.0001)    Runoff data repeat-cycle is                    31104000.
(PID.TID 0000.0001)    Runoff data is read from file:
(PID.TID 0000.0001)    >> core_rnof_1_cs32.bin <<
(PID.TID 0000.0001) 
(PID.TID 0000.0001) // ALLOW_RUNOFTEMP:                    defined
(PID.TID 0000.0001)    Runoff temp. is read from file:
(PID.TID 0000.0001)    >> runoff_temperature.bin <<
(PID.TID 0000.0001) 
(PID.TID 0000.0001) // ALLOW_SALTFLX:                  NOT defined
(PID.TID 0000.0001) 
(PID.TID 0000.0001)    Downward shortwave flux starts at               1296000.
(PID.TID 0000.0001)    Downward shortwave flux period is               2592000.
(PID.TID 0000.0001)    Downward shortwave flux repeat-cycle is        31104000.
(PID.TID 0000.0001)    Downward shortwave flux is read from file:
(PID.TID 0000.0001)    >> core_dwnSw_cs32.bin <<
(PID.TID 0000.0001) 
(PID.TID 0000.0001)    Downward longwave flux starts at                1296000.
(PID.TID 0000.0001)    Downward longwave flux period is                2592000.
(PID.TID 0000.0001)    Downward longwave flux repeat-cycle is         31104000.
(PID.TID 0000.0001)    Downward longwave flux is read from file:
(PID.TID 0000.0001)    >> core_dwnLw_cs32.bin <<
(PID.TID 0000.0001) 
(PID.TID 0000.0001) // =======================================================
(PID.TID 0000.0001) // External forcing (EXF) climatology configuration :
(PID.TID 0000.0001) // =======================================================
(PID.TID 0000.0001) 
(PID.TID 0000.0001) // ALLOW_CLIMSST_RELAXATION:           defined
(PID.TID 0000.0001)    Climatological SST starts at                    1296000.
(PID.TID 0000.0001)    Climatological SST period is                    2592000.
(PID.TID 0000.0001)    Climatological SST repeat-cycle is             31104000.
(PID.TID 0000.0001)    Climatological SST is read from file:
(PID.TID 0000.0001)    >> lev_surfT_cs_12m.bin <<
(PID.TID 0000.0001) 
(PID.TID 0000.0001) // ALLOW_CLIMSSS_RELAXATION:           defined
(PID.TID 0000.0001)    Climatological SSS starts at                    1296000.
(PID.TID 0000.0001)    Climatological SSS period is                    2592000.
(PID.TID 0000.0001)    Climatological SSS repeat-cycle is             31104000.
(PID.TID 0000.0001)    Climatological SSS is read from file:
(PID.TID 0000.0001)    >> lev_surfS_cs_12m.bin <<
(PID.TID 0000.0001) 
(PID.TID 0000.0001) // =======================================================
(PID.TID 0000.0001) // External forcing (EXF) configuration  >>> END <<<
(PID.TID 0000.0001) // =======================================================
(PID.TID 0000.0001) 
(PID.TID 0000.0001) // =======================================================
(PID.TID 0000.0001) // Seaice configuration (SEAICE_PARM01) >>> START <<<
(PID.TID 0000.0001) // =======================================================
(PID.TID 0000.0001) 
(PID.TID 0000.0001)    Seaice time stepping configuration   > START <
(PID.TID 0000.0001)    ----------------------------------------------
(PID.TID 0000.0001) SEAICE_deltaTtherm= /* thermodynamic timestep */
(PID.TID 0000.0001)                 8.640000000000000E+04
(PID.TID 0000.0001)     ;
(PID.TID 0000.0001) SEAICE_deltaTdyn  = /* dynamic timestep */
(PID.TID 0000.0001)                 8.640000000000000E+04
(PID.TID 0000.0001)     ;
(PID.TID 0000.0001) SEAICEuseBDF2  = /* use backw. differencing for mom. eq. */
(PID.TID 0000.0001)                   F
(PID.TID 0000.0001)     ;
(PID.TID 0000.0001) SEAICEupdateOceanStress= /* update Ocean surf. stress */
(PID.TID 0000.0001)                   T
(PID.TID 0000.0001)     ;
(PID.TID 0000.0001) SEAICErestoreUnderIce  = /* restore T and S under ice */
(PID.TID 0000.0001)                   F
(PID.TID 0000.0001)     ;
(PID.TID 0000.0001) 
(PID.TID 0000.0001)    Seaice dynamics configuration   > START <
(PID.TID 0000.0001)    ------------------------------------------
(PID.TID 0000.0001) SEAICEuseDYNAMICS = /* use dynamics */
(PID.TID 0000.0001)                   T
(PID.TID 0000.0001)     ;
(PID.TID 0000.0001) model grid type   = /* type of sea ice model grid */
(PID.TID 0000.0001)               'C-GRID'
(PID.TID 0000.0001)     ;
(PID.TID 0000.0001) SEAICEuseStrImpCpl = /* use strongly implicit coupling */
(PID.TID 0000.0001)                   T
(PID.TID 0000.0001)     ;
(PID.TID 0000.0001) SEAICEusePicardAsPrecon = /* Picard as preconditioner */
(PID.TID 0000.0001)                   F
(PID.TID 0000.0001)     ;
(PID.TID 0000.0001) SEAICEuseLSR      = /* use default Picard-LSR solver */
(PID.TID 0000.0001)                   T
(PID.TID 0000.0001)     ;
(PID.TID 0000.0001) SEAICEuseLSRflex  = /* with residual norm criterion */
(PID.TID 0000.0001)                   F
(PID.TID 0000.0001)     ;
(PID.TID 0000.0001) SEAICEuseKrylov   = /* use Picard-Krylov solver */
(PID.TID 0000.0001)                   F
(PID.TID 0000.0001)     ;
(PID.TID 0000.0001) SEAICEuseEVP      = /* use EVP solver rather than LSR */
(PID.TID 0000.0001)                   F
(PID.TID 0000.0001)     ;
(PID.TID 0000.0001) SEAICEuseJFNK     = /* use JFNK solver */
(PID.TID 0000.0001)                   F
(PID.TID 0000.0001)     ;
(PID.TID 0000.0001) OCEAN_drag        = /* air-ocean drag coefficient */
(PID.TID 0000.0001)                 1.000000000000000E-03
(PID.TID 0000.0001)     ;
(PID.TID 0000.0001) SEAICE_drag       = /* air-ice drag coefficient */
(PID.TID 0000.0001)                 1.000000000000000E-03
(PID.TID 0000.0001)     ;
(PID.TID 0000.0001) SEAICE_drag_south      = /* Southern Ocean SEAICE_drag */
(PID.TID 0000.0001)                 1.000000000000000E-03
(PID.TID 0000.0001)     ;
(PID.TID 0000.0001) SEAICE_waterDrag  = /* water-ice drag (no units) */
(PID.TID 0000.0001)                 5.500000000000000E-03
(PID.TID 0000.0001)     ;
(PID.TID 0000.0001) SEAICE_waterDrag_south = /* Southern Ocean waterDrag (no units) */
(PID.TID 0000.0001)                 5.500000000000000E-03
(PID.TID 0000.0001)     ;
(PID.TID 0000.0001) SEAICEdWatMin = /* minimum linear water-ice drag (in m/s) */
(PID.TID 0000.0001)                 2.500000000000000E-01
(PID.TID 0000.0001)     ;
(PID.TID 0000.0001) SEAICEuseTilt     = /* include surface tilt in dyna. */
(PID.TID 0000.0001)                   T
(PID.TID 0000.0001)     ;
(PID.TID 0000.0001) SEAICEuseTEM      = /* use truncated ellipse rheology */
(PID.TID 0000.0001)                   F
(PID.TID 0000.0001)     ;
(PID.TID 0000.0001) SEAICE_strength   = /* sea-ice strength Pstar */
(PID.TID 0000.0001)                 2.750000000000000E+04
(PID.TID 0000.0001)     ;
(PID.TID 0000.0001) SEAICE_cStar      = /* sea-ice strength parameter cStar */
(PID.TID 0000.0001)                 2.000000000000000E+01
(PID.TID 0000.0001)     ;
(PID.TID 0000.0001) SEAICEpressReplFac= /* press. replacement method factor */
(PID.TID 0000.0001)                 1.000000000000000E+00
(PID.TID 0000.0001)     ;
(PID.TID 0000.0001) SEAICE_tensilFac  = /* sea-ice tensile strength factor */
(PID.TID 0000.0001)                 0.000000000000000E+00
(PID.TID 0000.0001)     ;
(PID.TID 0000.0001) SEAICE_tensilDepth= /* crit. depth for tensile strength */
(PID.TID 0000.0001)                 0.000000000000000E+00
(PID.TID 0000.0001)     ;
(PID.TID 0000.0001) SEAICEpresH0   = /* sea-ice strength Heff threshold */
(PID.TID 0000.0001)                 1.000000000000000E+00
(PID.TID 0000.0001)     ;
(PID.TID 0000.0001) SEAICEpresPow0 = /* exponent for Heff<SEAICEpresH0 */
(PID.TID 0000.0001)                       1
(PID.TID 0000.0001)     ;
(PID.TID 0000.0001) SEAICEpresPow1 = /* exponent for Heff>SEAICEpresH0 */
(PID.TID 0000.0001)                       1
(PID.TID 0000.0001)     ;
(PID.TID 0000.0001) SEAICEetaZmethod = /* method computing eta at Z-point */
(PID.TID 0000.0001)                       3
(PID.TID 0000.0001)     ;
(PID.TID 0000.0001) SEAICE_zetaMaxFac = /* factor for upper viscosity bound */
(PID.TID 0000.0001)                 2.500000000000000E+08
(PID.TID 0000.0001)     ;
(PID.TID 0000.0001) SEAICE_zetaMin    = /* lower bound for viscosity */
(PID.TID 0000.0001)                 0.000000000000000E+00
(PID.TID 0000.0001)     ;
(PID.TID 0000.0001) SEAICE_eccen    = /* elliptical yield curve eccent */
(PID.TID 0000.0001)                 2.000000000000000E+00
(PID.TID 0000.0001)     ;
(PID.TID 0000.0001) SEAICEstressFactor    = /* wind stress scaling factor */
(PID.TID 0000.0001)                 1.000000000000000E+00
(PID.TID 0000.0001)     ;
(PID.TID 0000.0001) SEAICE_airTurnAngle    = /* air-ice turning angle */
(PID.TID 0000.0001)                 0.000000000000000E+00
(PID.TID 0000.0001)     ;
(PID.TID 0000.0001) SEAICE_waterTurnAngle  = /* ice-water turning angle */
(PID.TID 0000.0001)                 0.000000000000000E+00
(PID.TID 0000.0001)     ;
(PID.TID 0000.0001) SEAICEuseMetricTerms = /* use metric terms */
(PID.TID 0000.0001)                   T
(PID.TID 0000.0001)     ;
(PID.TID 0000.0001) SEAICE_no_slip    = /* no slip boundary conditions */
(PID.TID 0000.0001)                   F
(PID.TID 0000.0001)     ;
(PID.TID 0000.0001) SEAICE_2ndOrderBC = /* 2nd order no slip boundary conditions */
(PID.TID 0000.0001)                   F
(PID.TID 0000.0001)     ;
(PID.TID 0000.0001) SEAICE_clipVeloctities = /* impose max. vels. */
(PID.TID 0000.0001)                   T
(PID.TID 0000.0001)     ;
(PID.TID 0000.0001) useHB87stressCoupling  = /* altern. ice-ocean stress */
(PID.TID 0000.0001)                   F
(PID.TID 0000.0001)     ;
(PID.TID 0000.0001) SEAICEscaleSurfStress  = /* scale atm. and ocean-surface stress with AREA */
(PID.TID 0000.0001)                   T
(PID.TID 0000.0001)     ;
(PID.TID 0000.0001) SEAICE_maskRHS    = /* mask RHS of solver */
(PID.TID 0000.0001)                   F
(PID.TID 0000.0001)     ;
(PID.TID 0000.0001) SEAICEaddSnowMass = /* add snow mass to seaiceMassC/U/V */
(PID.TID 0000.0001)                   T
(PID.TID 0000.0001)     ;
(PID.TID 0000.0001) LSR_mixIniGuess = /* mix free-drift sol. into LSR initial Guess */
(PID.TID 0000.0001)                      -1
(PID.TID 0000.0001)     ;
(PID.TID 0000.0001) SEAICE_LSRrelaxU  = /* LSR solver: relaxation parameter */
(PID.TID 0000.0001)                 9.500000000000000E-01
(PID.TID 0000.0001)     ;
(PID.TID 0000.0001) SEAICE_LSRrelaxV  = /* LSR solver: relaxation parameter */
(PID.TID 0000.0001)                 9.500000000000000E-01
(PID.TID 0000.0001)     ;
(PID.TID 0000.0001) LSR_ERROR         = /* sets accuracy of LSR solver */
(PID.TID 0000.0001)                 1.000000000000000E-12
(PID.TID 0000.0001)     ;
(PID.TID 0000.0001) SOLV_NCHECK       = /* test interval for LSR solver */
(PID.TID 0000.0001)                       2
(PID.TID 0000.0001)     ;
(PID.TID 0000.0001) SEAICEuseMultiTileSolver = /* use full domain tri-diag solver */
(PID.TID 0000.0001)                   F
(PID.TID 0000.0001)     ;
(PID.TID 0000.0001) SEAICE_OLx = /* overlap for LSR/preconditioner */
(PID.TID 0000.0001)                       2
(PID.TID 0000.0001)     ;
(PID.TID 0000.0001) SEAICE_OLy = /* overlap for LSR/preconditioner */
(PID.TID 0000.0001)                       2
(PID.TID 0000.0001)     ;
(PID.TID 0000.0001) SEAICEnonLinIterMax = /* max. number of nonlinear solver steps */
(PID.TID 0000.0001)                       2
(PID.TID 0000.0001)     ;
(PID.TID 0000.0001) SEAICElinearIterMax = /* max. number of linear solver steps */
(PID.TID 0000.0001)                    1500
(PID.TID 0000.0001)     ;
(PID.TID 0000.0001) SEAICEnonLinTol     = /* non-linear solver tolerance */
(PID.TID 0000.0001)                 0.000000000000000E+00
(PID.TID 0000.0001)     ;
(PID.TID 0000.0001) 
(PID.TID 0000.0001)    Seaice advection diffusion config,   > START <
(PID.TID 0000.0001)    -----------------------------------------------
(PID.TID 0000.0001) SEAICEmomAdvection = /* advect sea ice momentum */
(PID.TID 0000.0001)                   F
(PID.TID 0000.0001)     ;
(PID.TID 0000.0001) SEAICEadvHeff = /* advect effective ice thickness */
(PID.TID 0000.0001)                   T
(PID.TID 0000.0001)     ;
(PID.TID 0000.0001) SEAICEadvArea = /* advect fractional ice area */
(PID.TID 0000.0001)                   T
(PID.TID 0000.0001)     ;
(PID.TID 0000.0001) SEAICEadvSnow = /* advect snow layer together with ice */
(PID.TID 0000.0001)                   T
(PID.TID 0000.0001)     ;
(PID.TID 0000.0001) SEAICEmultiDimAdvection = /* multidimadvec */
(PID.TID 0000.0001)                   T
(PID.TID 0000.0001)     ;
(PID.TID 0000.0001) SEAICEadvScheme   = /* advection scheme for ice */
(PID.TID 0000.0001)                      77
(PID.TID 0000.0001)     ;
(PID.TID 0000.0001) SEAICEadvSchArea  = /* advection scheme for area */
(PID.TID 0000.0001)                      77
(PID.TID 0000.0001)     ;
(PID.TID 0000.0001) SEAICEadvSchHeff  = /* advection scheme for thickness */
(PID.TID 0000.0001)                      77
(PID.TID 0000.0001)     ;
(PID.TID 0000.0001) SEAICEadvSchSnow  = /* advection scheme for snow */
(PID.TID 0000.0001)                      77
(PID.TID 0000.0001)     ;
(PID.TID 0000.0001) SEAICEdiffKhArea  = /* diffusivity (m^2/s) for area */
(PID.TID 0000.0001)                 0.000000000000000E+00
(PID.TID 0000.0001)     ;
(PID.TID 0000.0001) SEAICEdiffKhHeff  = /* diffusivity (m^2/s) for heff */
(PID.TID 0000.0001)                 0.000000000000000E+00
(PID.TID 0000.0001)     ;
(PID.TID 0000.0001) SEAICEdiffKhSnow  = /* diffusivity (m^2/s) for snow */
(PID.TID 0000.0001)                 0.000000000000000E+00
(PID.TID 0000.0001)     ;
(PID.TID 0000.0001) DIFF1             = /* parameter used in advect.F [m/s] */
(PID.TID 0000.0001)                 0.000000000000000E+00
(PID.TID 0000.0001)     ;
(PID.TID 0000.0001) 
(PID.TID 0000.0001)    Seaice thermodynamics configuration   > START <
(PID.TID 0000.0001)    -----------------------------------------------
(PID.TID 0000.0001) SEAICE_rhoIce     = /* density of sea ice (kg/m3) */
(PID.TID 0000.0001)                 9.100000000000000E+02
(PID.TID 0000.0001)     ;
(PID.TID 0000.0001) SEAICE_rhoSnow    = /* density of snow (kg/m3) */
(PID.TID 0000.0001)                 3.300000000000000E+02
(PID.TID 0000.0001)     ;
(PID.TID 0000.0001) SEAICE_rhoAir     = /* density of air (kg/m3) */
(PID.TID 0000.0001)                 1.220000000000000E+00
(PID.TID 0000.0001)     ;
(PID.TID 0000.0001) usePW79thermodynamics  = /* default 0-layer TD */
(PID.TID 0000.0001)                   T
(PID.TID 0000.0001)     ;
(PID.TID 0000.0001) SEAICE_lhEvap     = /* latent heat of evaporation */
(PID.TID 0000.0001)                 2.500000000000000E+06
(PID.TID 0000.0001)     ;
(PID.TID 0000.0001) SEAICE_lhFusion   = /* latent heat of fusion */
(PID.TID 0000.0001)                 3.340000000000000E+05
(PID.TID 0000.0001)     ;
(PID.TID 0000.0001) SEAICE_mcPheePiston = /* turbulent flux "piston velocity" a la McPhee (m/s) */
(PID.TID 0000.0001)                 5.700000000000000E-04
(PID.TID 0000.0001)     ;
(PID.TID 0000.0001) SEAICE_mcPheeTaper = /* tapering of turbulent flux (0.< <1.) for AREA=1. */
(PID.TID 0000.0001)                 0.000000000000000E+00
(PID.TID 0000.0001)     ;
(PID.TID 0000.0001) SEAICE_mcPheeStepFunc = /* replace linear tapering with step funct. */
(PID.TID 0000.0001)                   F
(PID.TID 0000.0001)     ;
(PID.TID 0000.0001) SEAICE_frazilFrac = /* frazil (T<tempFrz) to seaice conversion rate (0.< <1.) */
(PID.TID 0000.0001)                 1.000000000000000E+00
(PID.TID 0000.0001)     ;
(PID.TID 0000.0001) SEAICE_tempFrz0   = /* freezing temp. of sea water (intercept) */
(PID.TID 0000.0001)                 9.010000000000000E-02
(PID.TID 0000.0001)     ;
(PID.TID 0000.0001) SEAICE_dTempFrz_dS= /* freezing temp. of sea water (slope) */
(PID.TID 0000.0001)                -5.750000000000000E-02
(PID.TID 0000.0001)     ;
(PID.TID 0000.0001) SEAICE_growMeltByConv  = /* grow,melt by vert. conv. */
(PID.TID 0000.0001)                   F
(PID.TID 0000.0001)     ;
(PID.TID 0000.0001) SEAICE_doOpenWaterGrowth = /* grow by open water */
(PID.TID 0000.0001)                   T
(PID.TID 0000.0001)     ;
(PID.TID 0000.0001) SEAICE_doOpenWaterMelt = /* melt by open water */
(PID.TID 0000.0001)                   F
(PID.TID 0000.0001)     ;
(PID.TID 0000.0001) SEAICE_areaGainFormula = /* ice cover gain formula (1,2)*/
(PID.TID 0000.0001)                       1
(PID.TID 0000.0001)     1=from growth by ATM
(PID.TID 0000.0001)     2=from predicted growth by ATM
(PID.TID 0000.0001)     ;
(PID.TID 0000.0001) SEAICE_areaLossFormula = /* ice cover loss formula (1,2)*/
(PID.TID 0000.0001)                       2
(PID.TID 0000.0001)     1=from all but only melt conributions by ATM and OCN
(PID.TID 0000.0001)     2=from net melt-grow>0 by ATM and OCN
(PID.TID 0000.0001)     3=from predicted melt by ATM
(PID.TID 0000.0001)     ;
(PID.TID 0000.0001) HO                = /* nominal thickness of new ice */
(PID.TID 0000.0001)                 5.000000000000000E-01
(PID.TID 0000.0001)     ;
(PID.TID 0000.0001) HO_south               = /* Southern Ocean HO */
(PID.TID 0000.0001)                 5.000000000000000E-01
(PID.TID 0000.0001)     ;
(PID.TID 0000.0001) SEAICE_area_max        = /* set to les than 1. to mimic open leads */
(PID.TID 0000.0001)                 1.000000000000000E+00
(PID.TID 0000.0001)     ;
(PID.TID 0000.0001) SEAICE_salt0   = /* constant sea ice salinity */
(PID.TID 0000.0001)                 4.000000000000000E+00
(PID.TID 0000.0001)     ;
(PID.TID 0000.0001) SEAICE_salinityTracer = /* test SITR varia. salinity */
(PID.TID 0000.0001)                   F
(PID.TID 0000.0001)     ;
(PID.TID 0000.0001) SEAICEuseFlooding = /* turn submerged snow into ice */
(PID.TID 0000.0001)                   T
(PID.TID 0000.0001)     ;
(PID.TID 0000.0001) 
(PID.TID 0000.0001)    Seaice air-sea fluxes configuration,   > START <
(PID.TID 0000.0001)    -----------------------------------------------
(PID.TID 0000.0001) SEAICEheatConsFix  = /* accound for ocn<->seaice advect. heat flux */
(PID.TID 0000.0001)                   T
(PID.TID 0000.0001)     ;
(PID.TID 0000.0001) SEAICE_multDim    = /* number of ice categories (1 or 7) */
(PID.TID 0000.0001)                       7
(PID.TID 0000.0001)     ;
(PID.TID 0000.0001) SEAICE_PDF        = /* sea-ice distribution (-) */
(PID.TID 0000.0001)     7 @  1.428571428571428E-01              /* K =  1:  7 */
(PID.TID 0000.0001)     ;
(PID.TID 0000.0001) IMAX_TICE         = /* iterations for ice surface temp */
(PID.TID 0000.0001)                      10
(PID.TID 0000.0001)     ;
(PID.TID 0000.0001) postSolvTempIter= /* flux calculation after surf. temp iter */
(PID.TID 0000.0001)                       2
(PID.TID 0000.0001)     ;
(PID.TID 0000.0001) SEAICE_dryIceAlb  = /* winter albedo */
(PID.TID 0000.0001)                 7.500000000000000E-01
(PID.TID 0000.0001)     ;
(PID.TID 0000.0001) SEAICE_wetIceAlb  = /* summer albedo */
(PID.TID 0000.0001)                 6.600000000000000E-01
(PID.TID 0000.0001)     ;
(PID.TID 0000.0001) SEAICE_drySnowAlb = /* dry snow albedo */
(PID.TID 0000.0001)                 8.400000000000000E-01
(PID.TID 0000.0001)     ;
(PID.TID 0000.0001) SEAICE_wetSnowAlb = /* wet snow albedo */
(PID.TID 0000.0001)                 7.000000000000000E-01
(PID.TID 0000.0001)     ;
(PID.TID 0000.0001) SEAICE_dryIceAlb_south = /* Southern Ocean dryIceAlb */
(PID.TID 0000.0001)                 7.500000000000000E-01
(PID.TID 0000.0001)     ;
(PID.TID 0000.0001) SEAICE_wetIceAlb_south = /* Southern Ocean wetIceAlb */
(PID.TID 0000.0001)                 6.600000000000000E-01
(PID.TID 0000.0001)     ;
(PID.TID 0000.0001) SEAICE_drySnowAlb_south= /* Southern Ocean drySnowAlb */
(PID.TID 0000.0001)                 8.400000000000000E-01
(PID.TID 0000.0001)     ;
(PID.TID 0000.0001) SEAICE_wetSnowAlb_south= /* Southern Ocean wetSnowAlb */
(PID.TID 0000.0001)                 7.000000000000000E-01
(PID.TID 0000.0001)     ;
(PID.TID 0000.0001) SEAICE_wetAlbTemp= /* Temp (o.C) threshold for wet-albedo */
(PID.TID 0000.0001)                 0.000000000000000E+00
(PID.TID 0000.0001)     ;
(PID.TID 0000.0001) SEAICE_snow_emiss = /* snow emissivity */
(PID.TID 0000.0001)                 9.500000000000000E-01
(PID.TID 0000.0001)     ;
(PID.TID 0000.0001) SEAICE_ice_emiss = /* seaice emissivity */
(PID.TID 0000.0001)                 9.500000000000000E-01
(PID.TID 0000.0001)     ;
(PID.TID 0000.0001) SEAICE_cpAir      = /* heat capacity of air */
(PID.TID 0000.0001)                 1.005000000000000E+03
(PID.TID 0000.0001)     ;
(PID.TID 0000.0001) SEAICE_dalton     = /* constant dalton number */
(PID.TID 0000.0001)                 1.750000000000000E-03
(PID.TID 0000.0001)     ;
(PID.TID 0000.0001) SEAICE_iceConduct = /* sea-ice conductivity */
(PID.TID 0000.0001)                 2.165600000000000E+00
(PID.TID 0000.0001)     ;
(PID.TID 0000.0001) SEAICE_snowConduct= /* snow conductivity */
(PID.TID 0000.0001)                 3.100000000000000E-01
(PID.TID 0000.0001)     ;
(PID.TID 0000.0001) SEAICE_snowThick  = /* cutoff snow thickness (for albedo) */
(PID.TID 0000.0001)                 1.500000000000000E-01
(PID.TID 0000.0001)     ;
(PID.TID 0000.0001) SEAICE_shortwave  = /* penetration shortwave radiation */
(PID.TID 0000.0001)                 3.000000000000000E-01
(PID.TID 0000.0001)     ;
(PID.TID 0000.0001) useMaykutSatVapPoly = /* use Maykut Polynomial for Sat.Vap.Pr */
(PID.TID 0000.0001)                   F
(PID.TID 0000.0001)     ;
(PID.TID 0000.0001) MIN_ATEMP         = /* minimum air temperature */
(PID.TID 0000.0001)                -5.000000000000000E+01
(PID.TID 0000.0001)     ;
(PID.TID 0000.0001) MIN_LWDOWN        = /* minimum downward longwave */
(PID.TID 0000.0001)                 6.000000000000000E+01
(PID.TID 0000.0001)     ;
(PID.TID 0000.0001) MIN_TICE          = /* minimum ice temperature */
(PID.TID 0000.0001)                -5.000000000000000E+01
(PID.TID 0000.0001)     ;
(PID.TID 0000.0001) 
(PID.TID 0000.0001)    Seaice initialization and IO config.,   > START <
(PID.TID 0000.0001)    -------------------------------------------------
(PID.TID 0000.0001) SEAICE_initialHEFF= /* initial sea-ice thickness */
(PID.TID 0000.0001)                 0.000000000000000E+00
(PID.TID 0000.0001)     ;
(PID.TID 0000.0001) AreaFile = /* Initial ice concentration File */
(PID.TID 0000.0001)               ''
(PID.TID 0000.0001)     ;
(PID.TID 0000.0001) HeffFile = /* Initial effective ice thickness File */
(PID.TID 0000.0001)               ''
(PID.TID 0000.0001)     ;
(PID.TID 0000.0001) HsnowFile = /* Initial snow thickness File */
(PID.TID 0000.0001)               ''
(PID.TID 0000.0001)     ;
(PID.TID 0000.0001) uIceFile = /* Initial U-ice velocity File */
(PID.TID 0000.0001)               ''
(PID.TID 0000.0001)     ;
(PID.TID 0000.0001) vIceFile = /* Initial V-ice velocity File */
(PID.TID 0000.0001)               ''
(PID.TID 0000.0001)     ;
(PID.TID 0000.0001) SEAICEwriteState  = /* write sea ice state to file */
(PID.TID 0000.0001)                   F
(PID.TID 0000.0001)     ;
(PID.TID 0000.0001) SEAICE_monFreq  = /* monitor frequency */
(PID.TID 0000.0001)                 1.000000000000000E+00
(PID.TID 0000.0001)     ;
(PID.TID 0000.0001) SEAICE_dumpFreq   = /* dump frequency */
(PID.TID 0000.0001)                 0.000000000000000E+00
(PID.TID 0000.0001)     ;
(PID.TID 0000.0001) SEAICE_taveFreq   = /* time-averaging frequency */
(PID.TID 0000.0001)                 0.000000000000000E+00
(PID.TID 0000.0001)     ;
(PID.TID 0000.0001) SEAICE_mon_stdio  = /* write monitor to std-outp */
(PID.TID 0000.0001)                   T
(PID.TID 0000.0001)     ;
(PID.TID 0000.0001) SEAICE_dump_mdsio = /* write snap-shot   using MDSIO */
(PID.TID 0000.0001)                   T
(PID.TID 0000.0001)     ;
(PID.TID 0000.0001) SEAICE_tave_mdsio = /* write TimeAverage using MDSIO */
(PID.TID 0000.0001)                   T
(PID.TID 0000.0001)     ;
(PID.TID 0000.0001) SEAICE_mon_mnc    = /* write monitor to netcdf file */
(PID.TID 0000.0001)                   F
(PID.TID 0000.0001)     ;
(PID.TID 0000.0001) SEAICE_dump_mnc   = /* write snap-shot   using MNC */
(PID.TID 0000.0001)                   F
(PID.TID 0000.0001)     ;
(PID.TID 0000.0001) SEAICE_tave_mnc   = /* write TimeAverage using MNC */
(PID.TID 0000.0001)                   F
(PID.TID 0000.0001)     ;
(PID.TID 0000.0001) 
(PID.TID 0000.0001)    Seaice regularization numbers,   > START <
(PID.TID 0000.0001)    -----------------------------------------------
(PID.TID 0000.0001) SEAICE_deltaMin   = /* reduce singularities in Delta */
(PID.TID 0000.0001)                 1.000000000000000E-10
(PID.TID 0000.0001)     ;
(PID.TID 0000.0001) SEAICE_EPS        = /* small number */
(PID.TID 0000.0001)                 1.000000000000000E-10
(PID.TID 0000.0001)     ;
(PID.TID 0000.0001) SEAICE_EPS_SQ     = /* small number squared */
(PID.TID 0000.0001)                 1.000000000000000E-20
(PID.TID 0000.0001)     ;
(PID.TID 0000.0001) SEAICE_area_reg   = /* reduce derivative singularities */
(PID.TID 0000.0001)                 1.000000000000000E-05
(PID.TID 0000.0001)     ;
(PID.TID 0000.0001) SEAICE_hice_reg   = /* reduce derivative singularities */
(PID.TID 0000.0001)                 5.000000000000000E-02
(PID.TID 0000.0001)     ;
(PID.TID 0000.0001) SEAICE_area_floor = /* reduce derivative singularities */
(PID.TID 0000.0001)                 1.000000000000000E-05
(PID.TID 0000.0001)     ;
(PID.TID 0000.0001) 
(PID.TID 0000.0001) // =======================================================
(PID.TID 0000.0001) // Seaice configuration (SEAICE_PARM01) >>> END <<<
(PID.TID 0000.0001) // =======================================================
(PID.TID 0000.0001) 
(PID.TID 0000.0001) ------------------------------------------------------------
(PID.TID 0000.0001) DIAGNOSTICS_SET_LEVELS: done
(PID.TID 0000.0001)  Total Nb of available Diagnostics: ndiagt=   325
(PID.TID 0000.0001)  write list of available Diagnostics to file: available_diagnostics.log
(PID.TID 0000.0001) SETDIAG: Allocate  1 x  1 Levels for Diagnostic #    23 ETAN
(PID.TID 0000.0001) SETDIAG: Allocate  1 x  1 Levels for Diagnostic #    24 ETANSQ
(PID.TID 0000.0001) SETDIAG: Allocate  1 x  1 Levels for Diagnostic #    25 DETADT2
(PID.TID 0000.0001) SETDIAG: Allocate  1 x  1 Levels for Diagnostic #    73 PHIBOT
(PID.TID 0000.0001) SETDIAG: Allocate  1 x  1 Levels for Diagnostic #    74 PHIBOTSQ
(PID.TID 0000.0001) SETDIAG: Allocate  1 x  1 Levels for Diagnostic #    81 oceTAUX
(PID.TID 0000.0001) SETDIAG: Allocate  1 x  1 Levels for Diagnostic #    82 oceTAUY
(PID.TID 0000.0001) SETDIAG: Allocate  1 x  1 Levels for Diagnostic #    87 oceQnet
(PID.TID 0000.0001) SETDIAG: Allocate  1 x  1 Levels for Diagnostic #    86 oceSflux
(PID.TID 0000.0001) SETDIAG: Allocate  1 x  1 Levels for Diagnostic #    85 oceFWflx
(PID.TID 0000.0001) SETDIAG: Allocate  1 x  1 Levels for Diagnostic #    78 MXLDEPTH
(PID.TID 0000.0001) SETDIAG: Allocate 15 x  1 Levels for Diagnostic #    30 UVEL
(PID.TID 0000.0001) SETDIAG: Allocate 15 x  1 Levels for Diagnostic #    31 VVEL
(PID.TID 0000.0001) SETDIAG: Allocate 15 x  1 Levels for Diagnostic #    32 WVEL
(PID.TID 0000.0001) SETDIAG: Allocate 15 x  1 Levels for Diagnostic #    71 PHIHYD
(PID.TID 0000.0001) SETDIAG: Allocate 15 x  1 Levels for Diagnostic #    46 VVELMASS
(PID.TID 0000.0001) SETDIAG: Allocate 15 x  1 Levels for Diagnostic #    45 UVELMASS
(PID.TID 0000.0001) SETDIAG: Allocate 15 x  1 Levels for Diagnostic #    38 WVELSQ
(PID.TID 0000.0001) SETDIAG: Allocate 15 x  1 Levels for Diagnostic #    26 THETA
(PID.TID 0000.0001) SETDIAG: Allocate 15 x  1 Levels for Diagnostic #    50 UTHMASS
(PID.TID 0000.0001) SETDIAG: Allocate 15 x  1 Levels for Diagnostic #    51 VTHMASS
(PID.TID 0000.0001) SETDIAG: Allocate 15 x  1 Levels for Diagnostic #    52 WTHMASS
(PID.TID 0000.0001) SETDIAG: Allocate 15 x  1 Levels for Diagnostic #    27 SALT
(PID.TID 0000.0001) SETDIAG: Allocate 15 x  1 Levels for Diagnostic #    53 USLTMASS
(PID.TID 0000.0001) SETDIAG: Allocate 15 x  1 Levels for Diagnostic #    54 VSLTMASS
(PID.TID 0000.0001) SETDIAG: Allocate 15 x  1 Levels for Diagnostic #    55 WSLTMASS
(PID.TID 0000.0001) SETDIAG: Allocate 15 x  1 Levels for Diagnostic #    79 DRHODR
(PID.TID 0000.0001) SETDIAG: Allocate 15 x  1 Levels for Diagnostic #    64 RHOAnoma
(PID.TID 0000.0001) SETDIAG: Allocate 15 x  1 Levels for Diagnostic #   227 GGL90TKE
(PID.TID 0000.0001) SETDIAG: Allocate 15 x  1 Levels for Diagnostic #   233 GGL90Kr
(PID.TID 0000.0001) SETDIAG: Allocate 15 x  1 Levels for Diagnostic #   229 GGL90Lmx
(PID.TID 0000.0001) SETDIAG: Allocate 15 x  1 Levels for Diagnostic #   237 IDEMIX_E
(PID.TID 0000.0001) SETDIAG: Allocate 15 x  1 Levels for Diagnostic #   242 IDEMIX_K
(PID.TID 0000.0001) SETDIAG: Allocate  1 x  1 Levels for Diagnostic #   250 SIheff
(PID.TID 0000.0001) SETDIAG: Allocate  1 x  1 Levels for Diagnostic #   247 SIarea
(PID.TID 0000.0001) SETDIAG: Allocate  1 x  1 Levels for Diagnostic #   252 SIhsnow
(PID.TID 0000.0001) SETDIAG: Allocate  1 x  1 Levels for Diagnostic #   264 SIuice
(PID.TID 0000.0001) SETDIAG: Allocate  1 x  1 Levels for Diagnostic #   265 SIvice
(PID.TID 0000.0001)   space allocated for all diagnostics:     346 levels
(PID.TID 0000.0001)   set mate pointer for diag #    81  oceTAUX  , Parms: UU      U1 , mate:    82
(PID.TID 0000.0001)   set mate pointer for diag #    82  oceTAUY  , Parms: VV      U1 , mate:    81
(PID.TID 0000.0001)   set mate pointer for diag #    30  UVEL     , Parms: UUR     MR , mate:    31
(PID.TID 0000.0001)   set mate pointer for diag #    31  VVEL     , Parms: VVR     MR , mate:    30
(PID.TID 0000.0001)   set mate pointer for diag #    46  VVELMASS , Parms: VVr     MR , mate:    45
(PID.TID 0000.0001)   set mate pointer for diag #    45  UVELMASS , Parms: UUr     MR , mate:    46
(PID.TID 0000.0001)   set mate pointer for diag #    50  UTHMASS  , Parms: UUr     MR , mate:    51
(PID.TID 0000.0001)   set mate pointer for diag #    51  VTHMASS  , Parms: VVr     MR , mate:    50
(PID.TID 0000.0001)   set mate pointer for diag #    53  USLTMASS , Parms: UUr     MR , mate:    54
(PID.TID 0000.0001)   set mate pointer for diag #    54  VSLTMASS , Parms: VVr     MR , mate:    53
(PID.TID 0000.0001)   set mate pointer for diag #   264  SIuice   , Parms: UU      M1 , mate:   265
(PID.TID 0000.0001)   set mate pointer for diag #   265  SIvice   , Parms: VV      M1 , mate:   264
(PID.TID 0000.0001) DIAGNOSTICS_SET_POINTERS: Set levels for Outp.Stream: surfDiag
(PID.TID 0000.0001)  Levels:       1.
(PID.TID 0000.0001) DIAGNOSTICS_SET_POINTERS: Set levels for Outp.Stream: dynDiag
(PID.TID 0000.0001)  Levels:       1.   2.   3.   4.   5.   6.   7.   8.   9.  10.  11.  12.  13.  14.  15.
(PID.TID 0000.0001) DIAGNOSTICS_SET_POINTERS: Set levels for Outp.Stream: oceDiag
(PID.TID 0000.0001)  Levels:       1.   2.   3.   4.   5.   6.   7.   8.   9.  10.  11.  12.  13.  14.  15.
(PID.TID 0000.0001) DIAGNOSTICS_SET_POINTERS: Set levels for Outp.Stream: seaiceDiag
(PID.TID 0000.0001)  Levels:       1.
(PID.TID 0000.0001) DIAGNOSTICS_SET_POINTERS: done, use     346 levels (numDiags =     600 )
(PID.TID 0000.0001) ------------------------------------------------------------
 DIAGSTATS_SET_REGIONS: start reading region-mask file: regMask_lat24.bin
 DIAGSTATS_SET_REGIONS:  reading set k=  1
(PID.TID 0000.0001)  MDS_READ_FIELD: opening global file: regMask_lat24.bin
 DIAGSTATS_SET_REGIONS:          set k=  1 <= done
(PID.TID 0000.0001) DIAGSTATS_SET_REGIONS: define   3 regions:  1  2  3
(PID.TID 0000.0001) ------------------------------------------------------------
(PID.TID 0000.0001) SETDIAG: Allocate  1 Levels for Stats-Diag #    23 ETAN
(PID.TID 0000.0001) SETDIAG: Allocate 15 Levels for Stats-Diag #    30 UVEL
(PID.TID 0000.0001) SETDIAG: Allocate 15 Levels for Stats-Diag #    31 VVEL
(PID.TID 0000.0001) SETDIAG: Allocate 15 Levels for Stats-Diag #    32 WVEL
(PID.TID 0000.0001) SETDIAG: Allocate 15 Levels for Stats-Diag #    26 THETA
(PID.TID 0000.0001) SETDIAG: Allocate 15 Levels for Stats-Diag #    27 SALT
(PID.TID 0000.0001) SETDIAG: Allocate 15 Levels for Stats-Diag #    80 CONVADJ
(PID.TID 0000.0001) SETDIAG: Allocate  1 Levels for Stats-Diag #    25 DETADT2
(PID.TID 0000.0001) SETDIAG: Allocate  1 Levels for Stats-Diag #   250 SIheff
(PID.TID 0000.0001) SETDIAG: Allocate  1 Levels for Stats-Diag #   247 SIarea
(PID.TID 0000.0001) SETDIAG: Allocate  1 Levels for Stats-Diag #   252 SIhsnow
(PID.TID 0000.0001) SETDIAG: Allocate  1 Levels for Stats-Diag #   264 SIuice
(PID.TID 0000.0001) SETDIAG: Allocate  1 Levels for Stats-Diag #   265 SIvice
(PID.TID 0000.0001)   space allocated for all stats-diags:      97 levels
(PID.TID 0000.0001) DIAGSTATS_SET_POINTERS: done, use      97 levels (diagSt_size=     150 )
(PID.TID 0000.0001) ------------------------------------------------------------
(PID.TID 0000.0001) INI_GLOBAL_DOMAIN: Found  19 CS-corner Pts in the domain
(PID.TID 0000.0001)  MDS_READ_FIELD: opening global file: geopotanom.bin
(PID.TID 0000.0001) %MON fCori_max                    =   1.4574827780704E-04
(PID.TID 0000.0001) %MON fCori_min                    =  -1.4574827780704E-04
(PID.TID 0000.0001) %MON fCori_mean                   =   3.3881317890172E-21
(PID.TID 0000.0001) %MON fCori_sd                     =   8.4202189509968E-05
(PID.TID 0000.0001) %MON fCoriG_max                   =   1.4584247033981E-04
(PID.TID 0000.0001) %MON fCoriG_min                   =  -1.4584247033981E-04
(PID.TID 0000.0001) %MON fCoriG_mean                  =  -1.6940658945086E-20
(PID.TID 0000.0001) %MON fCoriG_sd                    =   8.4202189509968E-05
(PID.TID 0000.0001) %MON fCoriCos_max                 =   1.4580166994612E-04
(PID.TID 0000.0001) %MON fCoriCos_min                 =   5.2407700865903E-06
(PID.TID 0000.0001) %MON fCoriCos_mean                =   1.1514045869113E-04
(PID.TID 0000.0001) %MON fCoriCos_sd                  =   3.0375849106513E-05
(PID.TID 0000.0001) INI_CG2D: CG2D normalisation factor =  1.8867235104620207E-08
(PID.TID 0000.0001) 
(PID.TID 0000.0001) // =======================================================
(PID.TID 0000.0001) // Model configuration
(PID.TID 0000.0001) // =======================================================
(PID.TID 0000.0001) //
(PID.TID 0000.0001) // "Physical" paramters ( PARM01 in namelist )
(PID.TID 0000.0001) //
(PID.TID 0000.0001) buoyancyRelation = /* Type of relation to get Buoyancy */
(PID.TID 0000.0001)               'OCEANICP'
(PID.TID 0000.0001)     ;
(PID.TID 0000.0001) fluidIsAir   =  /* fluid major constituent is Air */
(PID.TID 0000.0001)                   F
(PID.TID 0000.0001)     ;
(PID.TID 0000.0001) fluidIsWater =  /* fluid major constituent is Water */
(PID.TID 0000.0001)                   T
(PID.TID 0000.0001)     ;
(PID.TID 0000.0001) usingPCoords =  /* use p (or p*) vertical coordinate */
(PID.TID 0000.0001)                   T
(PID.TID 0000.0001)     ;
(PID.TID 0000.0001) usingZCoords =  /* use z (or z*) vertical coordinate */
(PID.TID 0000.0001)                   F
(PID.TID 0000.0001)     ;
(PID.TID 0000.0001) tRef =   /* Reference temperature profile ( oC or K ) */
(PID.TID 0000.0001)    15 @  2.000000000000000E+01              /* K =  1: 15 */
(PID.TID 0000.0001)     ;
(PID.TID 0000.0001) sRef =   /* Reference salinity profile ( g/kg ) */
(PID.TID 0000.0001)    15 @  3.500000000000000E+01              /* K =  1: 15 */
(PID.TID 0000.0001)     ;
(PID.TID 0000.0001) rhoRef =   /* Density vertical profile from (Ref,sRef)( kg/m^3 ) */
(PID.TID 0000.0001)                 1.044895640658648E+03,      /* K =  1 */
(PID.TID 0000.0001)                 1.042222945460131E+03,      /* K =  2 */
(PID.TID 0000.0001)                 1.039723015524166E+03,      /* K =  3 */
(PID.TID 0000.0001)                 1.037402117393911E+03,      /* K =  4 */
(PID.TID 0000.0001)                 1.035266158892901E+03,      /* K =  5 */
(PID.TID 0000.0001)                 1.033320638790942E+03,      /* K =  6 */
(PID.TID 0000.0001)                 1.031570708097782E+03,      /* K =  7 */
(PID.TID 0000.0001)                 1.030021025792592E+03,      /* K =  8 */
(PID.TID 0000.0001)                 1.028675664591726E+03,      /* K =  9 */
(PID.TID 0000.0001)                 1.027538164561073E+03,      /* K = 10 */
(PID.TID 0000.0001)                 1.026611498879415E+03,      /* K = 11 */
(PID.TID 0000.0001)                 1.025898077319062E+03,      /* K = 12 */
(PID.TID 0000.0001)                 1.025378084889753E+03,      /* K = 13 */
(PID.TID 0000.0001)                 1.025009296639647E+03,      /* K = 14 */
(PID.TID 0000.0001)                 1.024748831561851E+03       /* K = 15 */
(PID.TID 0000.0001)     ;
(PID.TID 0000.0001) dBdrRef = /* Vertical grad. of reference buoyancy [(m/s/r)^2] */
(PID.TID 0000.0001)    15 @  0.000000000000000E+00              /* K =  1: 15 */
(PID.TID 0000.0001)     ;
(PID.TID 0000.0001) useStrainTensionVisc= /* Use StrainTension Form of Viscous Operator */
(PID.TID 0000.0001)                   F
(PID.TID 0000.0001)     ;
(PID.TID 0000.0001) useVariableVisc = /* Use variable horizontal viscosity */
(PID.TID 0000.0001)                   F
(PID.TID 0000.0001)     ;
(PID.TID 0000.0001) useHarmonicVisc = /* Use harmonic horizontal viscosity */
(PID.TID 0000.0001)                   T
(PID.TID 0000.0001)     ;
(PID.TID 0000.0001) useBiharmonicVisc= /* Use biharmonic horiz.  viscosity */
(PID.TID 0000.0001)                   F
(PID.TID 0000.0001)     ;
(PID.TID 0000.0001) useSmag3D = /* Use isotropic 3-D Smagorinsky viscosity */
(PID.TID 0000.0001)                   F
(PID.TID 0000.0001)     ;
(PID.TID 0000.0001) viscAh  =   /* Lateral harmonic viscosity ( m^2/s ) */
(PID.TID 0000.0001)                 3.000000000000000E+05
(PID.TID 0000.0001)     ;
(PID.TID 0000.0001) viscA4  =   /* Lateral biharmonic viscosity ( m^4/s ) */
(PID.TID 0000.0001)                 0.000000000000000E+00
(PID.TID 0000.0001)     ;
(PID.TID 0000.0001) no_slip_sides =  /* Viscous BCs: No-slip sides */
(PID.TID 0000.0001)                   T
(PID.TID 0000.0001)     ;
(PID.TID 0000.0001) sideDragFactor = /* side-drag scaling factor (non-dim) */
(PID.TID 0000.0001)                 2.000000000000000E+00
(PID.TID 0000.0001)     ;
(PID.TID 0000.0001) viscArNr = /* vertical profile of vertical viscosity (Pa^2/s )*/
(PID.TID 0000.0001)    15 @  0.000000000000000E+00              /* K =  1: 15 */
(PID.TID 0000.0001)     ;
(PID.TID 0000.0001) no_slip_bottom =  /* Viscous BCs: No-slip bottom */
(PID.TID 0000.0001)                   T
(PID.TID 0000.0001)     ;
(PID.TID 0000.0001) bottomVisc_pCell = /* Partial-cell in bottom Visc. BC */
(PID.TID 0000.0001)                   F
(PID.TID 0000.0001)     ;
(PID.TID 0000.0001) bottomDragLinear = /* linear bottom-drag coefficient ( m/s ) */
(PID.TID 0000.0001)                 0.000000000000000E+00
(PID.TID 0000.0001)     ;
(PID.TID 0000.0001) bottomDragQuadratic = /* quadratic bottom-drag coefficient (-) */
(PID.TID 0000.0001)                 0.000000000000000E+00
(PID.TID 0000.0001)     ;
(PID.TID 0000.0001) selectBotDragQuadr = /* select quadratic bottom drag options */
(PID.TID 0000.0001)                      -1
(PID.TID 0000.0001)     ;
(PID.TID 0000.0001) diffKhT =   /* Laplacian diffusion of heat laterally ( m^2/s ) */
(PID.TID 0000.0001)                 0.000000000000000E+00
(PID.TID 0000.0001)     ;
(PID.TID 0000.0001) diffK4T =   /* Biharmonic diffusion of heat laterally ( m^4/s ) */
(PID.TID 0000.0001)                 0.000000000000000E+00
(PID.TID 0000.0001)     ;
(PID.TID 0000.0001) diffKhS =   /* Laplacian diffusion of salt laterally ( m^2/s ) */
(PID.TID 0000.0001)                 0.000000000000000E+00
(PID.TID 0000.0001)     ;
(PID.TID 0000.0001) diffK4S =   /* Biharmonic diffusion of salt laterally ( m^4/s ) */
(PID.TID 0000.0001)                 0.000000000000000E+00
(PID.TID 0000.0001)     ;
(PID.TID 0000.0001) diffKrNrT = /* vertical profile of vertical diffusion of Temp (Pa^2/s )*/
(PID.TID 0000.0001)    15 @  0.000000000000000E+00              /* K =  1: 15 */
(PID.TID 0000.0001)     ;
(PID.TID 0000.0001) diffKrNrS = /* vertical profile of vertical diffusion of Salt (Pa^2/s )*/
(PID.TID 0000.0001)    15 @  0.000000000000000E+00              /* K =  1: 15 */
(PID.TID 0000.0001)     ;
(PID.TID 0000.0001) diffKrBL79surf = /* Surface diffusion for Bryan and Lewis 79 ( m^2/s ) */
(PID.TID 0000.0001)                 0.000000000000000E+00
(PID.TID 0000.0001)     ;
(PID.TID 0000.0001) diffKrBL79deep = /* Deep diffusion for Bryan and Lewis 1979 ( m^2/s ) */
(PID.TID 0000.0001)                 0.000000000000000E+00
(PID.TID 0000.0001)     ;
(PID.TID 0000.0001) diffKrBL79scl = /* Depth scale for Bryan and Lewis 1979 ( m ) */
(PID.TID 0000.0001)                 2.000000000000000E+02
(PID.TID 0000.0001)     ;
(PID.TID 0000.0001) diffKrBL79Ho = /* Turning depth for Bryan and Lewis 1979 ( m ) */
(PID.TID 0000.0001)                -2.000000000000000E+03
(PID.TID 0000.0001)     ;
(PID.TID 0000.0001) ivdc_kappa = /* Implicit Vertical Diffusivity for Convection (Pa^2/s) */
(PID.TID 0000.0001)                 1.030905162225000E+08
(PID.TID 0000.0001)     ;
(PID.TID 0000.0001) hMixCriteria=  /* Criteria for mixed-layer diagnostic */
(PID.TID 0000.0001)                -8.000000000000000E-01
(PID.TID 0000.0001)     ;
(PID.TID 0000.0001) dRhoSmall =  /* Parameter for mixed-layer diagnostic */
(PID.TID 0000.0001)                 1.000000000000000E-06
(PID.TID 0000.0001)     ;
(PID.TID 0000.0001) hMixSmooth=  /* Smoothing parameter for mixed-layer diagnostic */
(PID.TID 0000.0001)                 0.000000000000000E+00
(PID.TID 0000.0001)     ;
(PID.TID 0000.0001) eosType =  /* Type of Equation of State */
(PID.TID 0000.0001)               'TEOS10'
(PID.TID 0000.0001)     ;
(PID.TID 0000.0001) eosRefP0 = /* Reference atmospheric pressure for EOS ( Pa ) */
(PID.TID 0000.0001)                 1.013250000000000E+05
(PID.TID 0000.0001)     ;
(PID.TID 0000.0001) surf_pRef = /* Surface reference pressure ( Pa ) */
(PID.TID 0000.0001)                 1.013250000000000E+05
(PID.TID 0000.0001)     ;
(PID.TID 0000.0001) HeatCapacity_Cp =  /* Specific heat capacity ( J/kg/K ) */
(PID.TID 0000.0001)                 3.994000000000000E+03
(PID.TID 0000.0001)     ;
(PID.TID 0000.0001) celsius2K = /* 0 degree Celsius converted to Kelvin ( K ) */
(PID.TID 0000.0001)                 2.731500000000000E+02
(PID.TID 0000.0001)     ;
(PID.TID 0000.0001) rhoConst  = /* Reference density (Boussinesq)  ( kg/m^3 ) */
(PID.TID 0000.0001)                 1.035000000000000E+03
(PID.TID 0000.0001)     ;
(PID.TID 0000.0001) rhoFacC = /* normalized Reference density @ cell-Center (-) */
(PID.TID 0000.0001)    15 @  1.000000000000000E+00              /* K =  1: 15 */
(PID.TID 0000.0001)     ;
(PID.TID 0000.0001) rhoFacF = /* normalized Reference density @ W-Interface (-) */
(PID.TID 0000.0001)    16 @  1.000000000000000E+00              /* K =  1: 16 */
(PID.TID 0000.0001)     ;
(PID.TID 0000.0001) rhoConstFresh = /* Fresh-water reference density ( kg/m^3 ) */
(PID.TID 0000.0001)                 1.000000000000000E+03
(PID.TID 0000.0001)     ;
(PID.TID 0000.0001) gravity =   /* Gravitational acceleration ( m/s^2 ) */
(PID.TID 0000.0001)                 9.810000000000000E+00
(PID.TID 0000.0001)     ;
(PID.TID 0000.0001) gBaro =   /* Barotropic gravity ( m/s^2 ) */
(PID.TID 0000.0001)                 9.810000000000000E+00
(PID.TID 0000.0001)     ;
(PID.TID 0000.0001) gravFacC = /* gravity factor (vs surf.) @ cell-Center (-) */
(PID.TID 0000.0001)    15 @  1.000000000000000E+00              /* K =  1: 15 */
(PID.TID 0000.0001)     ;
(PID.TID 0000.0001) gravFacF = /* gravity factor (vs surf.) @ W-Interface (-) */
(PID.TID 0000.0001)    16 @  1.000000000000000E+00              /* K =  1: 16 */
(PID.TID 0000.0001)     ;
(PID.TID 0000.0001) rotationPeriod =   /* Rotation Period ( s ) */
(PID.TID 0000.0001)                 8.616400000000000E+04
(PID.TID 0000.0001)     ;
(PID.TID 0000.0001) omega =   /* Angular velocity ( rad/s ) */
(PID.TID 0000.0001)                 7.292123516990375E-05
(PID.TID 0000.0001)     ;
(PID.TID 0000.0001) f0 =   /* Reference coriolis parameter ( 1/s ) */
(PID.TID 0000.0001)                 1.000000000000000E-04
(PID.TID 0000.0001)     ;
(PID.TID 0000.0001) beta =   /* Beta ( 1/(m.s) ) */
(PID.TID 0000.0001)                 9.999999999999999E-12
(PID.TID 0000.0001)     ;
(PID.TID 0000.0001) fPrime =   /* Second coriolis parameter ( 1/s ) */
(PID.TID 0000.0001)                 0.000000000000000E+00
(PID.TID 0000.0001)     ;
(PID.TID 0000.0001) rigidLid =   /* Rigid lid on/off flag */
(PID.TID 0000.0001)                   F
(PID.TID 0000.0001)     ;
(PID.TID 0000.0001) implicitFreeSurface =   /* Implicit free surface on/off flag */
(PID.TID 0000.0001)                   T
(PID.TID 0000.0001)     ;
(PID.TID 0000.0001) freeSurfFac =   /* Implicit free surface factor */
(PID.TID 0000.0001)                 1.000000000000000E+00
(PID.TID 0000.0001)     ;
(PID.TID 0000.0001) implicSurfPress =  /* Surface Pressure implicit factor (0-1) */
(PID.TID 0000.0001)                 1.000000000000000E+00
(PID.TID 0000.0001)     ;
(PID.TID 0000.0001) implicDiv2DFlow =  /* Barot. Flow Div. implicit factor (0-1) */
(PID.TID 0000.0001)                 1.000000000000000E+00
(PID.TID 0000.0001)     ;
(PID.TID 0000.0001) uniformLin_PhiSurf = /* use uniform Bo_surf on/off flag */
(PID.TID 0000.0001)                   T
(PID.TID 0000.0001)     ;
(PID.TID 0000.0001) uniformFreeSurfLev = /* free-surface level-index is uniform */
(PID.TID 0000.0001)                   F
(PID.TID 0000.0001)     ;
(PID.TID 0000.0001) sIceLoadFac =  /* scale factor for sIceLoad (0-1) */
(PID.TID 0000.0001)                 1.000000000000000E+00
(PID.TID 0000.0001)     ;
(PID.TID 0000.0001) hFacMin =   /* minimum partial cell factor (hFac) */
(PID.TID 0000.0001)                 1.000000000000000E-01
(PID.TID 0000.0001)     ;
(PID.TID 0000.0001) hFacMinDr = /* minimum partial cell thickness (Pa) */
(PID.TID 0000.0001)                 2.030670000000000E+05
(PID.TID 0000.0001)     ;
(PID.TID 0000.0001) exactConserv =  /* Exact Volume Conservation on/off flag */
(PID.TID 0000.0001)                   T
(PID.TID 0000.0001)     ;
(PID.TID 0000.0001) linFSConserveTr = /* Tracer correction for Lin Free Surface on/off flag */
(PID.TID 0000.0001)                   F
(PID.TID 0000.0001)     ;
(PID.TID 0000.0001) nonlinFreeSurf = /* Non-linear Free Surf. options (-1,0,1,2,3)*/
(PID.TID 0000.0001)                       4
(PID.TID 0000.0001)      -1,0= Off ; 1,2,3= On, 2=+rescale gU,gV, 3=+update cg2d solv.
(PID.TID 0000.0001)     ;
(PID.TID 0000.0001) hFacInf =   /* lower threshold for hFac (nonlinFreeSurf only)*/
(PID.TID 0000.0001)                 2.000000000000000E-01
(PID.TID 0000.0001)     ;
(PID.TID 0000.0001) hFacSup =   /* upper threshold for hFac (nonlinFreeSurf only)*/
(PID.TID 0000.0001)                 2.000000000000000E+00
(PID.TID 0000.0001)     ;
(PID.TID 0000.0001) select_rStar = /* r* Vertical coord. options (=0 r coord.; >0 uses r*)*/
(PID.TID 0000.0001)                       2
(PID.TID 0000.0001)     ;
(PID.TID 0000.0001) useRealFreshWaterFlux = /* Real Fresh Water Flux on/off flag*/
(PID.TID 0000.0001)                   T
(PID.TID 0000.0001)     ;
(PID.TID 0000.0001) temp_EvPrRn = /* Temp. of Evap/Prec/R (UNSET=use local T)(oC)*/
(PID.TID 0000.0001)                 1.234567000000000E+05
(PID.TID 0000.0001)     ;
(PID.TID 0000.0001) salt_EvPrRn = /* Salin. of Evap/Prec/R (UNSET=use local S)(g/kg)*/
(PID.TID 0000.0001)                 0.000000000000000E+00
(PID.TID 0000.0001)     ;
(PID.TID 0000.0001) selectAddFluid = /* option for mass source/sink of fluid (=0: off) */
(PID.TID 0000.0001)                       0
(PID.TID 0000.0001)     ;
(PID.TID 0000.0001) temp_addMass = /* Temp. of addMass array (UNSET=use local T)(oC)*/
(PID.TID 0000.0001)                 1.234567000000000E+05
(PID.TID 0000.0001)     ;
(PID.TID 0000.0001) salt_addMass = /* Salin. of addMass array (UNSET=use local S)(g/kg)*/
(PID.TID 0000.0001)                 0.000000000000000E+00
(PID.TID 0000.0001)     ;
(PID.TID 0000.0001) use3Dsolver = /* use 3-D pressure solver on/off flag */
(PID.TID 0000.0001)                   F
(PID.TID 0000.0001)     ;
(PID.TID 0000.0001) nonHydrostatic =  /* Non-Hydrostatic on/off flag */
(PID.TID 0000.0001)                   F
(PID.TID 0000.0001)     ;
(PID.TID 0000.0001) nh_Am2 = /* Non-Hydrostatic terms scaling factor */
(PID.TID 0000.0001)                 1.000000000000000E+00
(PID.TID 0000.0001)     ;
(PID.TID 0000.0001) implicitNHPress = /* Non-Hyd Pressure implicit factor (0-1)*/
(PID.TID 0000.0001)                 1.000000000000000E+00
(PID.TID 0000.0001)     ;
(PID.TID 0000.0001) selectNHfreeSurf = /* Non-Hyd (free-)Surface option */
(PID.TID 0000.0001)                       0
(PID.TID 0000.0001)     ;
(PID.TID 0000.0001) quasiHydrostatic = /* Quasi-Hydrostatic on/off flag */
(PID.TID 0000.0001)                   F
(PID.TID 0000.0001)     ;
(PID.TID 0000.0001) calc_wVelocity = /* vertical velocity calculation on/off flag */
(PID.TID 0000.0001)                   T
(PID.TID 0000.0001)     ;
(PID.TID 0000.0001) momStepping =  /* Momentum equation on/off flag */
(PID.TID 0000.0001)                   T
(PID.TID 0000.0001)     ;
(PID.TID 0000.0001) vectorInvariantMomentum= /* Vector-Invariant Momentum on/off */
(PID.TID 0000.0001)                   T
(PID.TID 0000.0001)     ;
(PID.TID 0000.0001) momAdvection =  /* Momentum advection on/off flag */
(PID.TID 0000.0001)                   T
(PID.TID 0000.0001)     ;
(PID.TID 0000.0001) momViscosity =  /* Momentum viscosity on/off flag */
(PID.TID 0000.0001)                   T
(PID.TID 0000.0001)     ;
(PID.TID 0000.0001) momImplVertAdv= /* Momentum implicit vert. advection on/off*/
(PID.TID 0000.0001)                   F
(PID.TID 0000.0001)     ;
(PID.TID 0000.0001) implicitViscosity = /* Implicit viscosity on/off flag */
(PID.TID 0000.0001)                   T
(PID.TID 0000.0001)     ;
(PID.TID 0000.0001) selectImplicitDrag= /* Implicit bot Drag options (0,1,2)*/
(PID.TID 0000.0001)                       0
(PID.TID 0000.0001)     0= Expl. ; 1= Impl. on provis. Vel ; 2= Fully Impl (with surf.P)
(PID.TID 0000.0001)     ;
(PID.TID 0000.0001) selectMetricTerms= /* Metric-Terms on/off flag (=0/1) */
(PID.TID 0000.0001)                       0
(PID.TID 0000.0001)     ;
(PID.TID 0000.0001) useNHMTerms = /* Non-Hydrostatic Metric-Terms on/off */
(PID.TID 0000.0001)                   F
(PID.TID 0000.0001)     ;
(PID.TID 0000.0001) selectCoriMap = /* Coriolis Map options (0,1,2,3)*/
(PID.TID 0000.0001)                       2
(PID.TID 0000.0001)     0= f-Plane ; 1= Beta-Plane ; 2= Spherical ; 3= read from file
(PID.TID 0000.0001)     ;
(PID.TID 0000.0001) select3dCoriScheme= /* 3-D Coriolis on/off flag (=0/1) */
(PID.TID 0000.0001)                       0
(PID.TID 0000.0001)     ;
(PID.TID 0000.0001) useCoriolis =  /* Coriolis on/off flag */
(PID.TID 0000.0001)                   T
(PID.TID 0000.0001)     ;
(PID.TID 0000.0001) useCDscheme =  /* CD scheme on/off flag */
(PID.TID 0000.0001)                   F
(PID.TID 0000.0001)     ;
(PID.TID 0000.0001) selectCoriScheme= /* Scheme selector for Coriolis-Term */
(PID.TID 0000.0001)                       0
(PID.TID 0000.0001)    = 0 : original discretization (simple averaging, no hFac)
(PID.TID 0000.0001)    = 1 : Wet-point averaging (Jamar & Ozer 1986)
(PID.TID 0000.0001)    = 2 : hFac weighted average (Angular Mom. conserving)
(PID.TID 0000.0001)    = 3 : energy conserving scheme using hFac weighted average
(PID.TID 0000.0001)     ;
(PID.TID 0000.0001) useAbsVorticity= /* V.I Works with f+zeta in Coriolis */
(PID.TID 0000.0001)                   F
(PID.TID 0000.0001)     ;
(PID.TID 0000.0001) selectVortScheme= /* V.I Scheme selector for Vorticity-Term */
(PID.TID 0000.0001)                       1
(PID.TID 0000.0001)    = 0 : enstrophy (Shallow-Water Eq.) conserving scheme by Sadourny, JAS 75
(PID.TID 0000.0001)    = 1 : same as 0 with modified hFac
(PID.TID 0000.0001)    = 2 : energy conserving scheme (used by Sadourny in JAS 75 paper)
(PID.TID 0000.0001)    = 3 : energy (general) and enstrophy (2D, nonDiv.) conserving scheme
(PID.TID 0000.0001)          from Sadourny (Burridge & Haseler, ECMWF Rep.4, 1977)
(PID.TID 0000.0001)     ;
(PID.TID 0000.0001) useJamartMomAdv= /* V.I Non-linear terms Jamart flag */
(PID.TID 0000.0001)                   F
(PID.TID 0000.0001)     ;
(PID.TID 0000.0001) upwindVorticity= /* V.I Upwind bias vorticity flag */
(PID.TID 0000.0001)                   F
(PID.TID 0000.0001)     ;
(PID.TID 0000.0001) highOrderVorticity= /* V.I High order vort. advect. flag */
(PID.TID 0000.0001)                   F
(PID.TID 0000.0001)     ;
(PID.TID 0000.0001) upwindShear= /* V.I Upwind vertical Shear advection flag */
(PID.TID 0000.0001)                   F
(PID.TID 0000.0001)     ;
(PID.TID 0000.0001) selectKEscheme= /* V.I Kinetic Energy scheme selector */
(PID.TID 0000.0001)                       0
(PID.TID 0000.0001)     ;
(PID.TID 0000.0001) momForcing =  /* Momentum forcing on/off flag */
(PID.TID 0000.0001)                   T
(PID.TID 0000.0001)     ;
(PID.TID 0000.0001) momTidalForcing = /* Momentum Tidal forcing on/off flag */
(PID.TID 0000.0001)                   T
(PID.TID 0000.0001)     ;
(PID.TID 0000.0001) momPressureForcing =  /* Momentum pressure term on/off flag */
(PID.TID 0000.0001)                   T
(PID.TID 0000.0001)     ;
(PID.TID 0000.0001) implicitIntGravWave= /* Implicit Internal Gravity Wave flag */
(PID.TID 0000.0001)                   F
(PID.TID 0000.0001)     ;
(PID.TID 0000.0001) staggerTimeStep =    /* Stagger time stepping on/off flag */
(PID.TID 0000.0001)                   T
(PID.TID 0000.0001)     ;
(PID.TID 0000.0001) doResetHFactors = /* reset thickness factors @ each time-step */
(PID.TID 0000.0001)                   T
(PID.TID 0000.0001)     ;
(PID.TID 0000.0001) multiDimAdvection =  /* enable/disable Multi-Dim Advection */
(PID.TID 0000.0001)                   T
(PID.TID 0000.0001)     ;
(PID.TID 0000.0001) useMultiDimAdvec =   /* Multi-Dim Advection is/is-not used */
(PID.TID 0000.0001)                   F
(PID.TID 0000.0001)     ;
(PID.TID 0000.0001) implicitDiffusion = /* Implicit Diffusion on/off flag */
(PID.TID 0000.0001)                   T
(PID.TID 0000.0001)     ;
(PID.TID 0000.0001) tempStepping =  /* Temperature equation on/off flag */
(PID.TID 0000.0001)                   T
(PID.TID 0000.0001)     ;
(PID.TID 0000.0001) tempAdvection = /* Temperature advection on/off flag */
(PID.TID 0000.0001)                   T
(PID.TID 0000.0001)     ;
(PID.TID 0000.0001) tempImplVertAdv = /* Temp. implicit vert. advection on/off */
(PID.TID 0000.0001)                   F
(PID.TID 0000.0001)     ;
(PID.TID 0000.0001) tempForcing  =  /* Temperature forcing on/off flag */
(PID.TID 0000.0001)                   T
(PID.TID 0000.0001)     ;
(PID.TID 0000.0001) balanceQnet  =  /* balance net heat-flux on/off flag */
(PID.TID 0000.0001)                   F
(PID.TID 0000.0001)     ;
(PID.TID 0000.0001) doThetaClimRelax = /* apply SST relaxation on/off flag */
(PID.TID 0000.0001)                   F
(PID.TID 0000.0001)     ;
(PID.TID 0000.0001) balanceThetaClimRelax= /* balance SST relaxation on/off flag */
(PID.TID 0000.0001)                   F
(PID.TID 0000.0001)     ;
(PID.TID 0000.0001) tempIsActiveTr = /* Temp. is a dynamically Active Tracer */
(PID.TID 0000.0001)                   T
(PID.TID 0000.0001)     ;
(PID.TID 0000.0001) saltStepping =  /* Salinity equation on/off flag */
(PID.TID 0000.0001)                   T
(PID.TID 0000.0001)     ;
(PID.TID 0000.0001) saltAdvection = /* Salinity advection on/off flag */
(PID.TID 0000.0001)                   T
(PID.TID 0000.0001)     ;
(PID.TID 0000.0001) saltImplVertAdv = /* Sali. implicit vert. advection on/off */
(PID.TID 0000.0001)                   F
(PID.TID 0000.0001)     ;
(PID.TID 0000.0001) saltForcing  =  /* Salinity forcing on/off flag */
(PID.TID 0000.0001)                   T
(PID.TID 0000.0001)     ;
(PID.TID 0000.0001) selectBalanceEmPmR = /* balancing glob.mean EmPmR selector */
(PID.TID 0000.0001)                       0
(PID.TID 0000.0001)     ;
(PID.TID 0000.0001) doSaltClimRelax = /* apply SSS relaxation on/off flag */
(PID.TID 0000.0001)                   F
(PID.TID 0000.0001)     ;
(PID.TID 0000.0001) balanceSaltClimRelax= /* balance SSS relaxation on/off flag */
(PID.TID 0000.0001)                   F
(PID.TID 0000.0001)     ;
(PID.TID 0000.0001) saltIsActiveTr = /* Salt  is a dynamically Active Tracer */
(PID.TID 0000.0001)                   T
(PID.TID 0000.0001)     ;
(PID.TID 0000.0001)  readBinaryPrec = /* Precision used for reading binary files */
(PID.TID 0000.0001)                      64
(PID.TID 0000.0001)     ;
(PID.TID 0000.0001) writeBinaryPrec = /* Precision used for writing binary files */
(PID.TID 0000.0001)                      64
(PID.TID 0000.0001)     ;
(PID.TID 0000.0001) balancePrintMean = /* print means for balancing fluxes */
(PID.TID 0000.0001)                   F
(PID.TID 0000.0001)     ;
(PID.TID 0000.0001)  rwSuffixType =   /* select format of mds file suffix */
(PID.TID 0000.0001)                       0
(PID.TID 0000.0001)    = 0 : myIter (I10.10) ;   = 1 : 100*myTime (100th sec) ;
(PID.TID 0000.0001)    = 2 : myTime (seconds);   = 3 : myTime/360 (10th of hr);
(PID.TID 0000.0001)    = 4 : myTime/3600 (hours)
(PID.TID 0000.0001)     ;
(PID.TID 0000.0001)  globalFiles = /* write "global" (=not per tile) files */
(PID.TID 0000.0001)                   F
(PID.TID 0000.0001)     ;
(PID.TID 0000.0001)  useSingleCpuIO = /* only master MPI process does I/O */
(PID.TID 0000.0001)                   T
(PID.TID 0000.0001)     ;
(PID.TID 0000.0001)  useSingleCpuInput = /* only master process reads input */
(PID.TID 0000.0001)                   T
(PID.TID 0000.0001)     ;
(PID.TID 0000.0001) /* debLev[*]  : level of debug & auxiliary message printing */
(PID.TID 0000.0001) debLevZero =  0 ; /* level of disabled aux. msg printing */
(PID.TID 0000.0001)    debLevA =  1 ; /* level of minimum  aux. msg printing */
(PID.TID 0000.0001)    debLevB =  2 ; /* level of low aux. print (report read-file opening)*/
(PID.TID 0000.0001)    debLevC =  3 ; /* level of moderate debug prt (most pkgs debug msg) */
(PID.TID 0000.0001)    debLevD =  4 ; /* level of enhanced debug prt (add DEBUG_STATS prt) */
(PID.TID 0000.0001)    debLevE =  5 ; /* level of extensive debug printing */
(PID.TID 0000.0001) debugLevel =  /* select debug printing level */
(PID.TID 0000.0001)                       2
(PID.TID 0000.0001)     ;
(PID.TID 0000.0001)  plotLevel =  /* select PLOT_FIELD printing level */
(PID.TID 0000.0001)                       0
(PID.TID 0000.0001)     ;
(PID.TID 0000.0001) //
(PID.TID 0000.0001) // Elliptic solver(s) paramters ( PARM02 in namelist )
(PID.TID 0000.0001) //
(PID.TID 0000.0001) cg2dMaxIters =   /* Upper limit on 2d con. grad iterations  */
(PID.TID 0000.0001)                     200
(PID.TID 0000.0001)     ;
(PID.TID 0000.0001) cg2dMinItersNSA =   /* Minimum number of iterations of 2d con. grad solver  */
(PID.TID 0000.0001)                       0
(PID.TID 0000.0001)     ;
(PID.TID 0000.0001) cg2dUseMinResSol= /* use cg2d last-iter(=0) / min-resid.(=1) solution */
(PID.TID 0000.0001)                       0
(PID.TID 0000.0001)     ;
(PID.TID 0000.0001) cg2dTargetResidual =   /* 2d con. grad target residual  */
(PID.TID 0000.0001)                 1.000000000000000E-09
(PID.TID 0000.0001)     ;
(PID.TID 0000.0001) cg2dTargetResWunit =   /* CG2d target residual [W units] */
(PID.TID 0000.0001)                -1.000000000000000E+00
(PID.TID 0000.0001)     ;
(PID.TID 0000.0001) cg2dPreCondFreq =   /* Freq. for updating cg2d preconditioner */
(PID.TID 0000.0001)                       1
(PID.TID 0000.0001)     ;
(PID.TID 0000.0001) useSRCGSolver =  /* use single reduction CG solver(s) */
(PID.TID 0000.0001)                   F
(PID.TID 0000.0001)     ;
(PID.TID 0000.0001) useNSACGSolver =  /* use not-self-adjoint CG solver */
(PID.TID 0000.0001)                   F
(PID.TID 0000.0001)     ;
(PID.TID 0000.0001) printResidualFreq = /* Freq. for printing CG residual */
(PID.TID 0000.0001)                       0
(PID.TID 0000.0001)     ;
(PID.TID 0000.0001) //
(PID.TID 0000.0001) // Time stepping paramters ( PARM03 in namelist )
(PID.TID 0000.0001) //
(PID.TID 0000.0001) deltaTMom =   /* Momentum equation timestep ( s ) */
(PID.TID 0000.0001)                 1.200000000000000E+03
(PID.TID 0000.0001)     ;
(PID.TID 0000.0001) deltaTFreeSurf = /* FreeSurface equation timestep ( s ) */
(PID.TID 0000.0001)                 8.640000000000000E+04
(PID.TID 0000.0001)     ;
(PID.TID 0000.0001) dTtracerLev =  /* Tracer equation timestep ( s ) */
(PID.TID 0000.0001)    15 @  8.640000000000000E+04              /* K =  1: 15 */
(PID.TID 0000.0001)     ;
(PID.TID 0000.0001) deltaTClock  =   /* Model clock timestep ( s ) */
(PID.TID 0000.0001)                 8.640000000000000E+04
(PID.TID 0000.0001)     ;
(PID.TID 0000.0001) cAdjFreq =   /* Convective adjustment interval ( s ) */
(PID.TID 0000.0001)                 0.000000000000000E+00
(PID.TID 0000.0001)     ;
(PID.TID 0000.0001) momForcingOutAB = /* =1: take Momentum Forcing out of Adams-Bash. stepping */
(PID.TID 0000.0001)                       1
(PID.TID 0000.0001)     ;
(PID.TID 0000.0001) tracForcingOutAB = /* =1: take T,S,pTr Forcing out of Adams-Bash. stepping */
(PID.TID 0000.0001)                       1
(PID.TID 0000.0001)     ;
(PID.TID 0000.0001) momDissip_In_AB = /* put Dissipation Tendency in Adams-Bash. stepping */
(PID.TID 0000.0001)                   T
(PID.TID 0000.0001)     ;
(PID.TID 0000.0001) doAB_onGtGs = /* apply AB on Tendencies (rather than on T,S)*/
(PID.TID 0000.0001)                   T
(PID.TID 0000.0001)     ;
(PID.TID 0000.0001) abEps =   /* Adams-Bashforth-2 stabilizing weight */
(PID.TID 0000.0001)                 1.000000000000000E-01
(PID.TID 0000.0001)     ;
(PID.TID 0000.0001) applyExchUV_early = /* Apply EXCH to U,V earlier in time-step */
(PID.TID 0000.0001)                   F
(PID.TID 0000.0001)     ;
(PID.TID 0000.0001) pickupStrictlyMatch= /* stop if pickup do not strictly match */
(PID.TID 0000.0001)                   T
(PID.TID 0000.0001)     ;
(PID.TID 0000.0001) nIter0   =   /* Run starting timestep number */
(PID.TID 0000.0001)                       0
(PID.TID 0000.0001)     ;
(PID.TID 0000.0001) nTimeSteps = /* Number of timesteps */
(PID.TID 0000.0001)                      10
(PID.TID 0000.0001)     ;
(PID.TID 0000.0001) nEndIter =   /* Run ending timestep number */
(PID.TID 0000.0001)                      10
(PID.TID 0000.0001)     ;
(PID.TID 0000.0001) baseTime =   /* Model base time ( s ) */
(PID.TID 0000.0001)                 0.000000000000000E+00
(PID.TID 0000.0001)     ;
(PID.TID 0000.0001) startTime =  /* Run start time ( s ) */
(PID.TID 0000.0001)                 0.000000000000000E+00
(PID.TID 0000.0001)     ;
(PID.TID 0000.0001) endTime  =   /* Integration ending time ( s ) */
(PID.TID 0000.0001)                 8.640000000000000E+05
(PID.TID 0000.0001)     ;
(PID.TID 0000.0001) pChkPtFreq = /* Permanent restart/pickup file interval ( s ) */
(PID.TID 0000.0001)                 3.110400000000000E+09
(PID.TID 0000.0001)     ;
(PID.TID 0000.0001) chkPtFreq  = /* Rolling restart/pickup file interval ( s ) */
(PID.TID 0000.0001)                 1.555200000000000E+08
(PID.TID 0000.0001)     ;
(PID.TID 0000.0001) pickup_write_mdsio =   /* Model IO flag. */
(PID.TID 0000.0001)                   T
(PID.TID 0000.0001)     ;
(PID.TID 0000.0001) pickup_read_mdsio =   /* Model IO flag. */
(PID.TID 0000.0001)                   T
(PID.TID 0000.0001)     ;
(PID.TID 0000.0001) pickup_write_mnc =   /* Model IO flag. */
(PID.TID 0000.0001)                   F
(PID.TID 0000.0001)     ;
(PID.TID 0000.0001) pickup_read_mnc =   /* Model IO flag. */
(PID.TID 0000.0001)                   F
(PID.TID 0000.0001)     ;
(PID.TID 0000.0001) writePickupAtEnd =   /* Model IO flag. */
(PID.TID 0000.0001)                   T
(PID.TID 0000.0001)     ;
(PID.TID 0000.0001) dumpFreq =   /* Model state write out interval ( s ). */
(PID.TID 0000.0001)                 0.000000000000000E+00
(PID.TID 0000.0001)     ;
(PID.TID 0000.0001) dumpInitAndLast= /* write out Initial & Last iter. model state */
(PID.TID 0000.0001)                   T
(PID.TID 0000.0001)     ;
(PID.TID 0000.0001) snapshot_mdsio =   /* Model IO flag. */
(PID.TID 0000.0001)                   T
(PID.TID 0000.0001)     ;
(PID.TID 0000.0001) snapshot_mnc =   /* Model IO flag. */
(PID.TID 0000.0001)                   F
(PID.TID 0000.0001)     ;
(PID.TID 0000.0001) monitorFreq =   /* Monitor output interval ( s ). */
(PID.TID 0000.0001)                 1.000000000000000E+00
(PID.TID 0000.0001)     ;
(PID.TID 0000.0001) monitorSelect = /* select group of variables to monitor */
(PID.TID 0000.0001)                       3
(PID.TID 0000.0001)     ;
(PID.TID 0000.0001) monitor_stdio =   /* Model IO flag. */
(PID.TID 0000.0001)                   T
(PID.TID 0000.0001)     ;
(PID.TID 0000.0001) monitor_mnc =   /* Model IO flag. */
(PID.TID 0000.0001)                   F
(PID.TID 0000.0001)     ;
(PID.TID 0000.0001) externForcingPeriod =   /* forcing period (s) */
(PID.TID 0000.0001)                 2.592000000000000E+06
(PID.TID 0000.0001)     ;
(PID.TID 0000.0001) externForcingCycle =   /* period of the cyle (s). */
(PID.TID 0000.0001)                 3.110400000000000E+07
(PID.TID 0000.0001)     ;
(PID.TID 0000.0001) tauThetaClimRelax =   /* relaxation time scale (s) */
(PID.TID 0000.0001)                 0.000000000000000E+00
(PID.TID 0000.0001)     ;
(PID.TID 0000.0001) tauSaltClimRelax =   /* relaxation time scale (s) */
(PID.TID 0000.0001)                 0.000000000000000E+00
(PID.TID 0000.0001)     ;
(PID.TID 0000.0001) latBandClimRelax =   /* max. Lat. where relaxation */
(PID.TID 0000.0001)                 1.800000000000000E+02
(PID.TID 0000.0001)     ;
(PID.TID 0000.0001) //
(PID.TID 0000.0001) // Gridding paramters ( PARM04 in namelist )
(PID.TID 0000.0001) //
(PID.TID 0000.0001) usingCartesianGrid = /* Cartesian coordinates flag ( True/False ) */
(PID.TID 0000.0001)                   F
(PID.TID 0000.0001)     ;
(PID.TID 0000.0001) usingCylindricalGrid = /* Cylindrical coordinates flag ( True/False ) */
(PID.TID 0000.0001)                   F
(PID.TID 0000.0001)     ;
(PID.TID 0000.0001) usingSphericalPolarGrid = /* Spherical coordinates flag ( True/False ) */
(PID.TID 0000.0001)                   F
(PID.TID 0000.0001)     ;
(PID.TID 0000.0001) usingCurvilinearGrid = /* Curvilinear coordinates flag ( True/False ) */
(PID.TID 0000.0001)                   T
(PID.TID 0000.0001)     ;
(PID.TID 0000.0001) useMin4hFacEdges = /* set hFacW,S as minimum of adjacent hFacC factor */
(PID.TID 0000.0001)                   F
(PID.TID 0000.0001)     ;
(PID.TID 0000.0001) interViscAr_pCell = /* account for partial-cell in interior vert. viscosity */
(PID.TID 0000.0001)                   F
(PID.TID 0000.0001)     ;
(PID.TID 0000.0001) interDiffKr_pCell = /* account for partial-cell in interior vert. diffusion */
(PID.TID 0000.0001)                   F
(PID.TID 0000.0001)     ;
(PID.TID 0000.0001) pCellMix_select = /* option to enhance mixing near surface & bottom */
(PID.TID 0000.0001)                       0
(PID.TID 0000.0001)     ;
(PID.TID 0000.0001) selectSigmaCoord = /* Hybrid-Sigma Vert. Coordinate option */
(PID.TID 0000.0001)                       0
(PID.TID 0000.0001)     ;
(PID.TID 0000.0001) rSigmaBnd = /* r/sigma transition ( units of r == Pa ) */
(PID.TID 0000.0001)                 1.234567000000000E+05
(PID.TID 0000.0001)     ;
(PID.TID 0000.0001) rkSign =   /* index orientation relative to vertical coordinate */
(PID.TID 0000.0001)                -1.000000000000000E+00
(PID.TID 0000.0001)     ;
(PID.TID 0000.0001) gravitySign = /* gravity orientation relative to vertical coordinate */
(PID.TID 0000.0001)                 1.000000000000000E+00
(PID.TID 0000.0001)     ;
(PID.TID 0000.0001) seaLev_Z =  /* reference height of sea-level [m] */
(PID.TID 0000.0001)                 0.000000000000000E+00
(PID.TID 0000.0001)     ;
(PID.TID 0000.0001) top_Pres =  /* pressure at the top (r-axis origin) [Pa] */
(PID.TID 0000.0001)                 0.000000000000000E+00
(PID.TID 0000.0001)     ;
(PID.TID 0000.0001) mass2rUnit = /* convert mass per unit area [kg/m2] to r-units [Pa] */
(PID.TID 0000.0001)                 9.810000000000000E+00
(PID.TID 0000.0001)     ;
(PID.TID 0000.0001) rUnit2mass = /* convert r-units [Pa] to mass per unit area [kg/m2] */
(PID.TID 0000.0001)                 1.019367991845056E-01
(PID.TID 0000.0001)     ;
(PID.TID 0000.0001) drC =   /* C spacing ( units of r ) */
(PID.TID 0000.0001)                 3.552590815589000E+06,      /* K =  1 */
(PID.TID 0000.0001)                 6.838430683410000E+06,      /* K =  2 */
(PID.TID 0000.0001)                 6.307096000805000E+06,      /* K =  3 */
(PID.TID 0000.0001)                 5.779789753830500E+06,      /* K =  4 */
(PID.TID 0000.0001)                 5.256128838809000E+06,      /* K =  5 */
(PID.TID 0000.0001)                 4.735790619145500E+06,      /* K =  6 */
(PID.TID 0000.0001)                 4.218239224087000E+06,      /* K =  7 */
(PID.TID 0000.0001)                 3.703226328546000E+06,      /* K =  8 */
(PID.TID 0000.0001)                 3.190660624493000E+06,      /* K =  9 */
(PID.TID 0000.0001)                 2.680260559297500E+06,      /* K = 10 */
(PID.TID 0000.0001)                 2.171774589024000E+06,      /* K = 11 */
(PID.TID 0000.0001)                 1.664899952158000E+06,      /* K = 12 */
(PID.TID 0000.0001)                 1.209624465162000E+06,      /* K = 13 */
(PID.TID 0000.0001)                 8.559169708345000E+05,      /* K = 14 */
(PID.TID 0000.0001)                 6.035281525760000E+05,      /* K = 15 */
(PID.TID 0000.0001)                 2.513278433230000E+05       /* K = 16 */
(PID.TID 0000.0001)     ;
(PID.TID 0000.0001) drF =   /* W spacing ( units of r ) */
(PID.TID 0000.0001)                 7.105181631178000E+06,      /* K =  1 */
(PID.TID 0000.0001)                 6.571679735642000E+06,      /* K =  2 */
(PID.TID 0000.0001)                 6.042512265968000E+06,      /* K =  3 */
(PID.TID 0000.0001)                 5.517067241693000E+06,      /* K =  4 */
(PID.TID 0000.0001)                 4.995190435925000E+06,      /* K =  5 */
(PID.TID 0000.0001)                 4.476390802366000E+06,      /* K =  6 */
(PID.TID 0000.0001)                 3.960087645808000E+06,      /* K =  7 */
(PID.TID 0000.0001)                 3.446365011284000E+06,      /* K =  8 */
(PID.TID 0000.0001)                 2.934956237702000E+06,      /* K =  9 */
(PID.TID 0000.0001)                 2.425564880893000E+06,      /* K = 10 */
(PID.TID 0000.0001)                 1.917984297155000E+06,      /* K = 11 */
(PID.TID 0000.0001)                 1.411815607161000E+06,      /* K = 12 */
(PID.TID 0000.0001)                 1.007433323163000E+06,      /* K = 13 */
(PID.TID 0000.0001)                 7.044006185060000E+05,      /* K = 14 */
(PID.TID 0000.0001)                 5.026556866460000E+05       /* K = 15 */
(PID.TID 0000.0001)     ;
(PID.TID 0000.0001) radius_fromHorizGrid = /* sphere Radius of input horiz. grid */
(PID.TID 0000.0001)                 6.370000000000000E+06
(PID.TID 0000.0001)     ;
(PID.TID 0000.0001) rSphere =  /* Radius ( ignored - cartesian, m - spherical ) */
(PID.TID 0000.0001)                 6.370000000000000E+06
(PID.TID 0000.0001)     ;
(PID.TID 0000.0001) deepAtmosphere = /* Deep/Shallow Atmosphere flag (True/False) */
(PID.TID 0000.0001)                   F
(PID.TID 0000.0001)     ;
(PID.TID 0000.0001) xC =  /* xC(:,1,:,1) : P-point X coord ( deg. or m if cartesian) */
(PID.TID 0000.0001)                -4.439521994760536E+01,      /* I =  1 */
(PID.TID 0000.0001)                -4.295641272275883E+01,      /* I =  2 */
(PID.TID 0000.0001)                -4.122055553388957E+01,      /* I =  3 */
(PID.TID 0000.0001)      . . .
(PID.TID 0000.0001)                 1.312205555338896E+02,      /* I = 94 */
(PID.TID 0000.0001)                 1.329564127227588E+02,      /* I = 95 */
(PID.TID 0000.0001)                 1.343952199476053E+02,      /* I = 96 */
(PID.TID 0000.0001)                 4.635509675007168E+01,      /* I = 97 */
(PID.TID 0000.0001)                 4.906731228843647E+01,      /* I = 98 */
(PID.TID 0000.0001)                 5.178550688214704E+01,      /* I = 99 */
(PID.TID 0000.0001)      . . .
(PID.TID 0000.0001)                -1.778001716525716E+02,      /* I =190 */
(PID.TID 0000.0001)                -1.779288225675308E+02,      /* I =191 */
(PID.TID 0000.0001)                -1.780367200854751E+02,      /* I =192 */
(PID.TID 0000.0001)                 1.356047800523947E+02,      /* I =193 */
(PID.TID 0000.0001)                 1.358367907661329E+02,      /* I =194 */
(PID.TID 0000.0001)                 1.359720382181193E+02,      /* I =195 */
(PID.TID 0000.0001)      . . .
(PID.TID 0000.0001)                -1.340279617818807E+02,      /* I =286 */
(PID.TID 0000.0001)                -1.341632092338671E+02,      /* I =287 */
(PID.TID 0000.0001)                -1.343952199476053E+02,      /* I =288 */
(PID.TID 0000.0001)                -8.812739148696656E+01,      /* I =289 */
(PID.TID 0000.0001)                -8.820362659721324E+01,      /* I =290 */
(PID.TID 0000.0001)                -8.826768106944316E+01,      /* I =291 */
(PID.TID 0000.0001)      . . .
(PID.TID 0000.0001)                 8.780017165257156E+01,      /* I =382 */
(PID.TID 0000.0001)                 8.792882256753080E+01,      /* I =383 */
(PID.TID 0000.0001)                 8.803672008547504E+01       /* I =384 */
(PID.TID 0000.0001)     ;
(PID.TID 0000.0001) yC =  /* yC(1,:,1,:) : P-point Y coord ( deg. or m if cartesian) */
(PID.TID 0000.0001)                -3.497677942598243E+01,      /* J =  1 */
(PID.TID 0000.0001)                -3.374005967394886E+01,      /* J =  2 */
(PID.TID 0000.0001)                -3.220655175667454E+01,      /* J =  3 */
(PID.TID 0000.0001)                -3.045756348838641E+01,      /* J =  4 */
(PID.TID 0000.0001)                -2.853728129852918E+01,      /* J =  5 */
(PID.TID 0000.0001)                -2.647426640173173E+01,      /* J =  6 */
(PID.TID 0000.0001)                -2.428936657094636E+01,      /* J =  7 */
(PID.TID 0000.0001)                -2.199915808312262E+01,      /* J =  8 */
(PID.TID 0000.0001)                -1.961768597440146E+01,      /* J =  9 */
(PID.TID 0000.0001)                -1.715743888281371E+01,      /* J = 10 */
(PID.TID 0000.0001)                -1.462993396899330E+01,      /* J = 11 */
(PID.TID 0000.0001)                -1.204608340464756E+01,      /* J = 12 */
(PID.TID 0000.0001)                -9.416429130284818E+00,      /* J = 13 */
(PID.TID 0000.0001)                -6.751293662992216E+00,      /* J = 14 */
(PID.TID 0000.0001)                -4.060875511835959E+00,      /* J = 15 */
(PID.TID 0000.0001)                -1.355307764409121E+00       /* J = 16 */
(PID.TID 0000.0001)     ;
(PID.TID 0000.0001) rcoord = /* P-point R coordinate (  units of r ) */
(PID.TID 0000.0001)                 4.946669460550100E+07,      /* K =  1 */
(PID.TID 0000.0001)                 4.262826392209099E+07,      /* K =  2 */
(PID.TID 0000.0001)                 3.632116792128599E+07,      /* K =  3 */
(PID.TID 0000.0001)                 3.054137816745549E+07,      /* K =  4 */
(PID.TID 0000.0001)                 2.528524932864650E+07,      /* K =  5 */
(PID.TID 0000.0001)                 2.054945870950100E+07,      /* K =  6 */
(PID.TID 0000.0001)                 1.633121948541400E+07,      /* K =  7 */
(PID.TID 0000.0001)                 1.262799315686800E+07,      /* K =  8 */
(PID.TID 0000.0001)                 9.437332532375000E+06,      /* K =  9 */
(PID.TID 0000.0001)                 6.757071973077500E+06,      /* K = 10 */
(PID.TID 0000.0001)                 4.585297384053500E+06,      /* K = 11 */
(PID.TID 0000.0001)                 2.920397431895500E+06,      /* K = 12 */
(PID.TID 0000.0001)                 1.710772966733500E+06,      /* K = 13 */
(PID.TID 0000.0001)                 8.548559958990000E+05,      /* K = 14 */
(PID.TID 0000.0001)                 2.513278433230000E+05       /* K = 15 */
(PID.TID 0000.0001)     ;
(PID.TID 0000.0001) rF =   /* W-Interf. R coordinate (  units of r ) */
(PID.TID 0000.0001)                 5.301928542109000E+07,      /* K =  1 */
(PID.TID 0000.0001)                 4.591410378991200E+07,      /* K =  2 */
(PID.TID 0000.0001)                 3.934242405427000E+07,      /* K =  3 */
(PID.TID 0000.0001)                 3.329991178830200E+07,      /* K =  4 */
(PID.TID 0000.0001)                 2.778284454660900E+07,      /* K =  5 */
(PID.TID 0000.0001)                 2.278765411068400E+07,      /* K =  6 */
(PID.TID 0000.0001)                 1.831126330831800E+07,      /* K =  7 */
(PID.TID 0000.0001)                 1.435117566251000E+07,      /* K =  8 */
(PID.TID 0000.0001)                 1.090481065122600E+07,      /* K =  9 */
(PID.TID 0000.0001)                 7.969854413524000E+06,      /* K = 10 */
(PID.TID 0000.0001)                 5.544289532631000E+06,      /* K = 11 */
(PID.TID 0000.0001)                 3.626305235476000E+06,      /* K = 12 */
(PID.TID 0000.0001)                 2.214489628315000E+06,      /* K = 13 */
(PID.TID 0000.0001)                 1.207056305152000E+06,      /* K = 14 */
(PID.TID 0000.0001)                 5.026556866460000E+05,      /* K = 15 */
(PID.TID 0000.0001)                 0.000000000000000E+00       /* K = 16 */
(PID.TID 0000.0001)     ;
(PID.TID 0000.0001) deepFacC = /* deep-model grid factor @ cell-Center (-) */
(PID.TID 0000.0001)    15 @  1.000000000000000E+00              /* K =  1: 15 */
(PID.TID 0000.0001)     ;
(PID.TID 0000.0001) deepFacF = /* deep-model grid factor @ W-Interface (-) */
(PID.TID 0000.0001)    16 @  1.000000000000000E+00              /* K =  1: 16 */
(PID.TID 0000.0001)     ;
(PID.TID 0000.0001) rVel2wUnit = /* convert units: rVel [Pa/s] -> wSpeed [m/s] */
(PID.TID 0000.0001)                 9.742887855143588E-05,      /* K =  1 */
(PID.TID 0000.0001)                 9.768627106249419E-05,      /* K =  2 */
(PID.TID 0000.0001)                 9.792907474950860E-05,      /* K =  3 */
(PID.TID 0000.0001)                 9.815645750666191E-05,      /* K =  4 */
(PID.TID 0000.0001)                 9.836761343676874E-05,      /* K =  5 */
(PID.TID 0000.0001)                 9.856178548148132E-05,      /* K =  6 */
(PID.TID 0000.0001)                 9.873825829905007E-05,      /* K =  7 */
(PID.TID 0000.0001)                 9.889635993378996E-05,      /* K =  8 */
(PID.TID 0000.0001)                 9.903549381018021E-05,      /* K =  9 */
(PID.TID 0000.0001)                 9.915513050133213E-05,      /* K = 10 */
(PID.TID 0000.0001)                 9.925481132009713E-05,      /* K = 11 */
(PID.TID 0000.0001)                 9.933415624910784E-05,      /* K = 12 */
(PID.TID 0000.0001)                 9.939285957918134E-05,      /* K = 13 */
(PID.TID 0000.0001)                 9.943490422617367E-05,      /* K = 14 */
(PID.TID 0000.0001)                 9.946437929981070E-05,      /* K = 15 */
(PID.TID 0000.0001)                 9.948545155757643E-05       /* K = 16 */
(PID.TID 0000.0001)     ;
(PID.TID 0000.0001) wUnit2rVel = /* convert units: wSpeed [m/s] -> rVel [Pa/s] */
(PID.TID 0000.0001)                 1.026389726401364E+04,      /* K =  1 */
(PID.TID 0000.0001)                 1.023685303086507E+04,      /* K =  2 */
(PID.TID 0000.0001)                 1.021147195108180E+04,      /* K =  3 */
(PID.TID 0000.0001)                 1.018781673057149E+04,      /* K =  4 */
(PID.TID 0000.0001)                 1.016594756202768E+04,      /* K =  5 */
(PID.TID 0000.0001)                 1.014592009585590E+04,      /* K =  6 */
(PID.TID 0000.0001)                 1.012778650572592E+04,      /* K =  7 */
(PID.TID 0000.0001)                 1.011159562060210E+04,      /* K =  8 */
(PID.TID 0000.0001)                 1.009738995108849E+04,      /* K =  9 */
(PID.TID 0000.0001)                 1.008520683643864E+04,      /* K = 10 */
(PID.TID 0000.0001)                 1.007507834330566E+04,      /* K = 11 */
(PID.TID 0000.0001)                 1.006703069478160E+04,      /* K = 12 */
(PID.TID 0000.0001)                 1.006108491328142E+04,      /* K = 13 */
(PID.TID 0000.0001)                 1.005683072541016E+04,      /* K = 14 */
(PID.TID 0000.0001)                 1.005385050446802E+04,      /* K = 15 */
(PID.TID 0000.0001)                 1.005172097370697E+04       /* K = 16 */
(PID.TID 0000.0001)     ;
(PID.TID 0000.0001) rUnit2z = /* convert units (@ center): dr [Pa] -> dz [m] */
(PID.TID 0000.0001)                 9.755691881368162E-05,      /* K =  1 */
(PID.TID 0000.0001)                 9.780709552455839E-05,      /* K =  2 */
(PID.TID 0000.0001)                 9.804226477867782E-05,      /* K =  3 */
(PID.TID 0000.0001)                 9.826160702330555E-05,      /* K =  4 */
(PID.TID 0000.0001)                 9.846434012053036E-05,      /* K =  5 */
(PID.TID 0000.0001)                 9.864972725579047E-05,      /* K =  6 */
(PID.TID 0000.0001)                 9.881707418047693E-05,      /* K =  7 */
(PID.TID 0000.0001)                 9.896574597209428E-05,      /* K =  8 */
(PID.TID 0000.0001)                 9.909517906692542E-05,      /* K =  9 */
(PID.TID 0000.0001)                 9.920487890398630E-05,      /* K = 10 */
(PID.TID 0000.0001)                 9.929442568661408E-05,      /* K = 11 */
(PID.TID 0000.0001)                 9.936347619530873E-05,      /* K = 12 */
(PID.TID 0000.0001)                 9.941386566250407E-05,      /* K = 13 */
(PID.TID 0000.0001)                 9.944963379228999E-05,      /* K = 14 */
(PID.TID 0000.0001)                 9.947491135866009E-05       /* K = 15 */
(PID.TID 0000.0001)     ;
(PID.TID 0000.0001) z2rUnit = /* convert units (@ center): dz [m] -> dr [Pa] */
(PID.TID 0000.0001)                 1.025042623486134E+04,      /* K =  1 */
(PID.TID 0000.0001)                 1.022420709496388E+04,      /* K =  2 */
(PID.TID 0000.0001)                 1.019968278229207E+04,      /* K =  3 */
(PID.TID 0000.0001)                 1.017691477163427E+04,      /* K =  4 */
(PID.TID 0000.0001)                 1.015596101873936E+04,      /* K =  5 */
(PID.TID 0000.0001)                 1.013687546653914E+04,      /* K =  6 */
(PID.TID 0000.0001)                 1.011970864643924E+04,      /* K =  7 */
(PID.TID 0000.0001)                 1.010450626302533E+04,      /* K =  8 */
(PID.TID 0000.0001)                 1.009130826964483E+04,      /* K =  9 */
(PID.TID 0000.0001)                 1.008014939434413E+04,      /* K = 10 */
(PID.TID 0000.0001)                 1.007105880400707E+04,      /* K = 11 */
(PID.TID 0000.0001)                 1.006406013850000E+04,      /* K = 12 */
(PID.TID 0000.0001)                 1.005895901276848E+04,      /* K = 13 */
(PID.TID 0000.0001)                 1.005534120003493E+04,      /* K = 14 */
(PID.TID 0000.0001)                 1.005278603762176E+04       /* K = 15 */
(PID.TID 0000.0001)     ;
(PID.TID 0000.0001) rotateGrid = /* use rotated grid ( True/False ) */
(PID.TID 0000.0001)                   F
(PID.TID 0000.0001)     ;
(PID.TID 0000.0001) phiEuler = /* Euler angle, rotation about original z-coordinate [rad] */
(PID.TID 0000.0001)                 0.000000000000000E+00
(PID.TID 0000.0001)     ;
(PID.TID 0000.0001) thetaEuler = /* Euler angle, rotation about new x-coordinate [rad] */
(PID.TID 0000.0001)                 0.000000000000000E+00
(PID.TID 0000.0001)     ;
(PID.TID 0000.0001) psiEuler = /* Euler angle, rotation about new z-coordinate [rad] */
(PID.TID 0000.0001)                 0.000000000000000E+00
(PID.TID 0000.0001)     ;
(PID.TID 0000.0001) dxF =  /* dxF(:,1,:,1) ( units: m ) */
(PID.TID 0000.0001)                 1.202082051331828E+05,      /* I =  1 */
(PID.TID 0000.0001)                 1.563594089971120E+05,      /* I =  2 */
(PID.TID 0000.0001)                 1.835530058121492E+05,      /* I =  3 */
(PID.TID 0000.0001)      . . .
(PID.TID 0000.0001)                 1.835530058121492E+05,      /* I = 94 */
(PID.TID 0000.0001)                 1.563594089971120E+05,      /* I = 95 */
(PID.TID 0000.0001)                 1.202082051331828E+05,      /* I = 96 */
(PID.TID 0000.0001)                 3.012844832048790E+05,      /* I = 97 */
(PID.TID 0000.0001)                 3.017314519159184E+05,      /* I = 98 */
(PID.TID 0000.0001)                 3.026061571839506E+05,      /* I = 99 */
(PID.TID 0000.0001)      . . .
(PID.TID 0000.0001)                 3.026061571839506E+05,      /* I =190 */
(PID.TID 0000.0001)                 3.017314519159184E+05,      /* I =191 */
(PID.TID 0000.0001)                 3.012844832048790E+05,      /* I =192 */
(PID.TID 0000.0001)                 1.202082051331828E+05,      /* I =193 */
(PID.TID 0000.0001)                 1.563594089971120E+05,      /* I =194 */
(PID.TID 0000.0001)                 1.835530058121492E+05,      /* I =195 */
(PID.TID 0000.0001)      . . .
(PID.TID 0000.0001)                 1.835530058121492E+05,      /* I =286 */
(PID.TID 0000.0001)                 1.563594089971120E+05,      /* I =287 */
(PID.TID 0000.0001)                 1.202082051331828E+05,      /* I =288 */
(PID.TID 0000.0001)                 3.012844832048790E+05,      /* I =289 */
(PID.TID 0000.0001)                 3.017314519159184E+05,      /* I =290 */
(PID.TID 0000.0001)                 3.026061571839506E+05,      /* I =291 */
(PID.TID 0000.0001)      . . .
(PID.TID 0000.0001)                 3.026061571839506E+05,      /* I =382 */
(PID.TID 0000.0001)                 3.017314519159184E+05,      /* I =383 */
(PID.TID 0000.0001)                 3.012844832048790E+05       /* I =384 */
(PID.TID 0000.0001)     ;
(PID.TID 0000.0001) dxF =  /* dxF(1,:,1,:) ( units: m ) */
(PID.TID 0000.0001)                 1.202082051331828E+05,      /* J =  1 */
(PID.TID 0000.0001)                 1.572908084538706E+05,      /* J =  2 */
(PID.TID 0000.0001)                 1.840412227747703E+05,      /* J =  3 */
(PID.TID 0000.0001)                 2.048868197919576E+05,      /* J =  4 */
(PID.TID 0000.0001)                 2.220405216043041E+05,      /* J =  5 */
(PID.TID 0000.0001)                 2.365892017348392E+05,      /* J =  6 */
(PID.TID 0000.0001)                 2.491250781852558E+05,      /* J =  7 */
(PID.TID 0000.0001)                 2.599949918261881E+05,      /* J =  8 */
(PID.TID 0000.0001)                 2.694110134598581E+05,      /* J =  9 */
(PID.TID 0000.0001)                 2.775055554645015E+05,      /* J = 10 */
(PID.TID 0000.0001)                 2.843615645344775E+05,      /* J = 11 */
(PID.TID 0000.0001)                 2.900303768613599E+05,      /* J = 12 */
(PID.TID 0000.0001)                 2.945429307892709E+05,      /* J = 13 */
(PID.TID 0000.0001)                 2.979171143158405E+05,      /* J = 14 */
(PID.TID 0000.0001)                 3.001626787528886E+05,      /* J = 15 */
(PID.TID 0000.0001)                 3.012844832048790E+05       /* J = 16 */
(PID.TID 0000.0001)     ;
(PID.TID 0000.0001) dyF =  /* dyF(:,1,:,1) ( units: m ) */
(PID.TID 0000.0001)                 1.202082051331828E+05,      /* I =  1 */
(PID.TID 0000.0001)                 1.572908084538706E+05,      /* I =  2 */
(PID.TID 0000.0001)                 1.840412227747703E+05,      /* I =  3 */
(PID.TID 0000.0001)      . . .
(PID.TID 0000.0001)                 1.840412227747703E+05,      /* I = 94 */
(PID.TID 0000.0001)                 1.572908084538706E+05,      /* I = 95 */
(PID.TID 0000.0001)                 1.202082051331828E+05,      /* I = 96 */
(PID.TID 0000.0001)                 3.012190981969055E+05,      /* I = 97 */
(PID.TID 0000.0001)                 3.016675528553907E+05,      /* I = 98 */
(PID.TID 0000.0001)                 3.025451404065074E+05,      /* I = 99 */
(PID.TID 0000.0001)      . . .
(PID.TID 0000.0001)                 3.025451404065074E+05,      /* I =190 */
(PID.TID 0000.0001)                 3.016675528553907E+05,      /* I =191 */
(PID.TID 0000.0001)                 3.012190981969055E+05,      /* I =192 */
(PID.TID 0000.0001)                 1.202082051331828E+05,      /* I =193 */
(PID.TID 0000.0001)                 1.572908084538706E+05,      /* I =194 */
(PID.TID 0000.0001)                 1.840412227747703E+05,      /* I =195 */
(PID.TID 0000.0001)      . . .
(PID.TID 0000.0001)                 1.840412227747703E+05,      /* I =286 */
(PID.TID 0000.0001)                 1.572908084538706E+05,      /* I =287 */
(PID.TID 0000.0001)                 1.202082051331828E+05,      /* I =288 */
(PID.TID 0000.0001)                 3.012190981969055E+05,      /* I =289 */
(PID.TID 0000.0001)                 3.016675528553907E+05,      /* I =290 */
(PID.TID 0000.0001)                 3.025451404065074E+05,      /* I =291 */
(PID.TID 0000.0001)      . . .
(PID.TID 0000.0001)                 3.025451404065074E+05,      /* I =382 */
(PID.TID 0000.0001)                 3.016675528553907E+05,      /* I =383 */
(PID.TID 0000.0001)                 3.012190981969055E+05       /* I =384 */
(PID.TID 0000.0001)     ;
(PID.TID 0000.0001) dyF =  /* dyF(1,:,1,:) ( units: m ) */
(PID.TID 0000.0001)                 1.202082051331828E+05,      /* J =  1 */
(PID.TID 0000.0001)                 1.563594089971120E+05,      /* J =  2 */
(PID.TID 0000.0001)                 1.835530058121492E+05,      /* J =  3 */
(PID.TID 0000.0001)                 2.045883481718707E+05,      /* J =  4 */
(PID.TID 0000.0001)                 2.218350349844185E+05,      /* J =  5 */
(PID.TID 0000.0001)                 2.364352994647058E+05,      /* J =  6 */
(PID.TID 0000.0001)                 2.490022710862746E+05,      /* J =  7 */
(PID.TID 0000.0001)                 2.598919724358304E+05,      /* J =  8 */
(PID.TID 0000.0001)                 2.693210245495156E+05,      /* J =  9 */
(PID.TID 0000.0001)                 2.774243179696503E+05,      /* J = 10 */
(PID.TID 0000.0001)                 2.842862532064524E+05,      /* J = 11 */
(PID.TID 0000.0001)                 2.899590699694043E+05,      /* J = 12 */
(PID.TID 0000.0001)                 2.944742915095688E+05,      /* J = 13 */
(PID.TID 0000.0001)                 2.978501920522794E+05,      /* J = 14 */
(PID.TID 0000.0001)                 3.000967749619962E+05,      /* J = 15 */
(PID.TID 0000.0001)                 3.012190981969055E+05       /* J = 16 */
(PID.TID 0000.0001)     ;
(PID.TID 0000.0001) dxG =  /* dxG(:,1,:,1) ( units: m ) */
(PID.TID 0000.0001)                 1.009837800879055E+05,      /* I =  1 */
(PID.TID 0000.0001)                 1.534505834330338E+05,      /* I =  2 */
(PID.TID 0000.0001)                 1.823321598773926E+05,      /* I =  3 */
(PID.TID 0000.0001)      . . .
(PID.TID 0000.0001)                 1.823321598773926E+05,      /* I = 94 */
(PID.TID 0000.0001)                 1.534505834330338E+05,      /* I = 95 */
(PID.TID 0000.0001)                 1.009837800879055E+05,      /* I = 96 */
(PID.TID 0000.0001)                 3.014246674484008E+05,      /* I = 97 */
(PID.TID 0000.0001)                 3.018694497480782E+05,      /* I = 98 */
(PID.TID 0000.0001)                 3.027399364062562E+05,      /* I = 99 */
(PID.TID 0000.0001)      . . .
(PID.TID 0000.0001)                 3.027399364062562E+05,      /* I =190 */
(PID.TID 0000.0001)                 3.018694497480782E+05,      /* I =191 */
(PID.TID 0000.0001)                 3.014246674484008E+05,      /* I =192 */
(PID.TID 0000.0001)                 1.009837800879055E+05,      /* I =193 */
(PID.TID 0000.0001)                 1.534505834330338E+05,      /* I =194 */
(PID.TID 0000.0001)                 1.823321598773926E+05,      /* I =195 */
(PID.TID 0000.0001)      . . .
(PID.TID 0000.0001)                 1.823321598773926E+05,      /* I =286 */
(PID.TID 0000.0001)                 1.534505834330338E+05,      /* I =287 */
(PID.TID 0000.0001)                 1.009837800879055E+05,      /* I =288 */
(PID.TID 0000.0001)                 3.014246674484008E+05,      /* I =289 */
(PID.TID 0000.0001)                 3.018694497480782E+05,      /* I =290 */
(PID.TID 0000.0001)                 3.027399364062562E+05,      /* I =291 */
(PID.TID 0000.0001)      . . .
(PID.TID 0000.0001)                 3.027399364062562E+05,      /* I =382 */
(PID.TID 0000.0001)                 3.018694497480782E+05,      /* I =383 */
(PID.TID 0000.0001)                 3.014246674484008E+05       /* I =384 */
(PID.TID 0000.0001)     ;
(PID.TID 0000.0001) dxG =  /* dxG(1,:,1,:) ( units: m ) */
(PID.TID 0000.0001)                 1.009837800879055E+05,      /* J =  1 */
(PID.TID 0000.0001)                 1.403701524205398E+05,      /* J =  2 */
(PID.TID 0000.0001)                 1.716197227386011E+05,      /* J =  3 */
(PID.TID 0000.0001)                 1.950254041626018E+05,      /* J =  4 */
(PID.TID 0000.0001)                 2.138410773065497E+05,      /* J =  5 */
(PID.TID 0000.0001)                 2.295958105911512E+05,      /* J =  6 */
(PID.TID 0000.0001)                 2.430829951739083E+05,      /* J =  7 */
(PID.TID 0000.0001)                 2.547526806712889E+05,      /* J =  8 */
(PID.TID 0000.0001)                 2.648750305193301E+05,      /* J =  9 */
(PID.TID 0000.0001)                 2.736173771018112E+05,      /* J = 10 */
(PID.TID 0000.0001)                 2.810845823202647E+05,      /* J = 11 */
(PID.TID 0000.0001)                 2.873420591008078E+05,      /* J = 12 */
(PID.TID 0000.0001)                 2.924298293668651E+05,      /* J = 13 */
(PID.TID 0000.0001)                 2.963715635865306E+05,      /* J = 14 */
(PID.TID 0000.0001)                 2.991805843171258E+05,      /* J = 15 */
(PID.TID 0000.0001)                 3.008638765647886E+05       /* J = 16 */
(PID.TID 0000.0001)     ;
(PID.TID 0000.0001) dyG =  /* dyG(:,1,:,1) ( units: m ) */
(PID.TID 0000.0001)                 1.009837800879055E+05,      /* I =  1 */
(PID.TID 0000.0001)                 1.403701524205398E+05,      /* I =  2 */
(PID.TID 0000.0001)                 1.716197227386011E+05,      /* I =  3 */
(PID.TID 0000.0001)      . . .
(PID.TID 0000.0001)                 1.950254041626018E+05,      /* I = 94 */
(PID.TID 0000.0001)                 1.716197227386011E+05,      /* I = 95 */
(PID.TID 0000.0001)                 1.403701524205398E+05,      /* I = 96 */
(PID.TID 0000.0001)                 3.011625828699101E+05,      /* I = 97 */
(PID.TID 0000.0001)                 3.013880313304323E+05,      /* I = 98 */
(PID.TID 0000.0001)                 3.020546438966793E+05,      /* I = 99 */
(PID.TID 0000.0001)      . . .
(PID.TID 0000.0001)                 3.031337933484788E+05,      /* I =190 */
(PID.TID 0000.0001)                 3.020546438966793E+05,      /* I =191 */
(PID.TID 0000.0001)                 3.013880313304323E+05,      /* I =192 */
(PID.TID 0000.0001)                 1.009837800879055E+05,      /* I =193 */
(PID.TID 0000.0001)                 1.403701524205398E+05,      /* I =194 */
(PID.TID 0000.0001)                 1.716197227386011E+05,      /* I =195 */
(PID.TID 0000.0001)      . . .
(PID.TID 0000.0001)                 1.950254041626018E+05,      /* I =286 */
(PID.TID 0000.0001)                 1.716197227386011E+05,      /* I =287 */
(PID.TID 0000.0001)                 1.403701524205398E+05,      /* I =288 */
(PID.TID 0000.0001)                 3.011625828699101E+05,      /* I =289 */
(PID.TID 0000.0001)                 3.013880313304323E+05,      /* I =290 */
(PID.TID 0000.0001)                 3.020546438966793E+05,      /* I =291 */
(PID.TID 0000.0001)      . . .
(PID.TID 0000.0001)                 3.031337933484788E+05,      /* I =382 */
(PID.TID 0000.0001)                 3.020546438966793E+05,      /* I =383 */
(PID.TID 0000.0001)                 3.013880313304323E+05       /* I =384 */
(PID.TID 0000.0001)     ;
(PID.TID 0000.0001) dyG =  /* dyG(1,:,1,:) ( units: m ) */
(PID.TID 0000.0001)                 1.009837800879055E+05,      /* J =  1 */
(PID.TID 0000.0001)                 1.534505834330338E+05,      /* J =  2 */
(PID.TID 0000.0001)                 1.823321598773926E+05,      /* J =  3 */
(PID.TID 0000.0001)                 2.038999045536999E+05,      /* J =  4 */
(PID.TID 0000.0001)                 2.213884732245467E+05,      /* J =  5 */
(PID.TID 0000.0001)                 2.361211699596122E+05,      /* J =  6 */
(PID.TID 0000.0001)                 2.487693460283865E+05,      /* J =  7 */
(PID.TID 0000.0001)                 2.597126963772147E+05,      /* J =  8 */
(PID.TID 0000.0001)                 2.691790288994575E+05,      /* J =  9 */
(PID.TID 0000.0001)                 2.773091043277394E+05,      /* J = 10 */
(PID.TID 0000.0001)                 2.841906470085516E+05,      /* J = 11 */
(PID.TID 0000.0001)                 2.898778860929753E+05,      /* J = 12 */
(PID.TID 0000.0001)                 2.944035815526416E+05,      /* J = 13 */
(PID.TID 0000.0001)                 2.977867909042096E+05,      /* J = 14 */
(PID.TID 0000.0001)                 3.000380090330854E+05,      /* J = 15 */
(PID.TID 0000.0001)                 3.011625828699101E+05       /* J = 16 */
(PID.TID 0000.0001)     ;
(PID.TID 0000.0001) dxC =  /* dxC(:,1,:,1) ( units: m ) */
(PID.TID 0000.0001)                 1.114203141013064E+05,      /* I =  1 */
(PID.TID 0000.0001)                 1.391343389937106E+05,      /* I =  2 */
(PID.TID 0000.0001)                 1.709574999026266E+05,      /* I =  3 */
(PID.TID 0000.0001)      . . .
(PID.TID 0000.0001)                 1.946503699269892E+05,      /* I = 94 */
(PID.TID 0000.0001)                 1.709574999026266E+05,      /* I = 95 */
(PID.TID 0000.0001)                 1.391343389937106E+05,      /* I = 96 */
(PID.TID 0000.0001)                 3.012281885409289E+05,      /* I = 97 */
(PID.TID 0000.0001)                 3.014528555318499E+05,      /* I = 98 */
(PID.TID 0000.0001)                 3.021172674809921E+05,      /* I = 99 */
(PID.TID 0000.0001)      . . .
(PID.TID 0000.0001)                 3.031928954490276E+05,      /* I =190 */
(PID.TID 0000.0001)                 3.021172674809921E+05,      /* I =191 */
(PID.TID 0000.0001)                 3.014528555318499E+05,      /* I =192 */
(PID.TID 0000.0001)                 1.114203141013064E+05,      /* I =193 */
(PID.TID 0000.0001)                 1.391343389937106E+05,      /* I =194 */
(PID.TID 0000.0001)                 1.709574999026266E+05,      /* I =195 */
(PID.TID 0000.0001)      . . .
(PID.TID 0000.0001)                 1.946503699269892E+05,      /* I =286 */
(PID.TID 0000.0001)                 1.709574999026266E+05,      /* I =287 */
(PID.TID 0000.0001)                 1.391343389937106E+05,      /* I =288 */
(PID.TID 0000.0001)                 3.012281885409289E+05,      /* I =289 */
(PID.TID 0000.0001)                 3.014528555318499E+05,      /* I =290 */
(PID.TID 0000.0001)                 3.021172674809921E+05,      /* I =291 */
(PID.TID 0000.0001)      . . .
(PID.TID 0000.0001)                 3.031928954490276E+05,      /* I =382 */
(PID.TID 0000.0001)                 3.021172674809921E+05,      /* I =383 */
(PID.TID 0000.0001)                 3.014528555318499E+05       /* I =384 */
(PID.TID 0000.0001)     ;
(PID.TID 0000.0001) dxC =  /* dxC(1,:,1,:) ( units: m ) */
(PID.TID 0000.0001)                 1.114203141013064E+05,      /* J =  1 */
(PID.TID 0000.0001)                 1.549545757850771E+05,      /* J =  2 */
(PID.TID 0000.0001)                 1.829777599966776E+05,      /* J =  3 */
(PID.TID 0000.0001)                 2.042717761866506E+05,      /* J =  4 */
(PID.TID 0000.0001)                 2.216367828252819E+05,      /* J =  5 */
(PID.TID 0000.0001)                 2.363029564123586E+05,      /* J =  6 */
(PID.TID 0000.0001)                 2.489113743322025E+05,      /* J =  7 */
(PID.TID 0000.0001)                 2.598293319150326E+05,      /* J =  8 */
(PID.TID 0000.0001)                 2.692787333338535E+05,      /* J =  9 */
(PID.TID 0000.0001)                 2.773972106720365E+05,      /* J = 10 */
(PID.TID 0000.0001)                 2.842706922224557E+05,      /* J = 11 */
(PID.TID 0000.0001)                 2.899523122489403E+05,      /* J = 12 */
(PID.TID 0000.0001)                 2.944741346384699E+05,      /* J = 13 */
(PID.TID 0000.0001)                 2.978547649292580E+05,      /* J = 14 */
(PID.TID 0000.0001)                 3.001044073506459E+05,      /* J = 15 */
(PID.TID 0000.0001)                 3.012281885409289E+05       /* J = 16 */
(PID.TID 0000.0001)     ;
(PID.TID 0000.0001) dyC =  /* dyC(:,1,:,1) ( units: m ) */
(PID.TID 0000.0001)                 1.114203141013064E+05,      /* I =  1 */
(PID.TID 0000.0001)                 1.549545757850771E+05,      /* I =  2 */
(PID.TID 0000.0001)                 1.829777599966776E+05,      /* I =  3 */
(PID.TID 0000.0001)      . . .
(PID.TID 0000.0001)                 1.829777599966776E+05,      /* I = 94 */
(PID.TID 0000.0001)                 1.549545757850771E+05,      /* I = 95 */
(PID.TID 0000.0001)                 1.114203141013064E+05,      /* I = 96 */
(PID.TID 0000.0001)                 3.013593857228136E+05,      /* I = 97 */
(PID.TID 0000.0001)                 3.018056440786431E+05,      /* I = 98 */
(PID.TID 0000.0001)                 3.026789946729719E+05,      /* I = 99 */
(PID.TID 0000.0001)      . . .
(PID.TID 0000.0001)                 3.026789946729719E+05,      /* I =190 */
(PID.TID 0000.0001)                 3.018056440786431E+05,      /* I =191 */
(PID.TID 0000.0001)                 3.013593857228136E+05,      /* I =192 */
(PID.TID 0000.0001)                 1.114203141013064E+05,      /* I =193 */
(PID.TID 0000.0001)                 1.549545757850771E+05,      /* I =194 */
(PID.TID 0000.0001)                 1.829777599966776E+05,      /* I =195 */
(PID.TID 0000.0001)      . . .
(PID.TID 0000.0001)                 1.829777599966776E+05,      /* I =286 */
(PID.TID 0000.0001)                 1.549545757850771E+05,      /* I =287 */
(PID.TID 0000.0001)                 1.114203141013064E+05,      /* I =288 */
(PID.TID 0000.0001)                 3.013593857228136E+05,      /* I =289 */
(PID.TID 0000.0001)                 3.018056440786431E+05,      /* I =290 */
(PID.TID 0000.0001)                 3.026789946729719E+05,      /* I =291 */
(PID.TID 0000.0001)      . . .
(PID.TID 0000.0001)                 3.026789946729719E+05,      /* I =382 */
(PID.TID 0000.0001)                 3.018056440786431E+05,      /* I =383 */
(PID.TID 0000.0001)                 3.013593857228136E+05       /* I =384 */
(PID.TID 0000.0001)     ;
(PID.TID 0000.0001) dyC =  /* dyC(1,:,1,:) ( units: m ) */
(PID.TID 0000.0001)                 1.114203141013064E+05,      /* J =  1 */
(PID.TID 0000.0001)                 1.391343389937106E+05,      /* J =  2 */
(PID.TID 0000.0001)                 1.709574999026266E+05,      /* J =  3 */
(PID.TID 0000.0001)                 1.946503699269892E+05,      /* J =  4 */
(PID.TID 0000.0001)                 2.135964483342134E+05,      /* J =  5 */
(PID.TID 0000.0001)                 2.294195678257306E+05,      /* J =  6 */
(PID.TID 0000.0001)                 2.429464709770498E+05,      /* J =  7 */
(PID.TID 0000.0001)                 2.546408290696998E+05,      /* J =  8 */
(PID.TID 0000.0001)                 2.647791839299727E+05,      /* J =  9 */
(PID.TID 0000.0001)                 2.735321911346108E+05,      /* J = 10 */
(PID.TID 0000.0001)                 2.810065951609633E+05,      /* J = 11 */
(PID.TID 0000.0001)                 2.872689479506990E+05,      /* J = 12 */
(PID.TID 0000.0001)                 2.923599955312932E+05,      /* J = 13 */
(PID.TID 0000.0001)                 2.963038832565530E+05,      /* J = 14 */
(PID.TID 0000.0001)                 2.991142470004740E+05,      /* J = 15 */
(PID.TID 0000.0001)                 3.007982711627968E+05       /* J = 16 */
(PID.TID 0000.0001)     ;
(PID.TID 0000.0001) dxV =  /* dxV(:,1,:,1) ( units: m ) */
(PID.TID 0000.0001)                 8.015229982413632E+04,      /* I =  1 */
(PID.TID 0000.0001)                 1.333130744933864E+05,      /* I =  2 */
(PID.TID 0000.0001)                 1.691744868129062E+05,      /* I =  3 */
(PID.TID 0000.0001)      . . .
(PID.TID 0000.0001)                 1.937548202849060E+05,      /* I = 94 */
(PID.TID 0000.0001)                 1.691744868129062E+05,      /* I = 95 */
(PID.TID 0000.0001)                 1.333130744933864E+05,      /* I = 96 */
(PID.TID 0000.0001)                 3.013686170436881E+05,      /* I = 97 */
(PID.TID 0000.0001)                 3.015922136961168E+05,      /* I = 98 */
(PID.TID 0000.0001)                 3.022533948177109E+05,      /* I = 99 */
(PID.TID 0000.0001)      . . .
(PID.TID 0000.0001)                 3.033238888442880E+05,      /* I =190 */
(PID.TID 0000.0001)                 3.022533948177109E+05,      /* I =191 */
(PID.TID 0000.0001)                 3.015922136961168E+05,      /* I =192 */
(PID.TID 0000.0001)                 8.015229982413632E+04,      /* I =193 */
(PID.TID 0000.0001)                 1.333130744933864E+05,      /* I =194 */
(PID.TID 0000.0001)                 1.691744868129062E+05,      /* I =195 */
(PID.TID 0000.0001)      . . .
(PID.TID 0000.0001)                 1.937548202849060E+05,      /* I =286 */
(PID.TID 0000.0001)                 1.691744868129062E+05,      /* I =287 */
(PID.TID 0000.0001)                 1.333130744933864E+05,      /* I =288 */
(PID.TID 0000.0001)                 3.013686170436881E+05,      /* I =289 */
(PID.TID 0000.0001)                 3.015922136961168E+05,      /* I =290 */
(PID.TID 0000.0001)                 3.022533948177109E+05,      /* I =291 */
(PID.TID 0000.0001)      . . .
(PID.TID 0000.0001)                 3.033238888442880E+05,      /* I =382 */
(PID.TID 0000.0001)                 3.022533948177109E+05,      /* I =383 */
(PID.TID 0000.0001)                 3.015922136961168E+05       /* I =384 */
(PID.TID 0000.0001)     ;
(PID.TID 0000.0001) dxV =  /* dxV(1,:,1,:) ( units: m ) */
(PID.TID 0000.0001)                 8.015229982413632E+04,      /* J =  1 */
(PID.TID 0000.0001)                 1.362652340208229E+05,      /* J =  2 */
(PID.TID 0000.0001)                 1.701080315742101E+05,      /* J =  3 */
(PID.TID 0000.0001)                 1.942331448101592E+05,      /* J =  4 */
(PID.TID 0000.0001)                 2.133486626971531E+05,      /* J =  5 */
(PID.TID 0000.0001)                 2.292584591272880E+05,      /* J =  6 */
(PID.TID 0000.0001)                 2.428369969078989E+05,      /* J =  7 */
(PID.TID 0000.0001)                 2.545652950875683E+05,      /* J =  8 */
(PID.TID 0000.0001)                 2.647274964828301E+05,      /* J =  9 */
(PID.TID 0000.0001)                 2.734980225206389E+05,      /* J = 10 */
(PID.TID 0000.0001)                 2.809856491525217E+05,      /* J = 11 */
(PID.TID 0000.0001)                 2.872580915202295E+05,      /* J = 12 */
(PID.TID 0000.0001)                 2.923567890694162E+05,      /* J = 13 */
(PID.TID 0000.0001)                 2.963063101754721E+05,      /* J = 14 */
(PID.TID 0000.0001)                 2.991205495886625E+05,      /* J = 15 */
(PID.TID 0000.0001)                 3.008068453676764E+05       /* J = 16 */
(PID.TID 0000.0001)     ;
(PID.TID 0000.0001) dyU =  /* dyU(:,1,:,1) ( units: m ) */
(PID.TID 0000.0001)                 8.015229982413632E+04,      /* I =  1 */
(PID.TID 0000.0001)                 1.362652340208229E+05,      /* I =  2 */
(PID.TID 0000.0001)                 1.701080315742101E+05,      /* I =  3 */
(PID.TID 0000.0001)      . . .
(PID.TID 0000.0001)                 1.942331448101592E+05,      /* I = 94 */
(PID.TID 0000.0001)                 1.701080315742101E+05,      /* I = 95 */
(PID.TID 0000.0001)                 1.362652340208229E+05,      /* I = 96 */
(PID.TID 0000.0001)                 3.013031486919771E+05,      /* I = 97 */
(PID.TID 0000.0001)                 3.015274890091515E+05,      /* I = 98 */
(PID.TID 0000.0001)                 3.021908563699420E+05,      /* I = 99 */
(PID.TID 0000.0001)      . . .
(PID.TID 0000.0001)                 3.032648502024415E+05,      /* I =190 */
(PID.TID 0000.0001)                 3.021908563699420E+05,      /* I =191 */
(PID.TID 0000.0001)                 3.015274890091515E+05,      /* I =192 */
(PID.TID 0000.0001)                 8.015229982413632E+04,      /* I =193 */
(PID.TID 0000.0001)                 1.362652340208229E+05,      /* I =194 */
(PID.TID 0000.0001)                 1.701080315742101E+05,      /* I =195 */
(PID.TID 0000.0001)      . . .
(PID.TID 0000.0001)                 1.942331448101592E+05,      /* I =286 */
(PID.TID 0000.0001)                 1.701080315742101E+05,      /* I =287 */
(PID.TID 0000.0001)                 1.362652340208229E+05,      /* I =288 */
(PID.TID 0000.0001)                 3.013031486919771E+05,      /* I =289 */
(PID.TID 0000.0001)                 3.015274890091515E+05,      /* I =290 */
(PID.TID 0000.0001)                 3.021908563699420E+05,      /* I =291 */
(PID.TID 0000.0001)      . . .
(PID.TID 0000.0001)                 3.032648502024415E+05,      /* I =382 */
(PID.TID 0000.0001)                 3.021908563699420E+05,      /* I =383 */
(PID.TID 0000.0001)                 3.015274890091515E+05       /* I =384 */
(PID.TID 0000.0001)     ;
(PID.TID 0000.0001) dyU =  /* dyU(1,:,1,:) ( units: m ) */
(PID.TID 0000.0001)                 8.015229982413632E+04,      /* J =  1 */
(PID.TID 0000.0001)                 1.333130744933864E+05,      /* J =  2 */
(PID.TID 0000.0001)                 1.691744868129062E+05,      /* J =  3 */
(PID.TID 0000.0001)                 1.937548202849060E+05,      /* J =  4 */
(PID.TID 0000.0001)                 2.130490056267208E+05,      /* J =  5 */
(PID.TID 0000.0001)                 2.290479919481738E+05,      /* J =  6 */
(PID.TID 0000.0001)                 2.426774358027003E+05,      /* J =  7 */
(PID.TID 0000.0001)                 2.544372984215561E+05,      /* J =  8 */
(PID.TID 0000.0001)                 2.646201463834826E+05,      /* J =  9 */
(PID.TID 0000.0001)                 2.734046499619031E+05,      /* J = 10 */
(PID.TID 0000.0001)                 2.809019351693761E+05,      /* J = 11 */
(PID.TID 0000.0001)                 2.871811105274442E+05,      /* J = 12 */
(PID.TID 0000.0001)                 2.922844849381675E+05,      /* J = 13 */
(PID.TID 0000.0001)                 2.962371870847826E+05,      /* J = 14 */
(PID.TID 0000.0001)                 2.990534755671296E+05,      /* J = 15 */
(PID.TID 0000.0001)                 3.007409169495504E+05       /* J = 16 */
(PID.TID 0000.0001)     ;
(PID.TID 0000.0001) rA  =  /* rA (:,1,:,1) ( units: m^2 ) */
(PID.TID 0000.0001)                 1.401900702255611E+10,      /* I =  1 */
(PID.TID 0000.0001)                 2.459906945574446E+10,      /* I =  2 */
(PID.TID 0000.0001)                 3.378518544307869E+10,      /* I =  3 */
(PID.TID 0000.0001)      . . .
(PID.TID 0000.0001)                 3.378518544304265E+10,      /* I = 94 */
(PID.TID 0000.0001)                 2.459906945574446E+10,      /* I = 95 */
(PID.TID 0000.0001)                 1.401900702259215E+10,      /* I = 96 */
(PID.TID 0000.0001)                 9.076111290422060E+10,      /* I = 97 */
(PID.TID 0000.0001)                 9.103111035233499E+10,      /* I = 98 */
(PID.TID 0000.0001)                 9.156064070993231E+10,      /* I = 99 */
(PID.TID 0000.0001)      . . .
(PID.TID 0000.0001)                 9.156064070993231E+10,      /* I =190 */
(PID.TID 0000.0001)                 9.103111035233499E+10,      /* I =191 */
(PID.TID 0000.0001)                 9.076111290418457E+10,      /* I =192 */
(PID.TID 0000.0001)                 1.401900702255611E+10,      /* I =193 */
(PID.TID 0000.0001)                 2.459906945574446E+10,      /* I =194 */
(PID.TID 0000.0001)                 3.378518544307869E+10,      /* I =195 */
(PID.TID 0000.0001)      . . .
(PID.TID 0000.0001)                 3.378518544304265E+10,      /* I =286 */
(PID.TID 0000.0001)                 2.459906945574446E+10,      /* I =287 */
(PID.TID 0000.0001)                 1.401900702259215E+10,      /* I =288 */
(PID.TID 0000.0001)                 9.076111290422060E+10,      /* I =289 */
(PID.TID 0000.0001)                 9.103111035233499E+10,      /* I =290 */
(PID.TID 0000.0001)                 9.156064070993231E+10,      /* I =291 */
(PID.TID 0000.0001)      . . .
(PID.TID 0000.0001)                 9.156064070993231E+10,      /* I =382 */
(PID.TID 0000.0001)                 9.103111035233499E+10,      /* I =383 */
(PID.TID 0000.0001)                 9.076111290418457E+10       /* I =384 */
(PID.TID 0000.0001)     ;
(PID.TID 0000.0001) rA  =  /* rA (1,:,1,:) ( units: m^2 ) */
(PID.TID 0000.0001)                 1.401900702255611E+10,      /* J =  1 */
(PID.TID 0000.0001)                 2.459906945574446E+10,      /* J =  2 */
(PID.TID 0000.0001)                 3.378518544307869E+10,      /* J =  3 */
(PID.TID 0000.0001)                 4.192037169898667E+10,      /* J =  4 */
(PID.TID 0000.0001)                 4.925938996118163E+10,      /* J =  5 */
(PID.TID 0000.0001)                 5.594154126607553E+10,      /* J =  6 */
(PID.TID 0000.0001)                 6.203683527776127E+10,      /* J =  7 */
(PID.TID 0000.0001)                 6.757541173817516E+10,      /* J =  8 */
(PID.TID 0000.0001)                 7.256353271748119E+10,      /* J =  9 */
(PID.TID 0000.0001)                 7.699293007098555E+10,      /* J = 10 */
(PID.TID 0000.0001)                 8.084683449728902E+10,      /* J = 11 */
(PID.TID 0000.0001)                 8.410423102799828E+10,      /* J = 12 */
(PID.TID 0000.0001)                 8.674306976737517E+10,      /* J = 13 */
(PID.TID 0000.0001)                 8.874277443041928E+10,      /* J = 14 */
(PID.TID 0000.0001)                 9.008620045350865E+10,      /* J = 15 */
(PID.TID 0000.0001)                 9.076111290418457E+10       /* J = 16 */
(PID.TID 0000.0001)     ;
(PID.TID 0000.0001) rAw =  /* rAw(:,1,:,1) ( units: m^2 ) */
(PID.TID 0000.0001)                 1.216690346714270E+10,      /* I =  1 */
(PID.TID 0000.0001)                 1.974052138506315E+10,      /* I =  2 */
(PID.TID 0000.0001)                 2.943712825252015E+10,      /* I =  3 */
(PID.TID 0000.0001)      . . .
(PID.TID 0000.0001)                 3.801790263325260E+10,      /* I = 94 */
(PID.TID 0000.0001)                 2.943712825251114E+10,      /* I = 95 */
(PID.TID 0000.0001)                 1.974052138509018E+10,      /* I = 96 */
(PID.TID 0000.0001)                 9.071447638299399E+10,      /* I = 97 */
(PID.TID 0000.0001)                 9.085012105610597E+10,      /* I = 98 */
(PID.TID 0000.0001)                 9.125179254955583E+10,      /* I = 99 */
(PID.TID 0000.0001)      . . .
(PID.TID 0000.0001)                 9.190392048045309E+10,      /* I =190 */
(PID.TID 0000.0001)                 9.125179254954683E+10,      /* I =191 */
(PID.TID 0000.0001)                 9.085012105606993E+10,      /* I =192 */
(PID.TID 0000.0001)                 1.216690346714270E+10,      /* I =193 */
(PID.TID 0000.0001)                 1.974052138506315E+10,      /* I =194 */
(PID.TID 0000.0001)                 2.943712825252015E+10,      /* I =195 */
(PID.TID 0000.0001)      . . .
(PID.TID 0000.0001)                 3.801790263325260E+10,      /* I =286 */
(PID.TID 0000.0001)                 2.943712825251114E+10,      /* I =287 */
(PID.TID 0000.0001)                 1.974052138509018E+10,      /* I =288 */
(PID.TID 0000.0001)                 9.071447638299399E+10,      /* I =289 */
(PID.TID 0000.0001)                 9.085012105610597E+10,      /* I =290 */
(PID.TID 0000.0001)                 9.125179254955583E+10,      /* I =291 */
(PID.TID 0000.0001)      . . .
(PID.TID 0000.0001)                 9.190392048045309E+10,      /* I =382 */
(PID.TID 0000.0001)                 9.125179254954683E+10,      /* I =383 */
(PID.TID 0000.0001)                 9.085012105606993E+10       /* I =384 */
(PID.TID 0000.0001)     ;
(PID.TID 0000.0001) rAw =  /* rAw(1,:,1,:) ( units: m^2 ) */
(PID.TID 0000.0001)                 1.216690346714270E+10,      /* J =  1 */
(PID.TID 0000.0001)                 2.390126200743558E+10,      /* J =  2 */
(PID.TID 0000.0001)                 3.341968103208270E+10,      /* J =  3 */
(PID.TID 0000.0001)                 4.168532893152940E+10,      /* J =  4 */
(PID.TID 0000.0001)                 4.909074590409593E+10,      /* J =  5 */
(PID.TID 0000.0001)                 5.581203765722643E+10,      /* J =  6 */
(PID.TID 0000.0001)                 6.193257577506788E+10,      /* J =  7 */
(PID.TID 0000.0001)                 6.748840226738273E+10,      /* J =  8 */
(PID.TID 0000.0001)                 7.248875782324815E+10,      /* J =  9 */
(PID.TID 0000.0001)                 7.692702995909871E+10,      /* J = 10 */
(PID.TID 0000.0001)                 8.078743937057304E+10,      /* J = 11 */
(PID.TID 0000.0001)                 8.404959656062837E+10,      /* J = 12 */
(PID.TID 0000.0001)                 8.669186205742538E+10,      /* J = 13 */
(PID.TID 0000.0001)                 8.869393350723613E+10,      /* J = 14 */
(PID.TID 0000.0001)                 9.003884657168852E+10,      /* J = 15 */
(PID.TID 0000.0001)                 9.071447638299399E+10       /* J = 16 */
(PID.TID 0000.0001)     ;
(PID.TID 0000.0001) rAs =  /* rAs(:,1,:,1) ( units: m^2 ) */
(PID.TID 0000.0001)                 1.216690346714270E+10,      /* I =  1 */
(PID.TID 0000.0001)                 2.390126200743558E+10,      /* I =  2 */
(PID.TID 0000.0001)                 3.341968103208270E+10,      /* I =  3 */
(PID.TID 0000.0001)      . . .
(PID.TID 0000.0001)                 3.341968103208270E+10,      /* I = 94 */
(PID.TID 0000.0001)                 2.390126200743558E+10,      /* I = 95 */
(PID.TID 0000.0001)                 1.216690346714270E+10,      /* I = 96 */
(PID.TID 0000.0001)                 9.083293515008307E+10,      /* I = 97 */
(PID.TID 0000.0001)                 9.110170898494536E+10,      /* I = 98 */
(PID.TID 0000.0001)                 9.162886297688426E+10,      /* I = 99 */
(PID.TID 0000.0001)      . . .
(PID.TID 0000.0001)                 9.162886297688426E+10,      /* I =190 */
(PID.TID 0000.0001)                 9.110170898494536E+10,      /* I =191 */
(PID.TID 0000.0001)                 9.083293515008307E+10,      /* I =192 */
(PID.TID 0000.0001)                 1.216690346714270E+10,      /* I =193 */
(PID.TID 0000.0001)                 2.390126200743558E+10,      /* I =194 */
(PID.TID 0000.0001)                 3.341968103208270E+10,      /* I =195 */
(PID.TID 0000.0001)      . . .
(PID.TID 0000.0001)                 3.341968103208270E+10,      /* I =286 */
(PID.TID 0000.0001)                 2.390126200743558E+10,      /* I =287 */
(PID.TID 0000.0001)                 1.216690346714270E+10,      /* I =288 */
(PID.TID 0000.0001)                 9.083293515008307E+10,      /* I =289 */
(PID.TID 0000.0001)                 9.110170898494536E+10,      /* I =290 */
(PID.TID 0000.0001)                 9.162886297688426E+10,      /* I =291 */
(PID.TID 0000.0001)      . . .
(PID.TID 0000.0001)                 9.162886297688426E+10,      /* I =382 */
(PID.TID 0000.0001)                 9.110170898494536E+10,      /* I =383 */
(PID.TID 0000.0001)                 9.083293515008307E+10       /* I =384 */
(PID.TID 0000.0001)     ;
(PID.TID 0000.0001) rAs =  /* rAs(1,:,1,:) ( units: m^2 ) */
(PID.TID 0000.0001)                 1.216690346714270E+10,      /* J =  1 */
(PID.TID 0000.0001)                 1.974052138506315E+10,      /* J =  2 */
(PID.TID 0000.0001)                 2.943712825252015E+10,      /* J =  3 */
(PID.TID 0000.0001)                 3.801790263324359E+10,      /* J =  4 */
(PID.TID 0000.0001)                 4.571243814189866E+10,      /* J =  5 */
(PID.TID 0000.0001)                 5.269930713599979E+10,      /* J =  6 */
(PID.TID 0000.0001)                 5.907428494299063E+10,      /* J =  7 */
(PID.TID 0000.0001)                 6.488320895111514E+10,      /* J =  8 */
(PID.TID 0000.0001)                 7.014205907741882E+10,      /* J =  9 */
(PID.TID 0000.0001)                 7.484854821847499E+10,      /* J = 10 */
(PID.TID 0000.0001)                 7.898934631431560E+10,      /* J = 11 */
(PID.TID 0000.0001)                 8.254500894894537E+10,      /* J = 12 */
(PID.TID 0000.0001)                 8.549360686473492E+10,      /* J = 13 */
(PID.TID 0000.0001)                 8.781353403175085E+10,      /* J = 14 */
(PID.TID 0000.0001)                 8.948571540392021E+10,      /* J = 15 */
(PID.TID 0000.0001)                 9.049530583086168E+10       /* J = 16 */
(PID.TID 0000.0001)     ;
(PID.TID 0000.0001) globalArea = /* Integrated horizontal Area (m^2) */
(PID.TID 0000.0001)                 3.638867375081599E+14
(PID.TID 0000.0001)     ;
(PID.TID 0000.0001) hasWetCSCorners = /* Domain contains CS corners (True/False) */
(PID.TID 0000.0001)                   T
(PID.TID 0000.0001)     ;
(PID.TID 0000.0001) // =======================================================
(PID.TID 0000.0001) // End of Model config. summary
(PID.TID 0000.0001) // =======================================================
(PID.TID 0000.0001) 
(PID.TID 0000.0001) == Packages configuration : Check & print summary ==
(PID.TID 0000.0001) 
(PID.TID 0000.0001) GGL90_CHECK: #define ALLOW_GGL90
(PID.TID 0000.0001) GGL90_CHECK: Some form of convection has been enabled
(PID.TID 0000.0001) EXF_CHECK: #define ALLOW_EXF
(PID.TID 0000.0001) SEAICE_CHECK: #define ALLOW_SEAICE
(PID.TID 0000.0001) GAD_CHECK: #define ALLOW_GENERIC_ADVDIFF
(PID.TID 0000.0001) // =======================================================
(PID.TID 0000.0001) // Check Model config. (CONFIG_CHECK):
(PID.TID 0000.0001) // CONFIG_CHECK : Normal End
(PID.TID 0000.0001) // =======================================================
(PID.TID 0000.0001) 
(PID.TID 0000.0001)  MDS_READ_FIELD: opening global file: lev_T_cs_flip15.bin
(PID.TID 0000.0001)  MDS_READ_FIELD: opening global file: lev_S_cs_flip15.bin
(PID.TID 0000.0001) Start initial hydrostatic pressure computation
(PID.TID 0000.0001) Pressure is predetermined for buoyancyRelation OCEANICP
(PID.TID 0000.0001) 
(PID.TID 0000.0001) DIAGSTATS_INI_IO: open file: dynStDiag.0000000000.txt , unit=     9
(PID.TID 0000.0001) DIAGSTATS_INI_IO: open file: seaiceStDiag.0000000000.txt , unit=    10
(PID.TID 0000.0001)  write diagnostics summary to file ioUnit:      6
Iter.Nb:         0 ; Time(s):  0.0000000000000E+00
------------------------------------------------------------------------
2D/3D diagnostics: Number of lists:     4
------------------------------------------------------------------------
listId=    1 ; file name: surfDiag
 nFlds, nActive,       freq     &     phase        , nLev               
   11  |   11  |  15552000.000000         0.000000 |   1
 levels:   1
 diag# | name   |   ipt  |  iMate | kLev|   count |   mate.C|           
    23 |ETAN    |      1 |      0 |   1 |       0 |
    24 |ETANSQ  |      2 |      0 |   1 |       0 |
    25 |DETADT2 |      3 |      0 |   1 |       0 |
    73 |PHIBOT  |      4 |      0 |   1 |       0 |
    74 |PHIBOTSQ|      5 |      0 |   1 |       0 |
    81 |oceTAUX |      6 |      7 |   1 |       0 |       0 |
    82 |oceTAUY |      7 |      6 |   1 |       0 |       0 |
    87 |oceQnet |      8 |      0 |   1 |       0 |
    86 |oceSflux|      9 |      0 |   1 |       0 |
    85 |oceFWflx|     10 |      0 |   1 |       0 |
    78 |MXLDEPTH|     11 |      0 |   1 |       0 |
------------------------------------------------------------------------
listId=    2 ; file name: dynDiag
 nFlds, nActive,       freq     &     phase        , nLev               
   15  |   15  |  15552000.000000         0.000000 |  15
 levels:   1   2   3   4   5   6   7   8   9  10  11  12  13  14  15
 diag# | name   |   ipt  |  iMate | kLev|   count |   mate.C|           
    30 |UVEL    |     12 |     27 |  15 |       0 |       0 |
    31 |VVEL    |     27 |     12 |  15 |       0 |       0 |
    32 |WVEL    |     42 |      0 |  15 |       0 |
    71 |PHIHYD  |     57 |      0 |  15 |       0 |
    46 |VVELMASS|     72 |     87 |  15 |       0 |       0 |
    45 |UVELMASS|     87 |     72 |  15 |       0 |       0 |
    38 |WVELSQ  |    102 |      0 |  15 |       0 |
    26 |THETA   |    117 |      0 |  15 |       0 |
    50 |UTHMASS |    132 |    147 |  15 |       0 |       0 |
    51 |VTHMASS |    147 |    132 |  15 |       0 |       0 |
    52 |WTHMASS |    162 |      0 |  15 |       0 |
    27 |SALT    |    177 |      0 |  15 |       0 |
    53 |USLTMASS|    192 |    207 |  15 |       0 |       0 |
    54 |VSLTMASS|    207 |    192 |  15 |       0 |       0 |
    55 |WSLTMASS|    222 |      0 |  15 |       0 |
------------------------------------------------------------------------
listId=    3 ; file name: oceDiag
 nFlds, nActive,       freq     &     phase        , nLev               
    7  |    7  |  15552000.000000         0.000000 |  15
 levels:   1   2   3   4   5   6   7   8   9  10  11  12  13  14  15
 diag# | name   |   ipt  |  iMate | kLev|   count |   mate.C|           
    79 |DRHODR  |    237 |      0 |  15 |       0 |
    64 |RHOAnoma|    252 |      0 |  15 |       0 |
   227 |GGL90TKE|    267 |      0 |  15 |       0 |
   233 |GGL90Kr |    282 |      0 |  15 |       0 |
   229 |GGL90Lmx|    297 |      0 |  15 |       0 |
   237 |IDEMIX_E|    312 |      0 |  15 |       0 |
   242 |IDEMIX_K|    327 |      0 |  15 |       0 |
------------------------------------------------------------------------
listId=    4 ; file name: seaiceDiag
 nFlds, nActive,       freq     &     phase        , nLev               
    5  |    5  |  15552000.000000         0.000000 |   1
 levels:   1
 diag# | name   |   ipt  |  iMate | kLev|   count |   mate.C|           
   250 |SIheff  |    342 |      0 |   1 |       0 |
   247 |SIarea  |    343 |      0 |   1 |       0 |
   252 |SIhsnow |    344 |      0 |   1 |       0 |
   264 |SIuice  |    345 |    346 |   1 |       0 |       0 |
   265 |SIvice  |    346 |    345 |   1 |       0 |       0 |
------------------------------------------------------------------------
Global & Regional Statistics diagnostics: Number of lists:     2
------------------------------------------------------------------------
listId=   1 ; file name: dynStDiag
 nFlds, nActive,       freq     &     phase        |                    
    8  |    8  |    864000.000000         0.000000 |
 Regions:   0
 diag# | name   |   ipt  |  iMate |    Volume   |   mate-Vol. |         
    23 |ETAN    |      1 |      0 | 0.00000E+00 |
    30 |UVEL    |      2 |      0 | 0.00000E+00 |
    31 |VVEL    |     17 |      0 | 0.00000E+00 |
    32 |WVEL    |     32 |      0 | 0.00000E+00 |
    26 |THETA   |     47 |      0 | 0.00000E+00 |
    27 |SALT    |     62 |      0 | 0.00000E+00 |
    80 |CONVADJ |     77 |      0 | 0.00000E+00 |
    25 |DETADT2 |     92 |      0 | 0.00000E+00 |
------------------------------------------------------------------------
listId=   2 ; file name: seaiceStDiag
 nFlds, nActive,       freq     &     phase        |                    
    5  |    5  |    864000.000000         0.000000 |
 Regions:   0  1  3
 diag# | name   |   ipt  |  iMate |    Volume   |   mate-Vol. |         
   250 |SIheff  |     93 |      0 | 0.00000E+00 |
   247 |SIarea  |     94 |      0 | 0.00000E+00 |
   252 |SIhsnow |     95 |      0 | 0.00000E+00 |
   264 |SIuice  |     96 |      0 | 0.00000E+00 |
   265 |SIvice  |     97 |      0 | 0.00000E+00 |
------------------------------------------------------------------------
(PID.TID 0000.0001)  MDS_READ_FIELD: opening global file: idemix_tidal_forcing.192x32.bin
(PID.TID 0000.0001)  MDS_READ_FIELD: opening global file: idemix_wind_forcing.192x32.bin
(PID.TID 0000.0001) // =======================================================
(PID.TID 0000.0001) // Model current state
(PID.TID 0000.0001) // =======================================================
(PID.TID 0000.0001) 
(PID.TID 0000.0001) // =======================================================
(PID.TID 0000.0001) // Begin MONITOR dynamic field statistics
(PID.TID 0000.0001) // =======================================================
(PID.TID 0000.0001) %MON time_tsnumber                =                     0
(PID.TID 0000.0001) %MON time_secondsf                =   0.0000000000000E+00
(PID.TID 0000.0001) %MON dynstat_eta_max              =   0.0000000000000E+00
(PID.TID 0000.0001) %MON dynstat_eta_min              =   0.0000000000000E+00
(PID.TID 0000.0001) %MON dynstat_eta_mean             =   0.0000000000000E+00
(PID.TID 0000.0001) %MON dynstat_eta_sd               =   0.0000000000000E+00
(PID.TID 0000.0001) %MON dynstat_eta_del2             =   0.0000000000000E+00
(PID.TID 0000.0001) %MON dynstat_uvel_max             =   0.0000000000000E+00
(PID.TID 0000.0001) %MON dynstat_uvel_min             =   0.0000000000000E+00
(PID.TID 0000.0001) %MON dynstat_uvel_mean            =   0.0000000000000E+00
(PID.TID 0000.0001) %MON dynstat_uvel_sd              =   0.0000000000000E+00
(PID.TID 0000.0001) %MON dynstat_uvel_del2            =   0.0000000000000E+00
(PID.TID 0000.0001) %MON dynstat_vvel_max             =   0.0000000000000E+00
(PID.TID 0000.0001) %MON dynstat_vvel_min             =   0.0000000000000E+00
(PID.TID 0000.0001) %MON dynstat_vvel_mean            =   0.0000000000000E+00
(PID.TID 0000.0001) %MON dynstat_vvel_sd              =   0.0000000000000E+00
(PID.TID 0000.0001) %MON dynstat_vvel_del2            =   0.0000000000000E+00
(PID.TID 0000.0001) %MON dynstat_wvel_max             =   0.0000000000000E+00
(PID.TID 0000.0001) %MON dynstat_wvel_min             =   0.0000000000000E+00
(PID.TID 0000.0001) %MON dynstat_wvel_mean            =   0.0000000000000E+00
(PID.TID 0000.0001) %MON dynstat_wvel_sd              =   0.0000000000000E+00
(PID.TID 0000.0001) %MON dynstat_wvel_del2            =   0.0000000000000E+00
(PID.TID 0000.0001) %MON dynstat_theta_max            =   2.9382676376985E+01
(PID.TID 0000.0001) %MON dynstat_theta_min            =  -1.8552983134796E+00
(PID.TID 0000.0001) %MON dynstat_theta_mean           =   3.5911800119018E+00
(PID.TID 0000.0001) %MON dynstat_theta_sd             =   4.4266930247071E+00
(PID.TID 0000.0001) %MON dynstat_theta_del2           =   2.1326598561892E-03
(PID.TID 0000.0001) %MON dynstat_salt_max             =   4.0715748807407E+01
(PID.TID 0000.0001) %MON dynstat_salt_min             =   1.8144841495627E+01
(PID.TID 0000.0001) %MON dynstat_salt_mean            =   3.4721450909937E+01
(PID.TID 0000.0001) %MON dynstat_salt_sd              =   4.8791814713556E-01
(PID.TID 0000.0001) %MON dynstat_salt_del2            =   5.1558447735922E-04
(PID.TID 0000.0001) %MON forcing_qnet_max             =   0.0000000000000E+00
(PID.TID 0000.0001) %MON forcing_qnet_min             =   0.0000000000000E+00
(PID.TID 0000.0001) %MON forcing_qnet_mean            =   0.0000000000000E+00
(PID.TID 0000.0001) %MON forcing_qnet_sd              =   0.0000000000000E+00
(PID.TID 0000.0001) %MON forcing_qnet_del2            =   0.0000000000000E+00
(PID.TID 0000.0001) %MON forcing_qsw_max              =   0.0000000000000E+00
(PID.TID 0000.0001) %MON forcing_qsw_min              =   0.0000000000000E+00
(PID.TID 0000.0001) %MON forcing_qsw_mean             =   0.0000000000000E+00
(PID.TID 0000.0001) %MON forcing_qsw_sd               =   0.0000000000000E+00
(PID.TID 0000.0001) %MON forcing_qsw_del2             =   0.0000000000000E+00
(PID.TID 0000.0001) %MON forcing_empmr_max            =   0.0000000000000E+00
(PID.TID 0000.0001) %MON forcing_empmr_min            =   0.0000000000000E+00
(PID.TID 0000.0001) %MON forcing_empmr_mean           =   0.0000000000000E+00
(PID.TID 0000.0001) %MON forcing_empmr_sd             =   0.0000000000000E+00
(PID.TID 0000.0001) %MON forcing_empmr_del2           =   0.0000000000000E+00
(PID.TID 0000.0001) %MON forcing_fu_max               =   0.0000000000000E+00
(PID.TID 0000.0001) %MON forcing_fu_min               =   0.0000000000000E+00
(PID.TID 0000.0001) %MON forcing_fu_mean              =   0.0000000000000E+00
(PID.TID 0000.0001) %MON forcing_fu_sd                =   0.0000000000000E+00
(PID.TID 0000.0001) %MON forcing_fu_del2              =   0.0000000000000E+00
(PID.TID 0000.0001) %MON forcing_fv_max               =   0.0000000000000E+00
(PID.TID 0000.0001) %MON forcing_fv_min               =   0.0000000000000E+00
(PID.TID 0000.0001) %MON forcing_fv_mean              =   0.0000000000000E+00
(PID.TID 0000.0001) %MON forcing_fv_sd                =   0.0000000000000E+00
(PID.TID 0000.0001) %MON forcing_fv_del2              =   0.0000000000000E+00
(PID.TID 0000.0001) %MON trAdv_CFL_u_max              =   0.0000000000000E+00
(PID.TID 0000.0001) %MON trAdv_CFL_v_max              =   0.0000000000000E+00
(PID.TID 0000.0001) %MON trAdv_CFL_w_max              =   0.0000000000000E+00
(PID.TID 0000.0001) %MON advcfl_uvel_max              =   0.0000000000000E+00
(PID.TID 0000.0001) %MON advcfl_vvel_max              =   0.0000000000000E+00
(PID.TID 0000.0001) %MON advcfl_wvel_max              =   0.0000000000000E+00
(PID.TID 0000.0001) %MON advcfl_W_hf_max              =   0.0000000000000E+00
(PID.TID 0000.0001) %MON pe_b_mean                    =   0.0000000000000E+00
(PID.TID 0000.0001) %MON ke_max                       =   0.0000000000000E+00
(PID.TID 0000.0001) %MON ke_mean                      =   0.0000000000000E+00
(PID.TID 0000.0001) %MON ke_vol                       =   1.3604176684230E+22
(PID.TID 0000.0001) %MON vort_r_min                   =   0.0000000000000E+00
(PID.TID 0000.0001) %MON vort_r_max                   =   0.0000000000000E+00
(PID.TID 0000.0001) %MON vort_a_mean                  =  -2.0556865257795E-05
(PID.TID 0000.0001) %MON vort_a_sd                    =   7.5247403105505E-05
(PID.TID 0000.0001) %MON vort_p_mean                  =  -2.4859393568698E-05
(PID.TID 0000.0001) %MON vort_p_sd                    =   1.2918978855221E-04
(PID.TID 0000.0001) %MON surfExpan_theta_mean         =   0.0000000000000E+00
(PID.TID 0000.0001) %MON surfExpan_salt_mean          =   0.0000000000000E+00
(PID.TID 0000.0001) // =======================================================
(PID.TID 0000.0001) // End MONITOR dynamic field statistics
(PID.TID 0000.0001) // =======================================================
(PID.TID 0000.0001) // =======================================================
(PID.TID 0000.0001) // Begin MONITOR SEAICE statistics
(PID.TID 0000.0001) // =======================================================
(PID.TID 0000.0001) %MON seaice_tsnumber              =                     0
(PID.TID 0000.0001) %MON seaice_time_sec              =   0.0000000000000E+00
(PID.TID 0000.0001) %MON seaice_uice_max              =   0.0000000000000E+00
(PID.TID 0000.0001) %MON seaice_uice_min              =   0.0000000000000E+00
(PID.TID 0000.0001) %MON seaice_uice_mean             =   0.0000000000000E+00
(PID.TID 0000.0001) %MON seaice_uice_sd               =   0.0000000000000E+00
(PID.TID 0000.0001) %MON seaice_uice_del2             =   0.0000000000000E+00
(PID.TID 0000.0001) %MON seaice_vice_max              =   0.0000000000000E+00
(PID.TID 0000.0001) %MON seaice_vice_min              =   0.0000000000000E+00
(PID.TID 0000.0001) %MON seaice_vice_mean             =   0.0000000000000E+00
(PID.TID 0000.0001) %MON seaice_vice_sd               =   0.0000000000000E+00
(PID.TID 0000.0001) %MON seaice_vice_del2             =   0.0000000000000E+00
(PID.TID 0000.0001) %MON seaice_area_max              =   0.0000000000000E+00
(PID.TID 0000.0001) %MON seaice_area_min              =   0.0000000000000E+00
(PID.TID 0000.0001) %MON seaice_area_mean             =   0.0000000000000E+00
(PID.TID 0000.0001) %MON seaice_area_sd               =   0.0000000000000E+00
(PID.TID 0000.0001) %MON seaice_area_del2             =   0.0000000000000E+00
(PID.TID 0000.0001) %MON seaice_heff_max              =   0.0000000000000E+00
(PID.TID 0000.0001) %MON seaice_heff_min              =   0.0000000000000E+00
(PID.TID 0000.0001) %MON seaice_heff_mean             =   0.0000000000000E+00
(PID.TID 0000.0001) %MON seaice_heff_sd               =   0.0000000000000E+00
(PID.TID 0000.0001) %MON seaice_heff_del2             =   0.0000000000000E+00
(PID.TID 0000.0001) %MON seaice_hsnow_max             =   0.0000000000000E+00
(PID.TID 0000.0001) %MON seaice_hsnow_min             =   0.0000000000000E+00
(PID.TID 0000.0001) %MON seaice_hsnow_mean            =   0.0000000000000E+00
(PID.TID 0000.0001) %MON seaice_hsnow_sd              =   0.0000000000000E+00
(PID.TID 0000.0001) %MON seaice_hsnow_del2            =   0.0000000000000E+00
(PID.TID 0000.0001) // =======================================================
(PID.TID 0000.0001) // End MONITOR SEAICE statistics
(PID.TID 0000.0001) // =======================================================
(PID.TID 0000.0001)  MDS_READ_FIELD: opening global file: lev_surfT_cs_12m.bin
(PID.TID 0000.0001)  MDS_READ_FIELD: opening global file: lev_surfT_cs_12m.bin
(PID.TID 0000.0001)  MDS_READ_FIELD: opening global file: lev_surfS_cs_12m.bin
(PID.TID 0000.0001)  MDS_READ_FIELD: opening global file: lev_surfS_cs_12m.bin
(PID.TID 0000.0001)  MDS_READ_FIELD: opening global file: trenberth_taux.bin
(PID.TID 0000.0001)  MDS_READ_FIELD: opening global file: trenberth_taux.bin
(PID.TID 0000.0001)  MDS_READ_FIELD: opening global file: trenberth_tauy.bin
(PID.TID 0000.0001)  MDS_READ_FIELD: opening global file: trenberth_tauy.bin
(PID.TID 0000.0001)  MDS_READ_FIELD: opening global file: core_wndSpd_cs32.bin
(PID.TID 0000.0001)  MDS_READ_FIELD: opening global file: core_wndSpd_cs32.bin
(PID.TID 0000.0001)  MDS_READ_FIELD: opening global file: core_t_Air_cs32.bin
(PID.TID 0000.0001)  MDS_READ_FIELD: opening global file: core_t_Air_cs32.bin
(PID.TID 0000.0001)  MDS_READ_FIELD: opening global file: core_q_air_cs32.bin
(PID.TID 0000.0001)  MDS_READ_FIELD: opening global file: core_q_air_cs32.bin
(PID.TID 0000.0001)  MDS_READ_FIELD: opening global file: core_prec_1_cs32.bin
(PID.TID 0000.0001)  MDS_READ_FIELD: opening global file: core_prec_1_cs32.bin
(PID.TID 0000.0001)  MDS_READ_FIELD: opening global file: core_dwnSw_cs32.bin
(PID.TID 0000.0001)  MDS_READ_FIELD: opening global file: core_dwnSw_cs32.bin
(PID.TID 0000.0001)  MDS_READ_FIELD: opening global file: core_dwnLw_cs32.bin
(PID.TID 0000.0001)  MDS_READ_FIELD: opening global file: core_dwnLw_cs32.bin
(PID.TID 0000.0001)  MDS_READ_FIELD: opening global file: core_rnof_1_cs32.bin
(PID.TID 0000.0001)  MDS_READ_FIELD: opening global file: core_rnof_1_cs32.bin
(PID.TID 0000.0001)  MDS_READ_FIELD: opening global file: runoff_temperature.bin
(PID.TID 0000.0001)  MDS_READ_FIELD: opening global file: runoff_temperature.bin
 EXTERNAL_FIELDS_LOAD,         0 : iP,iLd,i0,i1=   12    0   12    1 ; Wght=  0.5000000000  0.5000000000
 EXTERNAL_FIELDS_LOAD, it=         0 : Reading new data, i0,i1=   12    1 (prev=   12    0 )
 SEAICE_LSR: Residual Initial ipass,Uice,Vice=         1  0.00000000E+00  0.00000000E+00
 SEAICE_LSR (ipass=        1) iters,dU,Resid=        2  0.00000000E+00  0.00000000E+00
 SEAICE_LSR (ipass=        1) iters,dV,Resid=        2  0.00000000E+00  0.00000000E+00
 SEAICE_LSR: Residual Initial ipass,Uice,Vice=         2  0.00000000E+00  0.00000000E+00
 SEAICE_LSR (ipass=        2) iters,dU,Resid=        2  0.00000000E+00  0.00000000E+00
 SEAICE_LSR (ipass=        2) iters,dV,Resid=        2  0.00000000E+00  0.00000000E+00
(PID.TID 0000.0001) SOLVE_FOR_PRESSURE: putPmEinXvector =    F
(PID.TID 0000.0001) SOLVE_FOR_PRESSURE: oldFreeSurfTerm =    F
 cg2d: Sum(rhs),rhsMax =   3.01089121209888E-02  1.58090187952693E+01
(PID.TID 0000.0001)      cg2d_init_res =   1.28067079790822E+01
(PID.TID 0000.0001)      cg2d_iters(min,last) =      -1     113
(PID.TID 0000.0001)      cg2d_last_res =   9.45350189984042E-10
(PID.TID 0000.0001) // =======================================================
(PID.TID 0000.0001) // Begin MONITOR dynamic field statistics
(PID.TID 0000.0001) // =======================================================
(PID.TID 0000.0001) %MON time_tsnumber                =                     1
(PID.TID 0000.0001) %MON time_secondsf                =   8.6400000000000E+04
(PID.TID 0000.0001) %MON dynstat_eta_max              =   1.3486148643209E+04
(PID.TID 0000.0001) %MON dynstat_eta_min              =  -1.2618545360694E+04
(PID.TID 0000.0001) %MON dynstat_eta_mean             =  -7.1882054255199E+00
(PID.TID 0000.0001) %MON dynstat_eta_sd               =   3.6780779141212E+03
(PID.TID 0000.0001) %MON dynstat_eta_del2             =   7.3889394521369E+01
(PID.TID 0000.0001) %MON dynstat_uvel_max             =   1.8531317510019E-02
(PID.TID 0000.0001) %MON dynstat_uvel_min             =  -2.2880347109090E-02
(PID.TID 0000.0001) %MON dynstat_uvel_mean            =  -1.3222189291831E-04
(PID.TID 0000.0001) %MON dynstat_uvel_sd              =   1.3820791570504E-03
(PID.TID 0000.0001) %MON dynstat_uvel_del2            =   6.9075782309994E-06
(PID.TID 0000.0001) %MON dynstat_vvel_max             =   5.5575680967911E-02
(PID.TID 0000.0001) %MON dynstat_vvel_min             =  -2.8180187162854E-02
(PID.TID 0000.0001) %MON dynstat_vvel_mean            =  -3.1878857111794E-05
(PID.TID 0000.0001) %MON dynstat_vvel_sd              =   1.4568050274965E-03
(PID.TID 0000.0001) %MON dynstat_vvel_del2            =   7.1740483932548E-06
(PID.TID 0000.0001) %MON dynstat_wvel_max             =   9.4575810479590E-01
(PID.TID 0000.0001) %MON dynstat_wvel_min             =  -1.5153808208032E+00
(PID.TID 0000.0001) %MON dynstat_wvel_mean            =   4.3601916337398E-03
(PID.TID 0000.0001) %MON dynstat_wvel_sd              =   4.9239127415995E-02
(PID.TID 0000.0001) %MON dynstat_wvel_del2            =   4.3631125870496E-04
(PID.TID 0000.0001) %MON dynstat_theta_max            =   2.9392809720264E+01
(PID.TID 0000.0001) %MON dynstat_theta_min            =  -1.8744449393007E+00
(PID.TID 0000.0001) %MON dynstat_theta_mean           =   3.5912753907057E+00
(PID.TID 0000.0001) %MON dynstat_theta_sd             =   4.4270705844576E+00
(PID.TID 0000.0001) %MON dynstat_theta_del2           =   2.1212741602258E-03
(PID.TID 0000.0001) %MON dynstat_salt_max             =   4.0715774689715E+01
(PID.TID 0000.0001) %MON dynstat_salt_min             =   1.8145208929025E+01
(PID.TID 0000.0001) %MON dynstat_salt_mean            =   3.4721454303851E+01
(PID.TID 0000.0001) %MON dynstat_salt_sd              =   4.8787681075215E-01
(PID.TID 0000.0001) %MON dynstat_salt_del2            =   5.1445887014783E-04
(PID.TID 0000.0001) %MON forcing_qnet_max             =   7.0395185950993E+02
(PID.TID 0000.0001) %MON forcing_qnet_min             =  -3.1780481308873E+02
(PID.TID 0000.0001) %MON forcing_qnet_mean            =  -1.7632783937302E+01
(PID.TID 0000.0001) %MON forcing_qnet_sd              =   1.7951574117047E+02
(PID.TID 0000.0001) %MON forcing_qnet_del2            =   8.7404342257015E-01
(PID.TID 0000.0001) %MON forcing_qsw_max              =   0.0000000000000E+00
(PID.TID 0000.0001) %MON forcing_qsw_min              =  -3.0191527312954E+02
(PID.TID 0000.0001) %MON forcing_qsw_mean             =  -1.8592646878981E+02
(PID.TID 0000.0001) %MON forcing_qsw_sd               =   7.9310439395766E+01
(PID.TID 0000.0001) %MON forcing_qsw_del2             =   1.1059481284686E-01
(PID.TID 0000.0001) %MON forcing_empmr_max            =   1.8208758856008E-03
(PID.TID 0000.0001) %MON forcing_empmr_min            =  -4.4440967855388E-04
(PID.TID 0000.0001) %MON forcing_empmr_mean           =   8.4808177425716E-06
(PID.TID 0000.0001) %MON forcing_empmr_sd             =   1.2279246964352E-04
(PID.TID 0000.0001) %MON forcing_empmr_del2           =   1.9091621008519E-06
(PID.TID 0000.0001) %MON forcing_fu_max               =   2.4760613571392E-01
(PID.TID 0000.0001) %MON forcing_fu_min               =  -2.0293190974520E-01
(PID.TID 0000.0001) %MON forcing_fu_mean              =  -4.5478806648627E-03
(PID.TID 0000.0001) %MON forcing_fu_sd                =   6.3937396831278E-02
(PID.TID 0000.0001) %MON forcing_fu_del2              =   2.0509729664672E-04
(PID.TID 0000.0001) %MON forcing_fv_max               =   2.5281098043587E-01
(PID.TID 0000.0001) %MON forcing_fv_min               =  -3.2691992401999E-01
(PID.TID 0000.0001) %MON forcing_fv_mean              =  -1.3684501518858E-02
(PID.TID 0000.0001) %MON forcing_fv_sd                =   7.5153512230531E-02
(PID.TID 0000.0001) %MON forcing_fv_del2              =   2.3373863441584E-04
(PID.TID 0000.0001) %MON trAdv_CFL_u_max              =   1.0990682906290E-02
(PID.TID 0000.0001) %MON trAdv_CFL_v_max              =   1.8821353624312E-02
(PID.TID 0000.0001) %MON trAdv_CFL_w_max              =   3.9435986495824E-02
(PID.TID 0000.0001) %MON advcfl_uvel_max              =   6.8320974725272E-03
(PID.TID 0000.0001) %MON advcfl_vvel_max              =   1.8134880410000E-02
(PID.TID 0000.0001) %MON advcfl_wvel_max              =   4.3183448771184E-02
(PID.TID 0000.0001) %MON advcfl_W_hf_max              =   4.7717913244703E-02
(PID.TID 0000.0001) %MON pe_b_mean                    =   6.7173103024407E-03
(PID.TID 0000.0001) %MON ke_max                       =   8.0460487183282E-04
(PID.TID 0000.0001) %MON ke_mean                      =   1.8705840708314E-06
(PID.TID 0000.0001) %MON ke_vol                       =   1.3604176684230E+22
(PID.TID 0000.0001) %MON vort_r_min                   =  -2.2188473107612E-07
(PID.TID 0000.0001) %MON vort_r_max                   =   2.6877206922855E-07
(PID.TID 0000.0001) %MON vort_a_mean                  =  -2.0556865257795E-05
(PID.TID 0000.0001) %MON vort_a_sd                    =   7.5247374436230E-05
(PID.TID 0000.0001) %MON vort_p_mean                  =  -2.4859393568698E-05
(PID.TID 0000.0001) %MON vort_p_sd                    =   1.2919000106987E-04
(PID.TID 0000.0001) %MON surfExpan_theta_mean         =   2.2542382682795E-03
(PID.TID 0000.0001) %MON surfExpan_salt_mean          =  -1.8775680032438E-03
(PID.TID 0000.0001) // =======================================================
(PID.TID 0000.0001) // End MONITOR dynamic field statistics
(PID.TID 0000.0001) // =======================================================
(PID.TID 0000.0001) // =======================================================
(PID.TID 0000.0001) // Begin MONITOR SEAICE statistics
(PID.TID 0000.0001) // =======================================================
(PID.TID 0000.0001) %MON seaice_tsnumber              =                     1
(PID.TID 0000.0001) %MON seaice_time_sec              =   8.6400000000000E+04
(PID.TID 0000.0001) %MON seaice_uice_max              =   0.0000000000000E+00
(PID.TID 0000.0001) %MON seaice_uice_min              =   0.0000000000000E+00
(PID.TID 0000.0001) %MON seaice_uice_mean             =   0.0000000000000E+00
(PID.TID 0000.0001) %MON seaice_uice_sd               =   0.0000000000000E+00
(PID.TID 0000.0001) %MON seaice_uice_del2             =   0.0000000000000E+00
(PID.TID 0000.0001) %MON seaice_vice_max              =   0.0000000000000E+00
(PID.TID 0000.0001) %MON seaice_vice_min              =   0.0000000000000E+00
(PID.TID 0000.0001) %MON seaice_vice_mean             =   0.0000000000000E+00
(PID.TID 0000.0001) %MON seaice_vice_sd               =   0.0000000000000E+00
(PID.TID 0000.0001) %MON seaice_vice_del2             =   0.0000000000000E+00
(PID.TID 0000.0001) %MON seaice_area_max              =   3.1567419815730E-01
(PID.TID 0000.0001) %MON seaice_area_min              =   0.0000000000000E+00
(PID.TID 0000.0001) %MON seaice_area_mean             =   1.9588058271282E-03
(PID.TID 0000.0001) %MON seaice_area_sd               =   2.1474948270108E-02
(PID.TID 0000.0001) %MON seaice_area_del2             =   3.4574563287610E-04
(PID.TID 0000.0001) %MON seaice_heff_max              =   1.6992305696298E-01
(PID.TID 0000.0001) %MON seaice_heff_min              =   0.0000000000000E+00
(PID.TID 0000.0001) %MON seaice_heff_mean             =   9.8962314573597E-04
(PID.TID 0000.0001) %MON seaice_heff_sd               =   1.0887007479765E-02
(PID.TID 0000.0001) %MON seaice_heff_del2             =   1.7926889899527E-04
(PID.TID 0000.0001) %MON seaice_hsnow_max             =   0.0000000000000E+00
(PID.TID 0000.0001) %MON seaice_hsnow_min             =   0.0000000000000E+00
(PID.TID 0000.0001) %MON seaice_hsnow_mean            =   0.0000000000000E+00
(PID.TID 0000.0001) %MON seaice_hsnow_sd              =   0.0000000000000E+00
(PID.TID 0000.0001) %MON seaice_hsnow_del2            =   0.0000000000000E+00
(PID.TID 0000.0001) // =======================================================
(PID.TID 0000.0001) // End MONITOR SEAICE statistics
(PID.TID 0000.0001) // =======================================================
 EXTERNAL_FIELDS_LOAD,         1 : iP,iLd,i0,i1=   12    1   12    1 ; Wght=  0.4666666667  0.5333333333
 SEAICE_LSR: Residual Initial ipass,Uice,Vice=         1  5.09326004E-04  9.88966325E-04
 SEAICE_LSR (ipass=        1) iters,dU,Resid=       12  4.18443058E-13  1.26676847E-19
 SEAICE_LSR (ipass=        1) iters,dV,Resid=       12  2.78499446E-13  2.29219748E-19
 SEAICE_LSR: Residual Initial ipass,Uice,Vice=         2  2.86037510E-04  5.20949454E-04
 SEAICE_LSR (ipass=        2) iters,dU,Resid=       12  6.08957329E-14  9.60061306E-20
 SEAICE_LSR (ipass=        2) iters,dV,Resid=       12  4.13419299E-14  1.46269258E-19
 cg2d: Sum(rhs),rhsMax =   9.59346869867366E-02  1.59886100280117E+01
(PID.TID 0000.0001)      cg2d_init_res =   4.90653458630528E-01
(PID.TID 0000.0001)      cg2d_iters(min,last) =      -1     109
(PID.TID 0000.0001)      cg2d_last_res =   9.00448496380701E-10
(PID.TID 0000.0001) // =======================================================
(PID.TID 0000.0001) // Begin MONITOR dynamic field statistics
(PID.TID 0000.0001) // =======================================================
(PID.TID 0000.0001) %MON time_tsnumber                =                     2
(PID.TID 0000.0001) %MON time_secondsf                =   1.7280000000000E+05
(PID.TID 0000.0001) %MON dynstat_eta_max              =   1.4738511436860E+04
(PID.TID 0000.0001) %MON dynstat_eta_min              =  -1.7874167567740E+04
(PID.TID 0000.0001) %MON dynstat_eta_mean             =  -2.3163643530512E+01
(PID.TID 0000.0001) %MON dynstat_eta_sd               =   5.2121838059160E+03
(PID.TID 0000.0001) %MON dynstat_eta_del2             =   7.6739193757357E+01
(PID.TID 0000.0001) %MON dynstat_uvel_max             =   3.6897164847886E-02
(PID.TID 0000.0001) %MON dynstat_uvel_min             =  -4.4902702005951E-02
(PID.TID 0000.0001) %MON dynstat_uvel_mean            =  -3.0926263688709E-04
(PID.TID 0000.0001) %MON dynstat_uvel_sd              =   2.2724810877982E-03
(PID.TID 0000.0001) %MON dynstat_uvel_del2            =   1.2067599355882E-05
(PID.TID 0000.0001) %MON dynstat_vvel_max             =   7.3139003058988E-02
(PID.TID 0000.0001) %MON dynstat_vvel_min             =  -5.5848628978920E-02
(PID.TID 0000.0001) %MON dynstat_vvel_mean            =  -8.0645281283442E-05
(PID.TID 0000.0001) %MON dynstat_vvel_sd              =   2.3806320302986E-03
(PID.TID 0000.0001) %MON dynstat_vvel_del2            =   1.2656680519379E-05
(PID.TID 0000.0001) %MON dynstat_wvel_max             =   1.8402398836502E+00
(PID.TID 0000.0001) %MON dynstat_wvel_min             =  -2.9575113631273E+00
(PID.TID 0000.0001) %MON dynstat_wvel_mean            =   1.5038198756023E-03
(PID.TID 0000.0001) %MON dynstat_wvel_sd              =   8.8508056919122E-02
(PID.TID 0000.0001) %MON dynstat_wvel_del2            =   7.6256092955853E-04
(PID.TID 0000.0001) %MON dynstat_theta_max            =   2.9401842538681E+01
(PID.TID 0000.0001) %MON dynstat_theta_min            =  -1.8773302874190E+00
(PID.TID 0000.0001) %MON dynstat_theta_mean           =   3.5913328715241E+00
(PID.TID 0000.0001) %MON dynstat_theta_sd             =   4.4273618867121E+00
(PID.TID 0000.0001) %MON dynstat_theta_del2           =   2.1121293555162E-03
(PID.TID 0000.0001) %MON dynstat_salt_max             =   4.0715791268670E+01
(PID.TID 0000.0001) %MON dynstat_salt_min             =   1.8084371927736E+01
(PID.TID 0000.0001) %MON dynstat_salt_mean            =   3.4721466507749E+01
(PID.TID 0000.0001) %MON dynstat_salt_sd              =   4.8778690803155E-01
(PID.TID 0000.0001) %MON dynstat_salt_del2            =   5.1561080224623E-04
(PID.TID 0000.0001) %MON forcing_qnet_max             =   6.9542810299368E+02
(PID.TID 0000.0001) %MON forcing_qnet_min             =  -3.1702500219145E+02
(PID.TID 0000.0001) %MON forcing_qnet_mean            =  -2.1876335360527E+01
(PID.TID 0000.0001) %MON forcing_qnet_sd              =   1.7060754560279E+02
(PID.TID 0000.0001) %MON forcing_qnet_del2            =   1.0021946447834E+00
(PID.TID 0000.0001) %MON forcing_qsw_max              =   0.0000000000000E+00
(PID.TID 0000.0001) %MON forcing_qsw_min              =  -3.0190327619373E+02
(PID.TID 0000.0001) %MON forcing_qsw_mean             =  -1.8593263173828E+02
(PID.TID 0000.0001) %MON forcing_qsw_sd               =   7.9196898018470E+01
(PID.TID 0000.0001) %MON forcing_qsw_del2             =   1.1042682315671E-01
(PID.TID 0000.0001) %MON forcing_empmr_max            =   1.7532131025998E-03
(PID.TID 0000.0001) %MON forcing_empmr_min            =  -4.4615428816489E-04
(PID.TID 0000.0001) %MON forcing_empmr_mean           =   1.8848206319363E-05
(PID.TID 0000.0001) %MON forcing_empmr_sd             =   1.7392961349247E-04
(PID.TID 0000.0001) %MON forcing_empmr_del2           =   2.4740397922191E-06
(PID.TID 0000.0001) %MON forcing_fu_max               =   2.4755808644372E-01
(PID.TID 0000.0001) %MON forcing_fu_min               =  -2.0607770640355E-01
(PID.TID 0000.0001) %MON forcing_fu_mean              =  -4.4980739805893E-03
(PID.TID 0000.0001) %MON forcing_fu_sd                =   6.3946726618719E-02
(PID.TID 0000.0001) %MON forcing_fu_del2              =   2.0538714204808E-04
(PID.TID 0000.0001) %MON forcing_fv_max               =   2.5549422200851E-01
(PID.TID 0000.0001) %MON forcing_fv_min               =  -3.2770782795392E-01
(PID.TID 0000.0001) %MON forcing_fv_mean              =  -1.3688500786152E-02
(PID.TID 0000.0001) %MON forcing_fv_sd                =   7.5192963111683E-02
(PID.TID 0000.0001) %MON forcing_fv_del2              =   2.3383924811724E-04
(PID.TID 0000.0001) %MON trAdv_CFL_u_max              =   1.7883441524342E-02
(PID.TID 0000.0001) %MON trAdv_CFL_v_max              =   2.4851226587514E-02
(PID.TID 0000.0001) %MON trAdv_CFL_w_max              =   7.6632518505450E-02
(PID.TID 0000.0001) %MON advcfl_uvel_max              =   1.4085823133233E-02
(PID.TID 0000.0001) %MON advcfl_vvel_max              =   2.3865961706294E-02
(PID.TID 0000.0001) %MON advcfl_wvel_max              =   8.3920140135976E-02
(PID.TID 0000.0001) %MON advcfl_W_hf_max              =   9.2726065573468E-02
(PID.TID 0000.0001) %MON pe_b_mean                    =   8.9267461454329E-03
(PID.TID 0000.0001) %MON ke_max                       =   1.5964941768939E-03
(PID.TID 0000.0001) %MON ke_mean                      =   5.0486049140755E-06
(PID.TID 0000.0001) %MON ke_vol                       =   1.3604174068537E+22
(PID.TID 0000.0001) %MON vort_r_min                   =  -2.9190005177541E-07
(PID.TID 0000.0001) %MON vort_r_max                   =   4.1341191868028E-07
(PID.TID 0000.0001) %MON vort_a_mean                  =  -2.0556865257795E-05
(PID.TID 0000.0001) %MON vort_a_sd                    =   7.5247339943134E-05
(PID.TID 0000.0001) %MON vort_p_mean                  =  -2.4859329078595E-05
(PID.TID 0000.0001) %MON vort_p_sd                    =   1.2919455934097E-04
(PID.TID 0000.0001) %MON surfExpan_theta_mean         =   2.0802678892612E-02
(PID.TID 0000.0001) %MON surfExpan_salt_mean          =  -5.1073233257055E-03
(PID.TID 0000.0001) // =======================================================
(PID.TID 0000.0001) // End MONITOR dynamic field statistics
(PID.TID 0000.0001) // =======================================================
(PID.TID 0000.0001) // =======================================================
(PID.TID 0000.0001) // Begin MONITOR SEAICE statistics
(PID.TID 0000.0001) // =======================================================
(PID.TID 0000.0001) %MON seaice_tsnumber              =                     2
(PID.TID 0000.0001) %MON seaice_time_sec              =   1.7280000000000E+05
(PID.TID 0000.0001) %MON seaice_uice_max              =   7.2857473536626E-02
(PID.TID 0000.0001) %MON seaice_uice_min              =  -1.5273919456592E-01
(PID.TID 0000.0001) %MON seaice_uice_mean             =  -2.3773589354609E-04
(PID.TID 0000.0001) %MON seaice_uice_sd               =   7.3510280111700E-03
(PID.TID 0000.0001) %MON seaice_uice_del2             =   1.4122142659388E-04
(PID.TID 0000.0001) %MON seaice_vice_max              =   1.1074474840078E-01
(PID.TID 0000.0001) %MON seaice_vice_min              =  -1.1179223058406E-01
(PID.TID 0000.0001) %MON seaice_vice_mean             =   3.7552701996965E-04
(PID.TID 0000.0001) %MON seaice_vice_sd               =   1.0691983900454E-02
(PID.TID 0000.0001) %MON seaice_vice_del2             =   1.4982050517015E-04
(PID.TID 0000.0001) %MON seaice_area_max              =   5.2814927136484E-01
(PID.TID 0000.0001) %MON seaice_area_min              =   0.0000000000000E+00
(PID.TID 0000.0001) %MON seaice_area_mean             =   5.7814925269436E-03
(PID.TID 0000.0001) %MON seaice_area_sd               =   4.8192185097050E-02
(PID.TID 0000.0001) %MON seaice_area_del2             =   5.1699155127839E-04
(PID.TID 0000.0001) %MON seaice_heff_max              =   2.8822288694157E-01
(PID.TID 0000.0001) %MON seaice_heff_min              =   0.0000000000000E+00
(PID.TID 0000.0001) %MON seaice_heff_mean             =   2.9666941223518E-03
(PID.TID 0000.0001) %MON seaice_heff_sd               =   2.4874047936170E-02
(PID.TID 0000.0001) %MON seaice_heff_del2             =   2.6712275309770E-04
(PID.TID 0000.0001) %MON seaice_hsnow_max             =   7.7342497007360E-04
(PID.TID 0000.0001) %MON seaice_hsnow_min             =   0.0000000000000E+00
(PID.TID 0000.0001) %MON seaice_hsnow_mean            =   4.4739016584095E-06
(PID.TID 0000.0001) %MON seaice_hsnow_sd              =   4.8561692098528E-05
(PID.TID 0000.0001) %MON seaice_hsnow_del2            =   8.0250403414990E-07
(PID.TID 0000.0001) // =======================================================
(PID.TID 0000.0001) // End MONITOR SEAICE statistics
(PID.TID 0000.0001) // =======================================================
 EXTERNAL_FIELDS_LOAD,         2 : iP,iLd,i0,i1=   12    1   12    1 ; Wght=  0.4333333333  0.5666666667
 SEAICE_LSR: Residual Initial ipass,Uice,Vice=         1  5.59727347E-04  8.38928602E-04
 SEAICE_LSR (ipass=        1) iters,dU,Resid=       12  2.62068145E-13  2.37904645E-19
 SEAICE_LSR (ipass=        1) iters,dV,Resid=       12  1.41470169E-13  3.67846512E-19
 SEAICE_LSR: Residual Initial ipass,Uice,Vice=         2  1.57192170E-04  1.92001299E-04
 SEAICE_LSR (ipass=        2) iters,dU,Resid=       12  2.16493490E-14  1.59193753E-19
 SEAICE_LSR (ipass=        2) iters,dV,Resid=       12  3.59898743E-14  2.99854706E-19
 cg2d: Sum(rhs),rhsMax =   1.72720365145230E-01  1.58662249736055E+01
(PID.TID 0000.0001)      cg2d_init_res =   1.97136376825127E-01
(PID.TID 0000.0001)      cg2d_iters(min,last) =      -1     103
(PID.TID 0000.0001)      cg2d_last_res =   8.31596290974697E-10
(PID.TID 0000.0001) // =======================================================
(PID.TID 0000.0001) // Begin MONITOR dynamic field statistics
(PID.TID 0000.0001) // =======================================================
(PID.TID 0000.0001) %MON time_tsnumber                =                     3
(PID.TID 0000.0001) %MON time_secondsf                =   2.5920000000000E+05
(PID.TID 0000.0001) %MON dynstat_eta_max              =   1.4911685739451E+04
(PID.TID 0000.0001) %MON dynstat_eta_min              =  -2.0514159278923E+04
(PID.TID 0000.0001) %MON dynstat_eta_mean             =  -4.1384494572670E+01
(PID.TID 0000.0001) %MON dynstat_eta_sd               =   5.9496508894368E+03
(PID.TID 0000.0001) %MON dynstat_eta_del2             =   7.5642493464781E+01
(PID.TID 0000.0001) %MON dynstat_uvel_max             =   5.3716328295704E-02
(PID.TID 0000.0001) %MON dynstat_uvel_min             =  -6.4748532023169E-02
(PID.TID 0000.0001) %MON dynstat_uvel_mean            =  -4.2145664087146E-04
(PID.TID 0000.0001) %MON dynstat_uvel_sd              =   3.1723183266924E-03
(PID.TID 0000.0001) %MON dynstat_uvel_del2            =   1.7121089764054E-05
(PID.TID 0000.0001) %MON dynstat_vvel_max             =   8.8924155943887E-02
(PID.TID 0000.0001) %MON dynstat_vvel_min             =  -8.1301626398225E-02
(PID.TID 0000.0001) %MON dynstat_vvel_mean            =  -1.7034713997081E-04
(PID.TID 0000.0001) %MON dynstat_vvel_sd              =   3.2736574513942E-03
(PID.TID 0000.0001) %MON dynstat_vvel_del2            =   1.7943336550845E-05
(PID.TID 0000.0001) %MON dynstat_wvel_max             =   2.6762712440154E+00
(PID.TID 0000.0001) %MON dynstat_wvel_min             =  -4.3336539089610E+00
(PID.TID 0000.0001) %MON dynstat_wvel_mean            =   4.7805007080459E-04
(PID.TID 0000.0001) %MON dynstat_wvel_sd              =   1.2565180290228E-01
(PID.TID 0000.0001) %MON dynstat_wvel_del2            =   1.0585757840357E-03
(PID.TID 0000.0001) %MON dynstat_theta_max            =   2.9410115363688E+01
(PID.TID 0000.0001) %MON dynstat_theta_min            =  -1.8864022789148E+00
(PID.TID 0000.0001) %MON dynstat_theta_mean           =   3.5914837477474E+00
(PID.TID 0000.0001) %MON dynstat_theta_sd             =   4.4277400021477E+00
(PID.TID 0000.0001) %MON dynstat_theta_del2           =   2.0885200807628E-03
(PID.TID 0000.0001) %MON dynstat_salt_max             =   4.0715798766292E+01
(PID.TID 0000.0001) %MON dynstat_salt_min             =   1.7879702702333E+01
(PID.TID 0000.0001) %MON dynstat_salt_mean            =   3.4721482565935E+01
(PID.TID 0000.0001) %MON dynstat_salt_sd              =   4.8771095921372E-01
(PID.TID 0000.0001) %MON dynstat_salt_del2            =   5.1263294414307E-04
(PID.TID 0000.0001) %MON forcing_qnet_max             =   6.8733041597542E+02
(PID.TID 0000.0001) %MON forcing_qnet_min             =  -3.1618153095468E+02
(PID.TID 0000.0001) %MON forcing_qnet_mean            =  -2.4521606700422E+01
(PID.TID 0000.0001) %MON forcing_qnet_sd              =   1.6478198231236E+02
(PID.TID 0000.0001) %MON forcing_qnet_del2            =   1.1174684186242E+00
(PID.TID 0000.0001) %MON forcing_qsw_max              =   0.0000000000000E+00
(PID.TID 0000.0001) %MON forcing_qsw_min              =  -3.0189127925792E+02
(PID.TID 0000.0001) %MON forcing_qsw_mean             =  -1.8593879213683E+02
(PID.TID 0000.0001) %MON forcing_qsw_sd               =   7.9086030748724E+01
(PID.TID 0000.0001) %MON forcing_qsw_del2             =   1.1032203144652E-01
(PID.TID 0000.0001) %MON forcing_empmr_max            =   1.7806757526464E-03
(PID.TID 0000.0001) %MON forcing_empmr_min            =  -4.4791126922564E-04
(PID.TID 0000.0001) %MON forcing_empmr_mean           =   2.1497398537676E-05
(PID.TID 0000.0001) %MON forcing_empmr_sd             =   1.7629738770194E-04
(PID.TID 0000.0001) %MON forcing_empmr_del2           =   2.7013278178853E-06
(PID.TID 0000.0001) %MON forcing_fu_max               =   2.4751003717351E-01
(PID.TID 0000.0001) %MON forcing_fu_min               =  -2.0922350306190E-01
(PID.TID 0000.0001) %MON forcing_fu_mean              =  -4.4448172792129E-03
(PID.TID 0000.0001) %MON forcing_fu_sd                =   6.3964317409329E-02
(PID.TID 0000.0001) %MON forcing_fu_del2              =   2.0566913932121E-04
(PID.TID 0000.0001) %MON forcing_fv_max               =   2.5817746358114E-01
(PID.TID 0000.0001) %MON forcing_fv_min               =  -3.2849573188785E-01
(PID.TID 0000.0001) %MON forcing_fv_mean              =  -1.3690445127129E-02
(PID.TID 0000.0001) %MON forcing_fv_sd                =   7.5246419358976E-02
(PID.TID 0000.0001) %MON forcing_fv_del2              =   2.3423436476476E-04
(PID.TID 0000.0001) %MON trAdv_CFL_u_max              =   2.4031983416921E-02
(PID.TID 0000.0001) %MON trAdv_CFL_v_max              =   3.1803927878383E-02
(PID.TID 0000.0001) %MON trAdv_CFL_w_max              =   1.1210247438687E-01
(PID.TID 0000.0001) %MON advcfl_uvel_max              =   1.9882479980269E-02
(PID.TID 0000.0001) %MON advcfl_vvel_max              =   2.5139009387989E-02
(PID.TID 0000.0001) %MON advcfl_wvel_max              =   1.2275879856272E-01
(PID.TID 0000.0001) %MON advcfl_W_hf_max              =   1.3564504460604E-01
(PID.TID 0000.0001) %MON pe_b_mean                    =   9.6258315646690E-03
(PID.TID 0000.0001) %MON ke_max                       =   2.6636599343132E-03
(PID.TID 0000.0001) %MON ke_mean                      =   9.6901124294539E-06
(PID.TID 0000.0001) %MON ke_vol                       =   1.3604168255287E+22
(PID.TID 0000.0001) %MON vort_r_min                   =  -3.9360560018005E-07
(PID.TID 0000.0001) %MON vort_r_max                   =   4.8391564593567E-07
(PID.TID 0000.0001) %MON vort_a_mean                  =  -2.0556865257795E-05
(PID.TID 0000.0001) %MON vort_a_sd                    =   7.5247327401340E-05
(PID.TID 0000.0001) %MON vort_p_mean                  =  -2.4859309369057E-05
(PID.TID 0000.0001) %MON vort_p_sd                    =   1.2919897060446E-04
(PID.TID 0000.0001) %MON surfExpan_theta_mean         =   1.8366333640387E-02
(PID.TID 0000.0001) %MON surfExpan_salt_mean          =  -6.3234633023091E-03
(PID.TID 0000.0001) // =======================================================
(PID.TID 0000.0001) // End MONITOR dynamic field statistics
(PID.TID 0000.0001) // =======================================================
(PID.TID 0000.0001) // =======================================================
(PID.TID 0000.0001) // Begin MONITOR SEAICE statistics
(PID.TID 0000.0001) // =======================================================
(PID.TID 0000.0001) %MON seaice_tsnumber              =                     3
(PID.TID 0000.0001) %MON seaice_time_sec              =   2.5920000000000E+05
(PID.TID 0000.0001) %MON seaice_uice_max              =   1.2667400074552E-01
(PID.TID 0000.0001) %MON seaice_uice_min              =  -1.8268033452870E-01
(PID.TID 0000.0001) %MON seaice_uice_mean             =  -2.9337323229623E-04
(PID.TID 0000.0001) %MON seaice_uice_sd               =   9.5321332264047E-03
(PID.TID 0000.0001) %MON seaice_uice_del2             =   2.0485492214530E-04
(PID.TID 0000.0001) %MON seaice_vice_max              =   1.4010719405574E-01
(PID.TID 0000.0001) %MON seaice_vice_min              =  -1.5095448704136E-01
(PID.TID 0000.0001) %MON seaice_vice_mean             =   8.7466379023265E-04
(PID.TID 0000.0001) %MON seaice_vice_sd               =   1.3439224773246E-02
(PID.TID 0000.0001) %MON seaice_vice_del2             =   1.2869667686544E-04
(PID.TID 0000.0001) %MON seaice_area_max              =   6.7842603383040E-01
(PID.TID 0000.0001) %MON seaice_area_min              =   0.0000000000000E+00
(PID.TID 0000.0001) %MON seaice_area_mean             =   9.8837741048213E-03
(PID.TID 0000.0001) %MON seaice_area_sd               =   7.2946906814711E-02
(PID.TID 0000.0001) %MON seaice_area_del2             =   7.4107745617245E-04
(PID.TID 0000.0001) %MON seaice_heff_max              =   3.7937230868168E-01
(PID.TID 0000.0001) %MON seaice_heff_min              =   0.0000000000000E+00
(PID.TID 0000.0001) %MON seaice_heff_mean             =   5.2069369408964E-03
(PID.TID 0000.0001) %MON seaice_heff_sd               =   3.8714506943437E-02
(PID.TID 0000.0001) %MON seaice_heff_del2             =   3.8868609281153E-04
(PID.TID 0000.0001) %MON seaice_hsnow_max             =   1.8512877848203E-03
(PID.TID 0000.0001) %MON seaice_hsnow_min             =   0.0000000000000E+00
(PID.TID 0000.0001) %MON seaice_hsnow_mean            =   1.5441557433184E-05
(PID.TID 0000.0001) %MON seaice_hsnow_sd              =   1.3287971989575E-04
(PID.TID 0000.0001) %MON seaice_hsnow_del2            =   1.7204906343837E-06
(PID.TID 0000.0001) // =======================================================
(PID.TID 0000.0001) // End MONITOR SEAICE statistics
(PID.TID 0000.0001) // =======================================================
 EXTERNAL_FIELDS_LOAD,         3 : iP,iLd,i0,i1=   12    1   12    1 ; Wght=  0.4000000000  0.6000000000
 SEAICE_LSR: Residual Initial ipass,Uice,Vice=         1  2.75449438E-04  3.97850208E-04
 SEAICE_LSR (ipass=        1) iters,dU,Resid=       12  2.83661983E-14  1.84472852E-19
 SEAICE_LSR (ipass=        1) iters,dV,Resid=       12  7.24177662E-14  4.13548127E-19
 SEAICE_LSR: Residual Initial ipass,Uice,Vice=         2  9.54955467E-05  8.90169992E-05
 SEAICE_LSR (ipass=        2) iters,dU,Resid=       12  1.72084569E-15  3.01922178E-19
 SEAICE_LSR (ipass=        2) iters,dV,Resid=       12  3.50119239E-14  5.32601713E-19
 cg2d: Sum(rhs),rhsMax =   2.47090979509598E-01  1.58658942469460E+01
(PID.TID 0000.0001)      cg2d_init_res =   1.09656596559833E-01
(PID.TID 0000.0001)      cg2d_iters(min,last) =      -1     103
(PID.TID 0000.0001)      cg2d_last_res =   9.07091501529294E-10
(PID.TID 0000.0001) // =======================================================
(PID.TID 0000.0001) // Begin MONITOR dynamic field statistics
(PID.TID 0000.0001) // =======================================================
(PID.TID 0000.0001) %MON time_tsnumber                =                     4
(PID.TID 0000.0001) %MON time_secondsf                =   3.4560000000000E+05
(PID.TID 0000.0001) %MON dynstat_eta_max              =   1.4669302984048E+04
(PID.TID 0000.0001) %MON dynstat_eta_min              =  -2.0853950539385E+04
(PID.TID 0000.0001) %MON dynstat_eta_mean             =  -5.9202758976992E+01
(PID.TID 0000.0001) %MON dynstat_eta_sd               =   6.2669996637272E+03
(PID.TID 0000.0001) %MON dynstat_eta_del2             =   7.5344096084908E+01
(PID.TID 0000.0001) %MON dynstat_uvel_max             =   6.9191993089990E-02
(PID.TID 0000.0001) %MON dynstat_uvel_min             =  -8.2662885344965E-02
(PID.TID 0000.0001) %MON dynstat_uvel_mean            =  -4.3565788829580E-04
(PID.TID 0000.0001) %MON dynstat_uvel_sd              =   4.0904587522411E-03
(PID.TID 0000.0001) %MON dynstat_uvel_del2            =   2.1904312583606E-05
(PID.TID 0000.0001) %MON dynstat_vvel_max             =   1.1490267747700E-01
(PID.TID 0000.0001) %MON dynstat_vvel_min             =  -1.0495542315757E-01
(PID.TID 0000.0001) %MON dynstat_vvel_mean            =  -2.8662906863270E-04
(PID.TID 0000.0001) %MON dynstat_vvel_sd              =   4.1949193469790E-03
(PID.TID 0000.0001) %MON dynstat_vvel_del2            =   2.2886816397848E-05
(PID.TID 0000.0001) %MON dynstat_wvel_max             =   3.4368329080550E+00
(PID.TID 0000.0001) %MON dynstat_wvel_min             =  -5.6389699828997E+00
(PID.TID 0000.0001) %MON dynstat_wvel_mean            =   7.9630426238566E-05
(PID.TID 0000.0001) %MON dynstat_wvel_sd              =   1.5990620882160E-01
(PID.TID 0000.0001) %MON dynstat_wvel_del2            =   1.3184065530639E-03
(PID.TID 0000.0001) %MON dynstat_theta_max            =   2.9417665509809E+01
(PID.TID 0000.0001) %MON dynstat_theta_min            =  -1.8887976831301E+00
(PID.TID 0000.0001) %MON dynstat_theta_mean           =   3.5916549001815E+00
(PID.TID 0000.0001) %MON dynstat_theta_sd             =   4.4280630296731E+00
(PID.TID 0000.0001) %MON dynstat_theta_del2           =   2.1041223943891E-03
(PID.TID 0000.0001) %MON dynstat_salt_max             =   4.0715804396832E+01
(PID.TID 0000.0001) %MON dynstat_salt_min             =   1.7642462994680E+01
(PID.TID 0000.0001) %MON dynstat_salt_mean            =   3.4721498841981E+01
(PID.TID 0000.0001) %MON dynstat_salt_sd              =   4.8760261174936E-01
(PID.TID 0000.0001) %MON dynstat_salt_del2            =   5.1610552592705E-04
(PID.TID 0000.0001) %MON forcing_qnet_max             =   6.7998692872676E+02
(PID.TID 0000.0001) %MON forcing_qnet_min             =  -3.1530822170634E+02
(PID.TID 0000.0001) %MON forcing_qnet_mean            =  -2.5977650294215E+01
(PID.TID 0000.0001) %MON forcing_qnet_sd              =   1.6014891328112E+02
(PID.TID 0000.0001) %MON forcing_qnet_del2            =   9.6427221548549E-01
(PID.TID 0000.0001) %MON forcing_qsw_max              =   0.0000000000000E+00
(PID.TID 0000.0001) %MON forcing_qsw_min              =  -3.0187928232211E+02
(PID.TID 0000.0001) %MON forcing_qsw_mean             =  -1.8594494411065E+02
(PID.TID 0000.0001) %MON forcing_qsw_sd               =   7.8977862677447E+01
(PID.TID 0000.0001) %MON forcing_qsw_del2             =   1.1028061737651E-01
(PID.TID 0000.0001) %MON forcing_empmr_max            =   1.6309507319343E-03
(PID.TID 0000.0001) %MON forcing_empmr_min            =  -4.4968030064917E-04
(PID.TID 0000.0001) %MON forcing_empmr_mean           =   2.1022417134258E-05
(PID.TID 0000.0001) %MON forcing_empmr_sd             =   1.6052978655284E-04
(PID.TID 0000.0001) %MON forcing_empmr_del2           =   1.9661515452020E-06
(PID.TID 0000.0001) %MON forcing_fu_max               =   2.4746198790331E-01
(PID.TID 0000.0001) %MON forcing_fu_min               =  -2.1236929972025E-01
(PID.TID 0000.0001) %MON forcing_fu_mean              =  -4.3914252010474E-03
(PID.TID 0000.0001) %MON forcing_fu_sd                =   6.3996316474096E-02
(PID.TID 0000.0001) %MON forcing_fu_del2              =   2.0635449643960E-04
(PID.TID 0000.0001) %MON forcing_fv_max               =   2.6086070515377E-01
(PID.TID 0000.0001) %MON forcing_fv_min               =  -3.2928363582178E-01
(PID.TID 0000.0001) %MON forcing_fv_mean              =  -1.3691744618828E-02
(PID.TID 0000.0001) %MON forcing_fv_sd                =   7.5311667712328E-02
(PID.TID 0000.0001) %MON forcing_fv_del2              =   2.3489005303364E-04
(PID.TID 0000.0001) %MON trAdv_CFL_u_max              =   3.0721499468972E-02
(PID.TID 0000.0001) %MON trAdv_CFL_v_max              =   4.1479028051208E-02
(PID.TID 0000.0001) %MON trAdv_CFL_w_max              =   1.4573144140841E-01
(PID.TID 0000.0001) %MON advcfl_uvel_max              =   2.5302970972748E-02
(PID.TID 0000.0001) %MON advcfl_vvel_max              =   3.2483181393614E-02
(PID.TID 0000.0001) %MON advcfl_wvel_max              =   1.5958780638892E-01
(PID.TID 0000.0001) %MON advcfl_W_hf_max              =   1.7633640986485E-01
(PID.TID 0000.0001) %MON pe_b_mean                    =   9.8385092499126E-03
(PID.TID 0000.0001) %MON ke_max                       =   4.3792649199828E-03
(PID.TID 0000.0001) %MON ke_mean                      =   1.5975860126440E-05
(PID.TID 0000.0001) %MON ke_vol                       =   1.3604161624961E+22
(PID.TID 0000.0001) %MON vort_r_min                   =  -4.4610944738009E-07
(PID.TID 0000.0001) %MON vort_r_max                   =   5.1783156045821E-07
(PID.TID 0000.0001) %MON vort_a_mean                  =  -2.0556865257795E-05
(PID.TID 0000.0001) %MON vort_a_sd                    =   7.5247333307604E-05
(PID.TID 0000.0001) %MON vort_p_mean                  =  -2.4859309783428E-05
(PID.TID 0000.0001) %MON vort_p_sd                    =   1.2920196182807E-04
(PID.TID 0000.0001) %MON surfExpan_theta_mean         =   1.2703025380232E-02
(PID.TID 0000.0001) %MON surfExpan_salt_mean          =  -6.6738029773721E-03
(PID.TID 0000.0001) // =======================================================
(PID.TID 0000.0001) // End MONITOR dynamic field statistics
(PID.TID 0000.0001) // =======================================================
(PID.TID 0000.0001) // =======================================================
(PID.TID 0000.0001) // Begin MONITOR SEAICE statistics
(PID.TID 0000.0001) // =======================================================
(PID.TID 0000.0001) %MON seaice_tsnumber              =                     4
(PID.TID 0000.0001) %MON seaice_time_sec              =   3.4560000000000E+05
(PID.TID 0000.0001) %MON seaice_uice_max              =   1.0862608692244E-01
(PID.TID 0000.0001) %MON seaice_uice_min              =  -1.9510402090160E-01
(PID.TID 0000.0001) %MON seaice_uice_mean             =  -2.5251597452207E-04
(PID.TID 0000.0001) %MON seaice_uice_sd               =   9.6320364796305E-03
(PID.TID 0000.0001) %MON seaice_uice_del2             =   1.8951997363452E-04
(PID.TID 0000.0001) %MON seaice_vice_max              =   1.4551667559748E-01
(PID.TID 0000.0001) %MON seaice_vice_min              =  -1.6750964736423E-01
(PID.TID 0000.0001) %MON seaice_vice_mean             =   9.2263725220525E-04
(PID.TID 0000.0001) %MON seaice_vice_sd               =   1.4132833164830E-02
(PID.TID 0000.0001) %MON seaice_vice_del2             =   1.1790202260038E-04
(PID.TID 0000.0001) %MON seaice_area_max              =   7.8627890829838E-01
(PID.TID 0000.0001) %MON seaice_area_min              =   0.0000000000000E+00
(PID.TID 0000.0001) %MON seaice_area_mean             =   1.3610193956377E-02
(PID.TID 0000.0001) %MON seaice_area_sd               =   9.3139948997356E-02
(PID.TID 0000.0001) %MON seaice_area_del2             =   8.1836102136572E-04
(PID.TID 0000.0001) %MON seaice_heff_max              =   4.5240551597854E-01
(PID.TID 0000.0001) %MON seaice_heff_min              =   0.0000000000000E+00
(PID.TID 0000.0001) %MON seaice_heff_mean             =   7.4084110269671E-03
(PID.TID 0000.0001) %MON seaice_heff_sd               =   5.1201401943386E-02
(PID.TID 0000.0001) %MON seaice_heff_del2             =   4.4968168131472E-04
(PID.TID 0000.0001) %MON seaice_hsnow_max             =   3.6147860309587E-03
(PID.TID 0000.0001) %MON seaice_hsnow_min             =   0.0000000000000E+00
(PID.TID 0000.0001) %MON seaice_hsnow_mean            =   3.3589561510891E-05
(PID.TID 0000.0001) %MON seaice_hsnow_sd              =   2.6960503782333E-04
(PID.TID 0000.0001) %MON seaice_hsnow_del2            =   3.5043452938791E-06
(PID.TID 0000.0001) // =======================================================
(PID.TID 0000.0001) // End MONITOR SEAICE statistics
(PID.TID 0000.0001) // =======================================================
 EXTERNAL_FIELDS_LOAD,         4 : iP,iLd,i0,i1=   12    1   12    1 ; Wght=  0.3666666667  0.6333333333
 SEAICE_LSR: Residual Initial ipass,Uice,Vice=         1  5.04495208E-04  3.82002484E-04
 SEAICE_LSR (ipass=        1) iters,dU,Resid=       12  6.02629058E-13  5.44002763E-19
 SEAICE_LSR (ipass=        1) iters,dV,Resid=       12  8.51679838E-14  8.52642008E-19
 SEAICE_LSR: Residual Initial ipass,Uice,Vice=         2  5.44823054E-04  1.17459332E-04
 SEAICE_LSR (ipass=        2) iters,dU,Resid=       12  9.44799794E-14  3.93099681E-19
 SEAICE_LSR (ipass=        2) iters,dV,Resid=       12  3.29319905E-14  7.67884034E-19
 cg2d: Sum(rhs),rhsMax =   3.08772420010767E-01  1.58703176989285E+01
(PID.TID 0000.0001)      cg2d_init_res =   9.51761037324775E-02
(PID.TID 0000.0001)      cg2d_iters(min,last) =      -1     103
(PID.TID 0000.0001)      cg2d_last_res =   8.02477276695779E-10
(PID.TID 0000.0001) // =======================================================
(PID.TID 0000.0001) // Begin MONITOR dynamic field statistics
(PID.TID 0000.0001) // =======================================================
(PID.TID 0000.0001) %MON time_tsnumber                =                     5
(PID.TID 0000.0001) %MON time_secondsf                =   4.3200000000000E+05
(PID.TID 0000.0001) %MON dynstat_eta_max              =   1.2506497325483E+04
(PID.TID 0000.0001) %MON dynstat_eta_min              =  -2.0553242736102E+04
(PID.TID 0000.0001) %MON dynstat_eta_mean             =  -7.4002198533253E+01
(PID.TID 0000.0001) %MON dynstat_eta_sd               =   6.3724539764323E+03
(PID.TID 0000.0001) %MON dynstat_eta_del2             =   7.5332270092824E+01
(PID.TID 0000.0001) %MON dynstat_uvel_max             =   8.4135197826917E-02
(PID.TID 0000.0001) %MON dynstat_uvel_min             =  -1.0036442183054E-01
(PID.TID 0000.0001) %MON dynstat_uvel_mean            =  -3.6885096112041E-04
(PID.TID 0000.0001) %MON dynstat_uvel_sd              =   4.9957383823490E-03
(PID.TID 0000.0001) %MON dynstat_uvel_del2            =   2.6238212380372E-05
(PID.TID 0000.0001) %MON dynstat_vvel_max             =   1.3860152189187E-01
(PID.TID 0000.0001) %MON dynstat_vvel_min             =  -1.2694110034631E-01
(PID.TID 0000.0001) %MON dynstat_vvel_mean            =  -3.9582751138055E-04
(PID.TID 0000.0001) %MON dynstat_vvel_sd              =   5.1234020325728E-03
(PID.TID 0000.0001) %MON dynstat_vvel_del2            =   2.7292440428458E-05
(PID.TID 0000.0001) %MON dynstat_wvel_max             =   4.1034558935862E+00
(PID.TID 0000.0001) %MON dynstat_wvel_min             =  -6.8421539625706E+00
(PID.TID 0000.0001) %MON dynstat_wvel_mean            =  -9.1630977359275E-05
(PID.TID 0000.0001) %MON dynstat_wvel_sd              =   1.9046319970677E-01
(PID.TID 0000.0001) %MON dynstat_wvel_del2            =   1.5382090545202E-03
(PID.TID 0000.0001) %MON dynstat_theta_max            =   2.9424555387960E+01
(PID.TID 0000.0001) %MON dynstat_theta_min            =  -1.8937488935019E+00
(PID.TID 0000.0001) %MON dynstat_theta_mean           =   3.5918238410470E+00
(PID.TID 0000.0001) %MON dynstat_theta_sd             =   4.4284660075925E+00
(PID.TID 0000.0001) %MON dynstat_theta_del2           =   2.0805279072551E-03
(PID.TID 0000.0001) %MON dynstat_salt_max             =   4.0715806943909E+01
(PID.TID 0000.0001) %MON dynstat_salt_min             =   1.7383990185800E+01
(PID.TID 0000.0001) %MON dynstat_salt_mean            =   3.4721511999910E+01
(PID.TID 0000.0001) %MON dynstat_salt_sd              =   4.8753963867455E-01
(PID.TID 0000.0001) %MON dynstat_salt_del2            =   5.1237092682948E-04
(PID.TID 0000.0001) %MON forcing_qnet_max             =   1.4406760563110E+03
(PID.TID 0000.0001) %MON forcing_qnet_min             =  -3.1441084972961E+02
(PID.TID 0000.0001) %MON forcing_qnet_mean            =  -2.6419105702771E+01
(PID.TID 0000.0001) %MON forcing_qnet_sd              =   1.5898461085332E+02
(PID.TID 0000.0001) %MON forcing_qnet_del2            =   1.3484000629387E+00
(PID.TID 0000.0001) %MON forcing_qsw_max              =   0.0000000000000E+00
(PID.TID 0000.0001) %MON forcing_qsw_min              =  -3.0186728538630E+02
(PID.TID 0000.0001) %MON forcing_qsw_mean             =  -1.8595109422160E+02
(PID.TID 0000.0001) %MON forcing_qsw_sd               =   7.8872389445960E+01
(PID.TID 0000.0001) %MON forcing_qsw_del2             =   1.1030265383696E-01
(PID.TID 0000.0001) %MON forcing_empmr_max            =   1.8652828798603E-03
(PID.TID 0000.0001) %MON forcing_empmr_min            =  -3.5442924992507E-03
(PID.TID 0000.0001) %MON forcing_empmr_mean           =   1.7460734931597E-05
(PID.TID 0000.0001) %MON forcing_empmr_sd             =   1.6157073889302E-04
(PID.TID 0000.0001) %MON forcing_empmr_del2           =   3.7242247545981E-06
(PID.TID 0000.0001) %MON forcing_fu_max               =   2.4741393863310E-01
(PID.TID 0000.0001) %MON forcing_fu_min               =  -2.1551509637860E-01
(PID.TID 0000.0001) %MON forcing_fu_mean              =  -4.3389014444529E-03
(PID.TID 0000.0001) %MON forcing_fu_sd                =   6.4042672219711E-02
(PID.TID 0000.0001) %MON forcing_fu_del2              =   2.0718964531577E-04
(PID.TID 0000.0001) %MON forcing_fv_max               =   2.6354394672640E-01
(PID.TID 0000.0001) %MON forcing_fv_min               =  -3.3007153975572E-01
(PID.TID 0000.0001) %MON forcing_fv_mean              =  -1.3692791095216E-02
(PID.TID 0000.0001) %MON forcing_fv_sd                =   7.5386078163802E-02
(PID.TID 0000.0001) %MON forcing_fv_del2              =   2.3570998524617E-04
(PID.TID 0000.0001) %MON trAdv_CFL_u_max              =   3.7016215201539E-02
(PID.TID 0000.0001) %MON trAdv_CFL_v_max              =   5.0444060361544E-02
(PID.TID 0000.0001) %MON trAdv_CFL_w_max              =   1.7662878114623E-01
(PID.TID 0000.0001) %MON advcfl_uvel_max              =   3.1125806227575E-02
(PID.TID 0000.0001) %MON advcfl_vvel_max              =   3.9182884819599E-02
(PID.TID 0000.0001) %MON advcfl_wvel_max              =   1.9343514234866E-01
(PID.TID 0000.0001) %MON advcfl_W_hf_max              =   2.1372248051018E-01
(PID.TID 0000.0001) %MON pe_b_mean                    =   9.8712732523892E-03
(PID.TID 0000.0001) %MON ke_max                       =   6.4491113831355E-03
(PID.TID 0000.0001) %MON ke_mean                      =   2.3778467238475E-05
(PID.TID 0000.0001) %MON ke_vol                       =   1.3604155141131E+22
(PID.TID 0000.0001) %MON vort_r_min                   =  -5.0483975704615E-07
(PID.TID 0000.0001) %MON vort_r_max                   =   5.4711631660503E-07
(PID.TID 0000.0001) %MON vort_a_mean                  =  -2.0556865257795E-05
(PID.TID 0000.0001) %MON vort_a_sd                    =   7.5247350860451E-05
(PID.TID 0000.0001) %MON vort_p_mean                  =  -2.4859319023987E-05
(PID.TID 0000.0001) %MON vort_p_sd                    =   1.2920359347732E-04
(PID.TID 0000.0001) %MON surfExpan_theta_mean         =   8.2614398774470E-03
(PID.TID 0000.0001) %MON surfExpan_salt_mean          =  -5.8166040123136E-03
(PID.TID 0000.0001) // =======================================================
(PID.TID 0000.0001) // End MONITOR dynamic field statistics
(PID.TID 0000.0001) // =======================================================
(PID.TID 0000.0001) // =======================================================
(PID.TID 0000.0001) // Begin MONITOR SEAICE statistics
(PID.TID 0000.0001) // =======================================================
(PID.TID 0000.0001) %MON seaice_tsnumber              =                     5
(PID.TID 0000.0001) %MON seaice_time_sec              =   4.3200000000000E+05
(PID.TID 0000.0001) %MON seaice_uice_max              =   1.3095635437055E-01
(PID.TID 0000.0001) %MON seaice_uice_min              =  -2.0957868958948E-01
(PID.TID 0000.0001) %MON seaice_uice_mean             =  -4.6946350734590E-04
(PID.TID 0000.0001) %MON seaice_uice_sd               =   1.1928659764790E-02
(PID.TID 0000.0001) %MON seaice_uice_del2             =   1.7609900994097E-04
(PID.TID 0000.0001) %MON seaice_vice_max              =   1.5840678972537E-01
(PID.TID 0000.0001) %MON seaice_vice_min              =  -1.6399407462141E-01
(PID.TID 0000.0001) %MON seaice_vice_mean             =   1.0163199530535E-03
(PID.TID 0000.0001) %MON seaice_vice_sd               =   1.5006302432921E-02
(PID.TID 0000.0001) %MON seaice_vice_del2             =   1.1331734163377E-04
(PID.TID 0000.0001) %MON seaice_area_max              =   8.6150414172162E-01
(PID.TID 0000.0001) %MON seaice_area_min              =   0.0000000000000E+00
(PID.TID 0000.0001) %MON seaice_area_mean             =   1.6704699494478E-02
(PID.TID 0000.0001) %MON seaice_area_sd               =   1.0877238604962E-01
(PID.TID 0000.0001) %MON seaice_area_del2             =   9.8370301541492E-04
(PID.TID 0000.0001) %MON seaice_heff_max              =   5.1955260437582E-01
(PID.TID 0000.0001) %MON seaice_heff_min              =   0.0000000000000E+00
(PID.TID 0000.0001) %MON seaice_heff_mean             =   9.2813422680478E-03
(PID.TID 0000.0001) %MON seaice_heff_sd               =   6.1435544563495E-02
(PID.TID 0000.0001) %MON seaice_heff_del2             =   5.3056606297004E-04
(PID.TID 0000.0001) %MON seaice_hsnow_max             =   6.0916349125684E-03
(PID.TID 0000.0001) %MON seaice_hsnow_min             =   0.0000000000000E+00
(PID.TID 0000.0001) %MON seaice_hsnow_mean            =   5.6922032700247E-05
(PID.TID 0000.0001) %MON seaice_hsnow_sd              =   4.3945630059991E-04
(PID.TID 0000.0001) %MON seaice_hsnow_del2            =   7.3347098792098E-06
(PID.TID 0000.0001) // =======================================================
(PID.TID 0000.0001) // End MONITOR SEAICE statistics
(PID.TID 0000.0001) // =======================================================
 EXTERNAL_FIELDS_LOAD,         5 : iP,iLd,i0,i1=   12    1   12    1 ; Wght=  0.3333333333  0.6666666667
 SEAICE_LSR: Residual Initial ipass,Uice,Vice=         1  7.85889999E-04  3.72192405E-04
 SEAICE_LSR (ipass=        1) iters,dU,Resid=       12  2.80830914E-13  2.23303466E-16
 SEAICE_LSR (ipass=        1) iters,dV,Resid=       12  9.65456881E-13  2.01934359E-16
 SEAICE_LSR: Residual Initial ipass,Uice,Vice=         2  2.09208762E-04  8.23985257E-05
 SEAICE_LSR (ipass=        2) iters,dU,Resid=       12  6.43964049E-14  1.00298558E-16
 SEAICE_LSR (ipass=        2) iters,dV,Resid=       12  1.36800293E-13  4.22317679E-17
 cg2d: Sum(rhs),rhsMax =   3.73916352420951E-01  1.58684647824735E+01
(PID.TID 0000.0001)      cg2d_init_res =   9.00213112093060E-02
(PID.TID 0000.0001)      cg2d_iters(min,last) =      -1     103
(PID.TID 0000.0001)      cg2d_last_res =   8.11064931608945E-10
(PID.TID 0000.0001) // =======================================================
(PID.TID 0000.0001) // Begin MONITOR dynamic field statistics
(PID.TID 0000.0001) // =======================================================
(PID.TID 0000.0001) %MON time_tsnumber                =                     6
(PID.TID 0000.0001) %MON time_secondsf                =   5.1840000000000E+05
(PID.TID 0000.0001) %MON dynstat_eta_max              =   1.2635138165068E+04
(PID.TID 0000.0001) %MON dynstat_eta_min              =  -2.0285000064883E+04
(PID.TID 0000.0001) %MON dynstat_eta_mean             =  -8.9604510338948E+01
(PID.TID 0000.0001) %MON dynstat_eta_sd               =   6.3864553939293E+03
(PID.TID 0000.0001) %MON dynstat_eta_del2             =   7.5449276782251E+01
(PID.TID 0000.0001) %MON dynstat_uvel_max             =   9.7936167704286E-02
(PID.TID 0000.0001) %MON dynstat_uvel_min             =  -1.1709694810041E-01
(PID.TID 0000.0001) %MON dynstat_uvel_mean            =  -2.5752922732913E-04
(PID.TID 0000.0001) %MON dynstat_uvel_sd              =   5.8735410035055E-03
(PID.TID 0000.0001) %MON dynstat_uvel_del2            =   3.0020497593933E-05
(PID.TID 0000.0001) %MON dynstat_vvel_max             =   1.5970740600827E-01
(PID.TID 0000.0001) %MON dynstat_vvel_min             =  -1.4681328332892E-01
(PID.TID 0000.0001) %MON dynstat_vvel_mean            =  -4.6922613655288E-04
(PID.TID 0000.0001) %MON dynstat_vvel_sd              =   6.0348481286574E-03
(PID.TID 0000.0001) %MON dynstat_vvel_del2            =   3.1094818533321E-05
(PID.TID 0000.0001) %MON dynstat_wvel_max             =   4.6621094689478E+00
(PID.TID 0000.0001) %MON dynstat_wvel_min             =  -7.9189796295402E+00
(PID.TID 0000.0001) %MON dynstat_wvel_mean            =  -1.4198989156848E-04
(PID.TID 0000.0001) %MON dynstat_wvel_sd              =   2.1672283008271E-01
(PID.TID 0000.0001) %MON dynstat_wvel_del2            =   1.7156283477785E-03
(PID.TID 0000.0001) %MON dynstat_theta_max            =   2.9430847007203E+01
(PID.TID 0000.0001) %MON dynstat_theta_min            =  -1.8962774342896E+00
(PID.TID 0000.0001) %MON dynstat_theta_mean           =   3.5919960576195E+00
(PID.TID 0000.0001) %MON dynstat_theta_sd             =   4.4288471374967E+00
(PID.TID 0000.0001) %MON dynstat_theta_del2           =   2.0813164857848E-03
(PID.TID 0000.0001) %MON dynstat_salt_max             =   4.0715802342218E+01
(PID.TID 0000.0001) %MON dynstat_salt_min             =   1.7108869323441E+01
(PID.TID 0000.0001) %MON dynstat_salt_mean            =   3.4721525013638E+01
(PID.TID 0000.0001) %MON dynstat_salt_sd              =   4.8747710559657E-01
(PID.TID 0000.0001) %MON dynstat_salt_del2            =   5.1072550595231E-04
(PID.TID 0000.0001) %MON forcing_qnet_max             =   6.7056507441370E+02
(PID.TID 0000.0001) %MON forcing_qnet_min             =  -3.1347738067148E+02
(PID.TID 0000.0001) %MON forcing_qnet_mean            =  -2.7790636494368E+01
(PID.TID 0000.0001) %MON forcing_qnet_sd              =   1.5331728732925E+02
(PID.TID 0000.0001) %MON forcing_qnet_del2            =   8.6374401972489E-01
(PID.TID 0000.0001) %MON forcing_qsw_max              =   0.0000000000000E+00
(PID.TID 0000.0001) %MON forcing_qsw_min              =  -3.0185528845048E+02
(PID.TID 0000.0001) %MON forcing_qsw_mean             =  -1.8595720334745E+02
(PID.TID 0000.0001) %MON forcing_qsw_sd               =   7.8769714009106E+01
(PID.TID 0000.0001) %MON forcing_qsw_del2             =   1.1038814343374E-01
(PID.TID 0000.0001) %MON forcing_empmr_max            =   1.5959862747674E-03
(PID.TID 0000.0001) %MON forcing_empmr_min            =  -4.5325311804606E-04
(PID.TID 0000.0001) %MON forcing_empmr_mean           =   1.8407982932302E-05
(PID.TID 0000.0001) %MON forcing_empmr_sd             =   1.3871149021613E-04
(PID.TID 0000.0001) %MON forcing_empmr_del2           =   1.8017652255047E-06
(PID.TID 0000.0001) %MON forcing_fu_max               =   2.4736588936290E-01
(PID.TID 0000.0001) %MON forcing_fu_min               =  -2.1866089303695E-01
(PID.TID 0000.0001) %MON forcing_fu_mean              =  -4.2899427981439E-03
(PID.TID 0000.0001) %MON forcing_fu_sd                =   6.4103638854372E-02
(PID.TID 0000.0001) %MON forcing_fu_del2              =   2.0828939262688E-04
(PID.TID 0000.0001) %MON forcing_fv_max               =   2.6622718829904E-01
(PID.TID 0000.0001) %MON forcing_fv_min               =  -3.3085944368965E-01
(PID.TID 0000.0001) %MON forcing_fv_mean              =  -1.3693892618887E-02
(PID.TID 0000.0001) %MON forcing_fv_sd                =   7.5467651774735E-02
(PID.TID 0000.0001) %MON forcing_fv_del2              =   2.3656920428554E-04
(PID.TID 0000.0001) %MON trAdv_CFL_u_max              =   4.1745265900002E-02
(PID.TID 0000.0001) %MON trAdv_CFL_v_max              =   5.8489330622146E-02
(PID.TID 0000.0001) %MON trAdv_CFL_w_max              =   2.0408462832041E-01
(PID.TID 0000.0001) %MON advcfl_uvel_max              =   3.6413188120094E-02
(PID.TID 0000.0001) %MON advcfl_vvel_max              =   4.5149553980661E-02
(PID.TID 0000.0001) %MON advcfl_wvel_max              =   2.2351969045474E-01
(PID.TID 0000.0001) %MON advcfl_W_hf_max              =   2.4694431290065E-01
(PID.TID 0000.0001) %MON pe_b_mean                    =   9.8489977380970E-03
(PID.TID 0000.0001) %MON ke_max                       =   8.6720591379969E-03
(PID.TID 0000.0001) %MON ke_mean                      =   3.2877329460178E-05
(PID.TID 0000.0001) %MON ke_vol                       =   1.3604149755811E+22
(PID.TID 0000.0001) %MON vort_r_min                   =  -5.8376878945304E-07
(PID.TID 0000.0001) %MON vort_r_max                   =   5.8855845588929E-07
(PID.TID 0000.0001) %MON vort_a_mean                  =  -2.0556865257795E-05
(PID.TID 0000.0001) %MON vort_a_sd                    =   7.5247374897979E-05
(PID.TID 0000.0001) %MON vort_p_mean                  =  -2.4859330227362E-05
(PID.TID 0000.0001) %MON vort_p_sd                    =   1.2920423205784E-04
(PID.TID 0000.0001) %MON surfExpan_theta_mean         =   4.9848959970368E-03
(PID.TID 0000.0001) %MON surfExpan_salt_mean          =  -6.2739927568675E-03
(PID.TID 0000.0001) // =======================================================
(PID.TID 0000.0001) // End MONITOR dynamic field statistics
(PID.TID 0000.0001) // =======================================================
(PID.TID 0000.0001) // =======================================================
(PID.TID 0000.0001) // Begin MONITOR SEAICE statistics
(PID.TID 0000.0001) // =======================================================
(PID.TID 0000.0001) %MON seaice_tsnumber              =                     6
(PID.TID 0000.0001) %MON seaice_time_sec              =   5.1840000000000E+05
(PID.TID 0000.0001) %MON seaice_uice_max              =   1.8347582064453E-01
(PID.TID 0000.0001) %MON seaice_uice_min              =  -2.5108555241037E-01
(PID.TID 0000.0001) %MON seaice_uice_mean             =  -5.0569955438422E-04
(PID.TID 0000.0001) %MON seaice_uice_sd               =   1.3065645997605E-02
(PID.TID 0000.0001) %MON seaice_uice_del2             =   1.9908839667786E-04
(PID.TID 0000.0001) %MON seaice_vice_max              =   1.6247095379715E-01
(PID.TID 0000.0001) %MON seaice_vice_min              =  -1.7076767061830E-01
(PID.TID 0000.0001) %MON seaice_vice_mean             =   1.0732858806259E-03
(PID.TID 0000.0001) %MON seaice_vice_sd               =   1.5426319382607E-02
(PID.TID 0000.0001) %MON seaice_vice_del2             =   1.1539720479712E-04
(PID.TID 0000.0001) %MON seaice_area_max              =   9.1258789107072E-01
(PID.TID 0000.0001) %MON seaice_area_min              =   0.0000000000000E+00
(PID.TID 0000.0001) %MON seaice_area_mean             =   1.9546304504063E-02
(PID.TID 0000.0001) %MON seaice_area_sd               =   1.2233814839013E-01
(PID.TID 0000.0001) %MON seaice_area_del2             =   9.0354033160148E-04
(PID.TID 0000.0001) %MON seaice_heff_max              =   5.7656415531415E-01
(PID.TID 0000.0001) %MON seaice_heff_min              =   0.0000000000000E+00
(PID.TID 0000.0001) %MON seaice_heff_mean             =   1.1244807905710E-02
(PID.TID 0000.0001) %MON seaice_heff_sd               =   7.1472848098598E-02
(PID.TID 0000.0001) %MON seaice_heff_del2             =   5.1442078460217E-04
(PID.TID 0000.0001) %MON seaice_hsnow_max             =   9.0846746073697E-03
(PID.TID 0000.0001) %MON seaice_hsnow_min             =   0.0000000000000E+00
(PID.TID 0000.0001) %MON seaice_hsnow_mean            =   8.6822743189704E-05
(PID.TID 0000.0001) %MON seaice_hsnow_sd              =   6.4964553382639E-04
(PID.TID 0000.0001) %MON seaice_hsnow_del2            =   1.0240121708807E-05
(PID.TID 0000.0001) // =======================================================
(PID.TID 0000.0001) // End MONITOR SEAICE statistics
(PID.TID 0000.0001) // =======================================================
 EXTERNAL_FIELDS_LOAD,         6 : iP,iLd,i0,i1=   12    1   12    1 ; Wght=  0.3000000000  0.7000000000
 SEAICE_LSR: Residual Initial ipass,Uice,Vice=         1  7.17739139E-04  4.16815700E-04
 SEAICE_LSR (ipass=        1) iters,dU,Resid=       16  2.39114284E-13  9.23601987E-16
 SEAICE_LSR (ipass=        1) iters,dV,Resid=       16  3.43461370E-13  8.84780131E-16
 SEAICE_LSR: Residual Initial ipass,Uice,Vice=         2  5.44735736E-04  1.07967847E-04
 SEAICE_LSR (ipass=        2) iters,dU,Resid=       16  1.11698845E-13  4.55023585E-16
 SEAICE_LSR (ipass=        2) iters,dV,Resid=       16  7.70078445E-14  2.11977557E-16
 cg2d: Sum(rhs),rhsMax =   4.23650524126375E-01  1.58663501264629E+01
(PID.TID 0000.0001)      cg2d_init_res =   8.92339046329375E-02
(PID.TID 0000.0001)      cg2d_iters(min,last) =      -1     101
(PID.TID 0000.0001)      cg2d_last_res =   7.89539080594644E-10
(PID.TID 0000.0001) // =======================================================
(PID.TID 0000.0001) // Begin MONITOR dynamic field statistics
(PID.TID 0000.0001) // =======================================================
(PID.TID 0000.0001) %MON time_tsnumber                =                     7
(PID.TID 0000.0001) %MON time_secondsf                =   6.0480000000000E+05
(PID.TID 0000.0001) %MON dynstat_eta_max              =   1.3434705757622E+04
(PID.TID 0000.0001) %MON dynstat_eta_min              =  -2.0057008914260E+04
(PID.TID 0000.0001) %MON dynstat_eta_mean             =  -1.0150917118900E+02
(PID.TID 0000.0001) %MON dynstat_eta_sd               =   6.3612749054235E+03
(PID.TID 0000.0001) %MON dynstat_eta_del2             =   7.5630022233065E+01
(PID.TID 0000.0001) %MON dynstat_uvel_max             =   1.1051140674959E-01
(PID.TID 0000.0001) %MON dynstat_uvel_min             =  -1.3175846180557E-01
(PID.TID 0000.0001) %MON dynstat_uvel_mean            =  -1.3890429313779E-04
(PID.TID 0000.0001) %MON dynstat_uvel_sd              =   6.7197622864617E-03
(PID.TID 0000.0001) %MON dynstat_uvel_del2            =   3.3219640349648E-05
(PID.TID 0000.0001) %MON dynstat_vvel_max             =   1.7802506261842E-01
(PID.TID 0000.0001) %MON dynstat_vvel_min             =  -1.6440408716977E-01
(PID.TID 0000.0001) %MON dynstat_vvel_mean            =  -4.9335702495508E-04
(PID.TID 0000.0001) %MON dynstat_vvel_sd              =   6.9138214027909E-03
(PID.TID 0000.0001) %MON dynstat_vvel_del2            =   3.4304679638094E-05
(PID.TID 0000.0001) %MON dynstat_wvel_max             =   5.1012647786651E+00
(PID.TID 0000.0001) %MON dynstat_wvel_min             =  -8.8538318122559E+00
(PID.TID 0000.0001) %MON dynstat_wvel_mean            =  -1.1521308892872E-04
(PID.TID 0000.0001) %MON dynstat_wvel_sd              =   2.3832011950257E-01
(PID.TID 0000.0001) %MON dynstat_wvel_del2            =   1.8497614738471E-03
(PID.TID 0000.0001) %MON dynstat_theta_max            =   2.9436616889425E+01
(PID.TID 0000.0001) %MON dynstat_theta_min            =  -1.8987699093176E+00
(PID.TID 0000.0001) %MON dynstat_theta_mean           =   3.5921633067720E+00
(PID.TID 0000.0001) %MON dynstat_theta_sd             =   4.4292574955273E+00
(PID.TID 0000.0001) %MON dynstat_theta_del2           =   2.0660052200695E-03
(PID.TID 0000.0001) %MON dynstat_salt_max             =   4.0715789284902E+01
(PID.TID 0000.0001) %MON dynstat_salt_min             =   1.6820880455539E+01
(PID.TID 0000.0001) %MON dynstat_salt_mean            =   3.4721534421601E+01
(PID.TID 0000.0001) %MON dynstat_salt_sd              =   4.8743798517048E-01
(PID.TID 0000.0001) %MON dynstat_salt_del2            =   5.0693133962253E-04
(PID.TID 0000.0001) %MON forcing_qnet_max             =   6.8219068115391E+02
(PID.TID 0000.0001) %MON forcing_qnet_min             =  -3.1249224887755E+02
(PID.TID 0000.0001) %MON forcing_qnet_mean            =  -2.7369408263151E+01
(PID.TID 0000.0001) %MON forcing_qnet_sd              =   1.5230737290813E+02
(PID.TID 0000.0001) %MON forcing_qnet_del2            =   9.2844936777292E-01
(PID.TID 0000.0001) %MON forcing_qsw_max              =   0.0000000000000E+00
(PID.TID 0000.0001) %MON forcing_qsw_min              =  -3.0184329151467E+02
(PID.TID 0000.0001) %MON forcing_qsw_mean             =  -1.8596329575747E+02
(PID.TID 0000.0001) %MON forcing_qsw_sd               =   7.8669790164661E+01
(PID.TID 0000.0001) %MON forcing_qsw_del2             =   1.1053691891744E-01
(PID.TID 0000.0001) %MON forcing_empmr_max            =   1.6263599744503E-03
(PID.TID 0000.0001) %MON forcing_empmr_min            =  -9.9803159090680E-04
(PID.TID 0000.0001) %MON forcing_empmr_mean           =   1.4045405352212E-05
(PID.TID 0000.0001) %MON forcing_empmr_sd             =   1.1801664932742E-04
(PID.TID 0000.0001) %MON forcing_empmr_del2           =   1.8951070204842E-06
(PID.TID 0000.0001) %MON forcing_fu_max               =   2.4731784009269E-01
(PID.TID 0000.0001) %MON forcing_fu_min               =  -2.2180668969530E-01
(PID.TID 0000.0001) %MON forcing_fu_mean              =  -4.2379950279323E-03
(PID.TID 0000.0001) %MON forcing_fu_sd                =   6.4176689446531E-02
(PID.TID 0000.0001) %MON forcing_fu_del2              =   2.0949240536269E-04
(PID.TID 0000.0001) %MON forcing_fv_max               =   2.6891042987167E-01
(PID.TID 0000.0001) %MON forcing_fv_min               =  -3.3164734762358E-01
(PID.TID 0000.0001) %MON forcing_fv_mean              =  -1.3692849891613E-02
(PID.TID 0000.0001) %MON forcing_fv_sd                =   7.5556927889362E-02
(PID.TID 0000.0001) %MON forcing_fv_del2              =   2.3757242962736E-04
(PID.TID 0000.0001) %MON trAdv_CFL_u_max              =   4.4382126559083E-02
(PID.TID 0000.0001) %MON trAdv_CFL_v_max              =   6.5484691085961E-02
(PID.TID 0000.0001) %MON trAdv_CFL_w_max              =   2.2766650980457E-01
(PID.TID 0000.0001) %MON advcfl_uvel_max              =   4.1075596275464E-02
(PID.TID 0000.0001) %MON advcfl_vvel_max              =   5.0339169675812E-02
(PID.TID 0000.0001) %MON advcfl_wvel_max              =   2.4936329876874E-01
(PID.TID 0000.0001) %MON advcfl_W_hf_max              =   2.7547861050032E-01
(PID.TID 0000.0001) %MON pe_b_mean                    =   9.8172175030422E-03
(PID.TID 0000.0001) %MON ke_max                       =   1.0918980522737E-02
(PID.TID 0000.0001) %MON ke_mean                      =   4.3042473053575E-05
(PID.TID 0000.0001) %MON ke_vol                       =   1.3604144078337E+22
(PID.TID 0000.0001) %MON vort_r_min                   =  -6.5340232190764E-07
(PID.TID 0000.0001) %MON vort_r_max                   =   6.4136280689602E-07
(PID.TID 0000.0001) %MON vort_a_mean                  =  -2.0556865257795E-05
(PID.TID 0000.0001) %MON vort_a_sd                    =   7.5247401996886E-05
(PID.TID 0000.0001) %MON vort_p_mean                  =  -2.4859342255622E-05
(PID.TID 0000.0001) %MON vort_p_sd                    =   1.2920432263126E-04
(PID.TID 0000.0001) %MON surfExpan_theta_mean         =   2.3438944611328E-03
(PID.TID 0000.0001) %MON surfExpan_salt_mean          =  -4.7806384511381E-03
(PID.TID 0000.0001) // =======================================================
(PID.TID 0000.0001) // End MONITOR dynamic field statistics
(PID.TID 0000.0001) // =======================================================
(PID.TID 0000.0001) // =======================================================
(PID.TID 0000.0001) // Begin MONITOR SEAICE statistics
(PID.TID 0000.0001) // =======================================================
(PID.TID 0000.0001) %MON seaice_tsnumber              =                     7
(PID.TID 0000.0001) %MON seaice_time_sec              =   6.0480000000000E+05
(PID.TID 0000.0001) %MON seaice_uice_max              =   1.2476460438559E-01
(PID.TID 0000.0001) %MON seaice_uice_min              =  -2.0351161173368E-01
(PID.TID 0000.0001) %MON seaice_uice_mean             =  -7.0032400694397E-04
(PID.TID 0000.0001) %MON seaice_uice_sd               =   1.3573855580004E-02
(PID.TID 0000.0001) %MON seaice_uice_del2             =   2.0322246127721E-04
(PID.TID 0000.0001) %MON seaice_vice_max              =   1.6106850434345E-01
(PID.TID 0000.0001) %MON seaice_vice_min              =  -1.7595418334436E-01
(PID.TID 0000.0001) %MON seaice_vice_mean             =   1.1343649188067E-03
(PID.TID 0000.0001) %MON seaice_vice_sd               =   1.5628669424307E-02
(PID.TID 0000.0001) %MON seaice_vice_del2             =   1.1895968273111E-04
(PID.TID 0000.0001) %MON seaice_area_max              =   9.4588962491652E-01
(PID.TID 0000.0001) %MON seaice_area_min              =   0.0000000000000E+00
(PID.TID 0000.0001) %MON seaice_area_mean             =   2.1659586901193E-02
(PID.TID 0000.0001) %MON seaice_area_sd               =   1.3276434293441E-01
(PID.TID 0000.0001) %MON seaice_area_del2             =   9.0108466599535E-04
(PID.TID 0000.0001) %MON seaice_heff_max              =   6.2516618269535E-01
(PID.TID 0000.0001) %MON seaice_heff_min              =   0.0000000000000E+00
(PID.TID 0000.0001) %MON seaice_heff_mean             =   1.2794920221192E-02
(PID.TID 0000.0001) %MON seaice_heff_sd               =   7.9862486118139E-02
(PID.TID 0000.0001) %MON seaice_heff_del2             =   5.5348297043487E-04
(PID.TID 0000.0001) %MON seaice_hsnow_max             =   1.2343968038740E-02
(PID.TID 0000.0001) %MON seaice_hsnow_min             =   0.0000000000000E+00
(PID.TID 0000.0001) %MON seaice_hsnow_mean            =   1.2228511505644E-04
(PID.TID 0000.0001) %MON seaice_hsnow_sd              =   8.9127803579705E-04
(PID.TID 0000.0001) %MON seaice_hsnow_del2            =   1.3197145621835E-05
(PID.TID 0000.0001) // =======================================================
(PID.TID 0000.0001) // End MONITOR SEAICE statistics
(PID.TID 0000.0001) // =======================================================
 EXTERNAL_FIELDS_LOAD,         7 : iP,iLd,i0,i1=   12    1   12    1 ; Wght=  0.2666666667  0.7333333333
 SEAICE_LSR: Residual Initial ipass,Uice,Vice=         1  5.50500709E-04  4.64850507E-04
 SEAICE_LSR (ipass=        1) iters,dU,Resid=       24  8.28660057E-14  1.03591429E-15
 SEAICE_LSR (ipass=        1) iters,dV,Resid=       24  1.30007116E-13  1.20250324E-15
 SEAICE_LSR: Residual Initial ipass,Uice,Vice=         2  2.64602552E-04  1.77707667E-04
 SEAICE_LSR (ipass=        2) iters,dU,Resid=       22  3.31030342E-13  4.38150824E-15
 SEAICE_LSR (ipass=        2) iters,dV,Resid=       22  3.03354564E-13  2.92096329E-15
 cg2d: Sum(rhs),rhsMax =   4.71797245053240E-01  1.58668955106094E+01
(PID.TID 0000.0001)      cg2d_init_res =   9.04410930682096E-02
(PID.TID 0000.0001)      cg2d_iters(min,last) =      -1     101
(PID.TID 0000.0001)      cg2d_last_res =   8.70136734084644E-10
(PID.TID 0000.0001) // =======================================================
(PID.TID 0000.0001) // Begin MONITOR dynamic field statistics
(PID.TID 0000.0001) // =======================================================
(PID.TID 0000.0001) %MON time_tsnumber                =                     8
(PID.TID 0000.0001) %MON time_secondsf                =   6.9120000000000E+05
(PID.TID 0000.0001) %MON dynstat_eta_max              =   1.3858945019670E+04
(PID.TID 0000.0001) %MON dynstat_eta_min              =  -1.9740242522386E+04
(PID.TID 0000.0001) %MON dynstat_eta_mean             =  -1.1304929606040E+02
(PID.TID 0000.0001) %MON dynstat_eta_sd               =   6.3283467004849E+03
(PID.TID 0000.0001) %MON dynstat_eta_del2             =   7.5778866607034E+01
(PID.TID 0000.0001) %MON dynstat_uvel_max             =   1.2174672099996E-01
(PID.TID 0000.0001) %MON dynstat_uvel_min             =  -1.4419738362294E-01
(PID.TID 0000.0001) %MON dynstat_uvel_mean            =  -4.1836622520577E-05
(PID.TID 0000.0001) %MON dynstat_uvel_sd              =   7.5293832326309E-03
(PID.TID 0000.0001) %MON dynstat_uvel_del2            =   3.5858629620061E-05
(PID.TID 0000.0001) %MON dynstat_vvel_max             =   1.9343965190609E-01
(PID.TID 0000.0001) %MON dynstat_vvel_min             =  -1.7951299585050E-01
(PID.TID 0000.0001) %MON dynstat_vvel_mean            =  -4.7234170667324E-04
(PID.TID 0000.0001) %MON dynstat_vvel_sd              =   7.7504351736613E-03
(PID.TID 0000.0001) %MON dynstat_vvel_del2            =   3.6960951374318E-05
(PID.TID 0000.0001) %MON dynstat_wvel_max             =   5.4120841334909E+00
(PID.TID 0000.0001) %MON dynstat_wvel_min             =  -9.6386139593732E+00
(PID.TID 0000.0001) %MON dynstat_wvel_mean            =  -6.1943940309049E-05
(PID.TID 0000.0001) %MON dynstat_wvel_sd              =   2.5509851417125E-01
(PID.TID 0000.0001) %MON dynstat_wvel_del2            =   1.9413921812626E-03
(PID.TID 0000.0001) %MON dynstat_theta_max            =   2.9441944723634E+01
(PID.TID 0000.0001) %MON dynstat_theta_min            =  -1.8997566208522E+00
(PID.TID 0000.0001) %MON dynstat_theta_mean           =   3.5923307020528E+00
(PID.TID 0000.0001) %MON dynstat_theta_sd             =   4.4296574073917E+00
(PID.TID 0000.0001) %MON dynstat_theta_del2           =   2.0696548443604E-03
(PID.TID 0000.0001) %MON dynstat_salt_max             =   4.0715770559856E+01
(PID.TID 0000.0001) %MON dynstat_salt_min             =   1.6525812667494E+01
(PID.TID 0000.0001) %MON dynstat_salt_mean            =   3.4721543329194E+01
(PID.TID 0000.0001) %MON dynstat_salt_sd              =   4.8740043919790E-01
(PID.TID 0000.0001) %MON dynstat_salt_del2            =   5.0404259546155E-04
(PID.TID 0000.0001) %MON forcing_qnet_max             =   6.7790972173603E+02
(PID.TID 0000.0001) %MON forcing_qnet_min             =  -3.1144809954233E+02
(PID.TID 0000.0001) %MON forcing_qnet_mean            =  -2.7812090215026E+01
(PID.TID 0000.0001) %MON forcing_qnet_sd              =   1.4968105004143E+02
(PID.TID 0000.0001) %MON forcing_qnet_del2            =   7.9449579069544E-01
(PID.TID 0000.0001) %MON forcing_qsw_max              =   0.0000000000000E+00
(PID.TID 0000.0001) %MON forcing_qsw_min              =  -3.0183129457886E+02
(PID.TID 0000.0001) %MON forcing_qsw_mean             =  -1.8596934910225E+02
(PID.TID 0000.0001) %MON forcing_qsw_sd               =   7.8572681078596E+01
(PID.TID 0000.0001) %MON forcing_qsw_del2             =   1.1074865298750E-01
(PID.TID 0000.0001) %MON forcing_empmr_max            =   1.2985923917600E-03
(PID.TID 0000.0001) %MON forcing_empmr_min            =  -4.5686673887277E-04
(PID.TID 0000.0001) %MON forcing_empmr_mean           =   1.3615317032176E-05
(PID.TID 0000.0001) %MON forcing_empmr_sd             =   1.0632871927128E-04
(PID.TID 0000.0001) %MON forcing_empmr_del2           =   1.4389478695678E-06
(PID.TID 0000.0001) %MON forcing_fu_max               =   2.4726979082249E-01
(PID.TID 0000.0001) %MON forcing_fu_min               =  -2.2495248635365E-01
(PID.TID 0000.0001) %MON forcing_fu_mean              =  -4.1876293789601E-03
(PID.TID 0000.0001) %MON forcing_fu_sd                =   6.4262835489425E-02
(PID.TID 0000.0001) %MON forcing_fu_del2              =   2.1097841853916E-04
(PID.TID 0000.0001) %MON forcing_fv_max               =   2.7159367144430E-01
(PID.TID 0000.0001) %MON forcing_fv_min               =  -3.3243525155752E-01
(PID.TID 0000.0001) %MON forcing_fv_mean              =  -1.3694472228688E-02
(PID.TID 0000.0001) %MON forcing_fv_sd                =   7.5651162416995E-02
(PID.TID 0000.0001) %MON forcing_fv_del2              =   2.3882038732397E-04
(PID.TID 0000.0001) %MON trAdv_CFL_u_max              =   4.5020463295170E-02
(PID.TID 0000.0001) %MON trAdv_CFL_v_max              =   7.1380956983454E-02
(PID.TID 0000.0001) %MON trAdv_CFL_w_max              =   2.4719146328337E-01
(PID.TID 0000.0001) %MON advcfl_uvel_max              =   4.5051962426774E-02
(PID.TID 0000.0001) %MON advcfl_vvel_max              =   5.5540725429708E-02
(PID.TID 0000.0001) %MON advcfl_wvel_max              =   2.7076254129328E-01
(PID.TID 0000.0001) %MON advcfl_W_hf_max              =   2.9910398719292E-01
(PID.TID 0000.0001) %MON pe_b_mean                    =   9.7927893326483E-03
(PID.TID 0000.0001) %MON ke_max                       =   1.3067471185254E-02
(PID.TID 0000.0001) %MON ke_mean                      =   5.4016514615302E-05
(PID.TID 0000.0001) %MON ke_vol                       =   1.3604139746389E+22
(PID.TID 0000.0001) %MON vort_r_min                   =  -7.1356331202124E-07
(PID.TID 0000.0001) %MON vort_r_max                   =   6.9401258677062E-07
(PID.TID 0000.0001) %MON vort_a_mean                  =  -2.0556865257795E-05
(PID.TID 0000.0001) %MON vort_a_sd                    =   7.5247429175288E-05
(PID.TID 0000.0001) %MON vort_p_mean                  =  -2.4859350516554E-05
(PID.TID 0000.0001) %MON vort_p_sd                    =   1.2920412967530E-04
(PID.TID 0000.0001) %MON surfExpan_theta_mean         =   2.6155943616169E-04
(PID.TID 0000.0001) %MON surfExpan_salt_mean          =  -4.5514879416994E-03
(PID.TID 0000.0001) // =======================================================
(PID.TID 0000.0001) // End MONITOR dynamic field statistics
(PID.TID 0000.0001) // =======================================================
(PID.TID 0000.0001) // =======================================================
(PID.TID 0000.0001) // Begin MONITOR SEAICE statistics
(PID.TID 0000.0001) // =======================================================
(PID.TID 0000.0001) %MON seaice_tsnumber              =                     8
(PID.TID 0000.0001) %MON seaice_time_sec              =   6.9120000000000E+05
(PID.TID 0000.0001) %MON seaice_uice_max              =   1.6250137857088E-01
(PID.TID 0000.0001) %MON seaice_uice_min              =  -2.3187333617270E-01
(PID.TID 0000.0001) %MON seaice_uice_mean             =  -6.2298783953271E-04
(PID.TID 0000.0001) %MON seaice_uice_sd               =   1.4523076461246E-02
(PID.TID 0000.0001) %MON seaice_uice_del2             =   2.3057642403730E-04
(PID.TID 0000.0001) %MON seaice_vice_max              =   1.6339687379607E-01
(PID.TID 0000.0001) %MON seaice_vice_min              =  -1.8170388299886E-01
(PID.TID 0000.0001) %MON seaice_vice_mean             =   1.2138069697662E-03
(PID.TID 0000.0001) %MON seaice_vice_sd               =   1.5758869460053E-02
(PID.TID 0000.0001) %MON seaice_vice_del2             =   1.2247808093477E-04
(PID.TID 0000.0001) %MON seaice_area_max              =   9.6739607166223E-01
(PID.TID 0000.0001) %MON seaice_area_min              =   0.0000000000000E+00
(PID.TID 0000.0001) %MON seaice_area_mean             =   2.3313588156205E-02
(PID.TID 0000.0001) %MON seaice_area_sd               =   1.4095216517971E-01
(PID.TID 0000.0001) %MON seaice_area_del2             =   8.7352148598685E-04
(PID.TID 0000.0001) %MON seaice_heff_max              =   6.6764244891705E-01
(PID.TID 0000.0001) %MON seaice_heff_min              =   0.0000000000000E+00
(PID.TID 0000.0001) %MON seaice_heff_mean             =   1.4300787766201E-02
(PID.TID 0000.0001) %MON seaice_heff_sd               =   8.7761454941777E-02
(PID.TID 0000.0001) %MON seaice_heff_del2             =   5.3775276156334E-04
(PID.TID 0000.0001) %MON seaice_hsnow_max             =   1.5773329128212E-02
(PID.TID 0000.0001) %MON seaice_hsnow_min             =   0.0000000000000E+00
(PID.TID 0000.0001) %MON seaice_hsnow_mean            =   1.6218374605857E-04
(PID.TID 0000.0001) %MON seaice_hsnow_sd              =   1.1581233762877E-03
(PID.TID 0000.0001) %MON seaice_hsnow_del2            =   1.5381430447011E-05
(PID.TID 0000.0001) // =======================================================
(PID.TID 0000.0001) // End MONITOR SEAICE statistics
(PID.TID 0000.0001) // =======================================================
 EXTERNAL_FIELDS_LOAD,         8 : iP,iLd,i0,i1=   12    1   12    1 ; Wght=  0.2333333333  0.7666666667
 SEAICE_LSR: Residual Initial ipass,Uice,Vice=         1  4.59455270E-04  5.21831390E-04
 SEAICE_LSR (ipass=        1) iters,dU,Resid=       32  1.95607419E-13  6.09688276E-15
 SEAICE_LSR (ipass=        1) iters,dV,Resid=       32  5.42441092E-13  1.38360844E-14
 SEAICE_LSR: Residual Initial ipass,Uice,Vice=         2  2.59346095E-04  2.25846426E-04
 SEAICE_LSR (ipass=        2) iters,dU,Resid=       30  4.68521055E-13  1.52149599E-14
 SEAICE_LSR (ipass=        2) iters,dV,Resid=       30  8.37760417E-13  2.25447957E-14
 cg2d: Sum(rhs),rhsMax =   5.10150656029558E-01  1.58699719857977E+01
(PID.TID 0000.0001)      cg2d_init_res =   9.09001255872402E-02
(PID.TID 0000.0001)      cg2d_iters(min,last) =      -1     101
(PID.TID 0000.0001)      cg2d_last_res =   9.11955197554382E-10
(PID.TID 0000.0001) // =======================================================
(PID.TID 0000.0001) // Begin MONITOR dynamic field statistics
(PID.TID 0000.0001) // =======================================================
(PID.TID 0000.0001) %MON time_tsnumber                =                     9
(PID.TID 0000.0001) %MON time_secondsf                =   7.7760000000000E+05
(PID.TID 0000.0001) %MON dynstat_eta_max              =   1.3911201264737E+04
(PID.TID 0000.0001) %MON dynstat_eta_min              =  -2.0204765806947E+04
(PID.TID 0000.0001) %MON dynstat_eta_mean             =  -1.2226301735940E+02
(PID.TID 0000.0001) %MON dynstat_eta_sd               =   6.3012203849005E+03
(PID.TID 0000.0001) %MON dynstat_eta_del2             =   7.5869206554411E+01
(PID.TID 0000.0001) %MON dynstat_uvel_max             =   1.3151511609080E-01
(PID.TID 0000.0001) %MON dynstat_uvel_min             =  -1.5435954575646E-01
(PID.TID 0000.0001) %MON dynstat_uvel_mean            =   1.8018701527461E-05
(PID.TID 0000.0001) %MON dynstat_uvel_sd              =   8.2981607225581E-03
(PID.TID 0000.0001) %MON dynstat_uvel_del2            =   3.8002371265748E-05
(PID.TID 0000.0001) %MON dynstat_vvel_max             =   2.0593327952462E-01
(PID.TID 0000.0001) %MON dynstat_vvel_min             =  -1.9193993012611E-01
(PID.TID 0000.0001) %MON dynstat_vvel_mean            =  -4.2300916222385E-04
(PID.TID 0000.0001) %MON dynstat_vvel_sd              =   8.5394714786035E-03
(PID.TID 0000.0001) %MON dynstat_vvel_del2            =   3.9136476205232E-05
(PID.TID 0000.0001) %MON dynstat_wvel_max             =   5.5884047686353E+00
(PID.TID 0000.0001) %MON dynstat_wvel_min             =  -1.0270969644045E+01
(PID.TID 0000.0001) %MON dynstat_wvel_mean            =   4.9828701489897E-06
(PID.TID 0000.0001) %MON dynstat_wvel_sd              =   2.6706237332172E-01
(PID.TID 0000.0001) %MON dynstat_wvel_del2            =   1.9927560740949E-03
(PID.TID 0000.0001) %MON dynstat_theta_max            =   2.9446911852172E+01
(PID.TID 0000.0001) %MON dynstat_theta_min            =  -1.9009386455188E+00
(PID.TID 0000.0001) %MON dynstat_theta_mean           =   3.5924934131055E+00
(PID.TID 0000.0001) %MON dynstat_theta_sd             =   4.4300711801949E+00
(PID.TID 0000.0001) %MON dynstat_theta_del2           =   2.0640665749470E-03
(PID.TID 0000.0001) %MON dynstat_salt_max             =   4.0715750880104E+01
(PID.TID 0000.0001) %MON dynstat_salt_min             =   1.6231058196024E+01
(PID.TID 0000.0001) %MON dynstat_salt_mean            =   3.4721550363066E+01
(PID.TID 0000.0001) %MON dynstat_salt_sd              =   4.8737470724799E-01
(PID.TID 0000.0001) %MON dynstat_salt_del2            =   5.0025401100040E-04
(PID.TID 0000.0001) %MON forcing_qnet_max             =   6.9608818530351E+02
(PID.TID 0000.0001) %MON forcing_qnet_min             =  -3.1034669085569E+02
(PID.TID 0000.0001) %MON forcing_qnet_mean            =  -2.7312065880532E+01
(PID.TID 0000.0001) %MON forcing_qnet_sd              =   1.4858470114190E+02
(PID.TID 0000.0001) %MON forcing_qnet_del2            =   8.3007921410208E-01
(PID.TID 0000.0001) %MON forcing_qsw_max              =   0.0000000000000E+00
(PID.TID 0000.0001) %MON forcing_qsw_min              =  -3.0181929764305E+02
(PID.TID 0000.0001) %MON forcing_qsw_mean             =  -1.8597518849670E+02
(PID.TID 0000.0001) %MON forcing_qsw_sd               =   7.8478745492209E+01
(PID.TID 0000.0001) %MON forcing_qsw_del2             =   1.1102178980156E-01
(PID.TID 0000.0001) %MON forcing_empmr_max            =   1.1498730617280E-03
(PID.TID 0000.0001) %MON forcing_empmr_min            =  -6.9402058341177E-04
(PID.TID 0000.0001) %MON forcing_empmr_mean           =   1.0870570113405E-05
(PID.TID 0000.0001) %MON forcing_empmr_sd             =   9.1905164718573E-05
(PID.TID 0000.0001) %MON forcing_empmr_del2           =   1.3893199191698E-06
(PID.TID 0000.0001) %MON forcing_fu_max               =   2.4722174155228E-01
(PID.TID 0000.0001) %MON forcing_fu_min               =  -2.2809828301201E-01
(PID.TID 0000.0001) %MON forcing_fu_mean              =  -4.1343885026271E-03
(PID.TID 0000.0001) %MON forcing_fu_sd                =   6.4362698271211E-02
(PID.TID 0000.0001) %MON forcing_fu_del2              =   2.1265076691491E-04
(PID.TID 0000.0001) %MON forcing_fv_max               =   2.7427691301694E-01
(PID.TID 0000.0001) %MON forcing_fv_min               =  -3.3322315549145E-01
(PID.TID 0000.0001) %MON forcing_fv_mean              =  -1.3698928810625E-02
(PID.TID 0000.0001) %MON forcing_fv_sd                =   7.5748762986800E-02
(PID.TID 0000.0001) %MON forcing_fv_del2              =   2.4021426281631E-04
(PID.TID 0000.0001) %MON trAdv_CFL_u_max              =   4.8208565591315E-02
(PID.TID 0000.0001) %MON trAdv_CFL_v_max              =   7.6189319570714E-02
(PID.TID 0000.0001) %MON trAdv_CFL_w_max              =   2.6265170755750E-01
(PID.TID 0000.0001) %MON advcfl_uvel_max              =   4.8300092997187E-02
(PID.TID 0000.0001) %MON advcfl_vvel_max              =   5.9896865755496E-02
(PID.TID 0000.0001) %MON advcfl_wvel_max              =   2.8770746692699E-01
(PID.TID 0000.0001) %MON advcfl_W_hf_max              =   3.1781102765438E-01
(PID.TID 0000.0001) %MON pe_b_mean                    =   9.7846942889486E-03
(PID.TID 0000.0001) %MON ke_max                       =   1.5008324876142E-02
(PID.TID 0000.0001) %MON ke_mean                      =   6.5548393281208E-05
(PID.TID 0000.0001) %MON ke_vol                       =   1.3604135547090E+22
(PID.TID 0000.0001) %MON vort_r_min                   =  -7.6441159714256E-07
(PID.TID 0000.0001) %MON vort_r_max                   =   7.3348509038128E-07
(PID.TID 0000.0001) %MON vort_a_mean                  =  -2.0556865257795E-05
(PID.TID 0000.0001) %MON vort_a_sd                    =   7.5247453414133E-05
(PID.TID 0000.0001) %MON vort_p_mean                  =  -2.4859356384832E-05
(PID.TID 0000.0001) %MON vort_p_sd                    =   1.2920389561936E-04
(PID.TID 0000.0001) %MON surfExpan_theta_mean         =  -1.3830445709279E-03
(PID.TID 0000.0001) %MON surfExpan_salt_mean          =  -3.5487781819393E-03
(PID.TID 0000.0001) // =======================================================
(PID.TID 0000.0001) // End MONITOR dynamic field statistics
(PID.TID 0000.0001) // =======================================================
(PID.TID 0000.0001) // =======================================================
(PID.TID 0000.0001) // Begin MONITOR SEAICE statistics
(PID.TID 0000.0001) // =======================================================
(PID.TID 0000.0001) %MON seaice_tsnumber              =                     9
(PID.TID 0000.0001) %MON seaice_time_sec              =   7.7760000000000E+05
(PID.TID 0000.0001) %MON seaice_uice_max              =   1.5534202331228E-01
(PID.TID 0000.0001) %MON seaice_uice_min              =  -2.2904016701039E-01
(PID.TID 0000.0001) %MON seaice_uice_mean             =  -6.6520158613414E-04
(PID.TID 0000.0001) %MON seaice_uice_sd               =   1.4843131578787E-02
(PID.TID 0000.0001) %MON seaice_uice_del2             =   2.3148817619927E-04
(PID.TID 0000.0001) %MON seaice_vice_max              =   1.6554404531192E-01
(PID.TID 0000.0001) %MON seaice_vice_min              =  -1.8823085868324E-01
(PID.TID 0000.0001) %MON seaice_vice_mean             =   1.3162687860341E-03
(PID.TID 0000.0001) %MON seaice_vice_sd               =   1.6044243082450E-02
(PID.TID 0000.0001) %MON seaice_vice_del2             =   1.4030733408432E-04
(PID.TID 0000.0001) %MON seaice_area_max              =   9.8183788124733E-01
(PID.TID 0000.0001) %MON seaice_area_min              =   0.0000000000000E+00
(PID.TID 0000.0001) %MON seaice_area_mean             =   2.4523342338354E-02
(PID.TID 0000.0001) %MON seaice_area_sd               =   1.4692988268661E-01
(PID.TID 0000.0001) %MON seaice_area_del2             =   9.1827742965615E-04
(PID.TID 0000.0001) %MON seaice_heff_max              =   7.0623130547661E-01
(PID.TID 0000.0001) %MON seaice_heff_min              =   0.0000000000000E+00
(PID.TID 0000.0001) %MON seaice_heff_mean             =   1.5541121364413E-02
(PID.TID 0000.0001) %MON seaice_heff_sd               =   9.4500428103823E-02
(PID.TID 0000.0001) %MON seaice_heff_del2             =   5.5967043703925E-04
(PID.TID 0000.0001) %MON seaice_hsnow_max             =   1.9315050585689E-02
(PID.TID 0000.0001) %MON seaice_hsnow_min             =   0.0000000000000E+00
(PID.TID 0000.0001) %MON seaice_hsnow_mean            =   2.0618823542911E-04
(PID.TID 0000.0001) %MON seaice_hsnow_sd              =   1.4490468308703E-03
(PID.TID 0000.0001) %MON seaice_hsnow_del2            =   1.7332292127821E-05
(PID.TID 0000.0001) // =======================================================
(PID.TID 0000.0001) // End MONITOR SEAICE statistics
(PID.TID 0000.0001) // =======================================================
 EXTERNAL_FIELDS_LOAD,         9 : iP,iLd,i0,i1=   12    1   12    1 ; Wght=  0.2000000000  0.8000000000
 SEAICE_LSR: Residual Initial ipass,Uice,Vice=         1  4.67799379E-04  5.85451728E-04
 SEAICE_LSR (ipass=        1) iters,dU,Resid=       42  1.19688981E-13  6.96968973E-15
 SEAICE_LSR (ipass=        1) iters,dV,Resid=       42  7.91353094E-13  4.15805334E-14
 SEAICE_LSR: Residual Initial ipass,Uice,Vice=         2  2.93811826E-04  3.10425868E-04
 SEAICE_LSR (ipass=        2) iters,dU,Resid=       40  1.82784343E-13  1.09441232E-14
 SEAICE_LSR (ipass=        2) iters,dV,Resid=       40  8.84362028E-13  4.80565301E-14
 cg2d: Sum(rhs),rhsMax =   5.45602526969455E-01  1.58744054874392E+01
(PID.TID 0000.0001)      cg2d_init_res =   9.10156989217554E-02
(PID.TID 0000.0001)      cg2d_iters(min,last) =      -1     100
(PID.TID 0000.0001)      cg2d_last_res =   9.70272781713133E-10
(PID.TID 0000.0001) // =======================================================
(PID.TID 0000.0001) // Begin MONITOR dynamic field statistics
(PID.TID 0000.0001) // =======================================================
(PID.TID 0000.0001) %MON time_tsnumber                =                    10
(PID.TID 0000.0001) %MON time_secondsf                =   8.6400000000000E+05
(PID.TID 0000.0001) %MON dynstat_eta_max              =   1.3681887815404E+04
(PID.TID 0000.0001) %MON dynstat_eta_min              =  -2.2446283747876E+04
(PID.TID 0000.0001) %MON dynstat_eta_mean             =  -1.3079596387216E+02
(PID.TID 0000.0001) %MON dynstat_eta_sd               =   6.2929612661915E+03
(PID.TID 0000.0001) %MON dynstat_eta_del2             =   7.5903689158149E+01
(PID.TID 0000.0001) %MON dynstat_uvel_max             =   1.3969299177597E-01
(PID.TID 0000.0001) %MON dynstat_uvel_min             =  -1.6224094982462E-01
(PID.TID 0000.0001) %MON dynstat_uvel_mean            =   3.8444009425672E-05
(PID.TID 0000.0001) %MON dynstat_uvel_sd              =   9.0223846722831E-03
(PID.TID 0000.0001) %MON dynstat_uvel_del2            =   3.9715101514495E-05
(PID.TID 0000.0001) %MON dynstat_vvel_max             =   2.1557147660744E-01
(PID.TID 0000.0001) %MON dynstat_vvel_min             =  -2.0153272875543E-01
(PID.TID 0000.0001) %MON dynstat_vvel_mean            =  -3.6593224577951E-04
(PID.TID 0000.0001) %MON dynstat_vvel_sd              =   9.2773795914604E-03
(PID.TID 0000.0001) %MON dynstat_vvel_del2            =   4.0892450315284E-05
(PID.TID 0000.0001) %MON dynstat_wvel_max             =   5.6285049945661E+00
(PID.TID 0000.0001) %MON dynstat_wvel_min             =  -1.0752278725014E+01
(PID.TID 0000.0001) %MON dynstat_wvel_mean            =   7.0832868155404E-05
(PID.TID 0000.0001) %MON dynstat_wvel_sd              =   2.7434806539920E-01
(PID.TID 0000.0001) %MON dynstat_wvel_del2            =   2.0073414669292E-03
(PID.TID 0000.0001) %MON dynstat_theta_max            =   2.9456259643576E+01
(PID.TID 0000.0001) %MON dynstat_theta_min            =  -1.9013319202410E+00
(PID.TID 0000.0001) %MON dynstat_theta_mean           =   3.5926538863871E+00
(PID.TID 0000.0001) %MON dynstat_theta_sd             =   4.4304798969168E+00
(PID.TID 0000.0001) %MON dynstat_theta_del2           =   2.0717643895702E-03
(PID.TID 0000.0001) %MON dynstat_salt_max             =   4.0715733961651E+01
(PID.TID 0000.0001) %MON dynstat_salt_min             =   1.5944011087748E+01
(PID.TID 0000.0001) %MON dynstat_salt_mean            =   3.4721556945095E+01
(PID.TID 0000.0001) %MON dynstat_salt_sd              =   4.8734554786785E-01
(PID.TID 0000.0001) %MON dynstat_salt_del2            =   4.9758317632852E-04
(PID.TID 0000.0001) %MON forcing_qnet_max             =   1.5148839741884E+03
(PID.TID 0000.0001) %MON forcing_qnet_min             =  -3.0919352017884E+02
(PID.TID 0000.0001) %MON forcing_qnet_mean            =  -2.7197799722581E+01
(PID.TID 0000.0001) %MON forcing_qnet_sd              =   1.4827764572237E+02
(PID.TID 0000.0001) %MON forcing_qnet_del2            =   9.7061400965955E-01
(PID.TID 0000.0001) %MON forcing_qsw_max              =   0.0000000000000E+00
(PID.TID 0000.0001) %MON forcing_qsw_min              =  -3.0180730070724E+02
(PID.TID 0000.0001) %MON forcing_qsw_mean             =  -1.8597961292974E+02
(PID.TID 0000.0001) %MON forcing_qsw_sd               =   7.8390581815221E+01
(PID.TID 0000.0001) %MON forcing_qsw_del2             =   1.1136039133495E-01
(PID.TID 0000.0001) %MON forcing_empmr_max            =   1.3909265810748E-03
(PID.TID 0000.0001) %MON forcing_empmr_min            =  -3.8464756621001E-03
(PID.TID 0000.0001) %MON forcing_empmr_mean           =   1.0067375638000E-05
(PID.TID 0000.0001) %MON forcing_empmr_sd             =   1.1110670381052E-04
(PID.TID 0000.0001) %MON forcing_empmr_del2           =   1.9095237685521E-06
(PID.TID 0000.0001) %MON forcing_fu_max               =   2.4734156444157E-01
(PID.TID 0000.0001) %MON forcing_fu_min               =  -2.3124407967036E-01
(PID.TID 0000.0001) %MON forcing_fu_mean              =  -4.0835915082793E-03
(PID.TID 0000.0001) %MON forcing_fu_sd                =   6.4474606736881E-02
(PID.TID 0000.0001) %MON forcing_fu_del2              =   2.1456077298292E-04
(PID.TID 0000.0001) %MON forcing_fv_max               =   2.7696015458957E-01
(PID.TID 0000.0001) %MON forcing_fv_min               =  -3.3401105942538E-01
(PID.TID 0000.0001) %MON forcing_fv_mean              =  -1.3710912270157E-02
(PID.TID 0000.0001) %MON forcing_fv_sd                =   7.5847806606399E-02
(PID.TID 0000.0001) %MON forcing_fv_del2              =   2.4166625025341E-04
(PID.TID 0000.0001) %MON trAdv_CFL_u_max              =   5.0694768038502E-02
(PID.TID 0000.0001) %MON trAdv_CFL_v_max              =   7.9952573599158E-02
(PID.TID 0000.0001) %MON trAdv_CFL_w_max              =   2.7413278939954E-01
(PID.TID 0000.0001) %MON advcfl_uvel_max              =   5.0791057265119E-02
(PID.TID 0000.0001) %MON advcfl_vvel_max              =   6.3361782742349E-02
(PID.TID 0000.0001) %MON advcfl_wvel_max              =   3.0029137101791E-01
(PID.TID 0000.0001) %MON advcfl_W_hf_max              =   3.3170324428124E-01
(PID.TID 0000.0001) %MON pe_b_mean                    =   9.8036894299453E-03
(PID.TID 0000.0001) %MON ke_max                       =   1.6650263826178E-02
(PID.TID 0000.0001) %MON ke_mean                      =   7.7390188407703E-05
(PID.TID 0000.0001) %MON ke_vol                       =   1.3604132194339E+22
(PID.TID 0000.0001) %MON vort_r_min                   =  -8.0628447206245E-07
(PID.TID 0000.0001) %MON vort_r_max                   =   8.2584679824542E-07
(PID.TID 0000.0001) %MON vort_a_mean                  =  -2.0556865257795E-05
(PID.TID 0000.0001) %MON vort_a_sd                    =   7.5247471977643E-05
(PID.TID 0000.0001) %MON vort_p_mean                  =  -2.4859358779472E-05
(PID.TID 0000.0001) %MON vort_p_sd                    =   1.2920369835677E-04
(PID.TID 0000.0001) %MON surfExpan_theta_mean         =  -2.6572062523084E-03
(PID.TID 0000.0001) %MON surfExpan_salt_mean          =  -3.2130023282715E-03
(PID.TID 0000.0001) // =======================================================
(PID.TID 0000.0001) // End MONITOR dynamic field statistics
(PID.TID 0000.0001) // =======================================================
(PID.TID 0000.0001) // =======================================================
(PID.TID 0000.0001) // Begin MONITOR SEAICE statistics
(PID.TID 0000.0001) // =======================================================
(PID.TID 0000.0001) %MON seaice_tsnumber              =                    10
(PID.TID 0000.0001) %MON seaice_time_sec              =   8.6400000000000E+05
(PID.TID 0000.0001) %MON seaice_uice_max              =   1.5457202428182E-01
(PID.TID 0000.0001) %MON seaice_uice_min              =  -2.3245175801843E-01
(PID.TID 0000.0001) %MON seaice_uice_mean             =  -6.2554825441384E-04
(PID.TID 0000.0001) %MON seaice_uice_sd               =   1.4900476573812E-02
(PID.TID 0000.0001) %MON seaice_uice_del2             =   2.1986477118592E-04
(PID.TID 0000.0001) %MON seaice_vice_max              =   1.6382724762424E-01
(PID.TID 0000.0001) %MON seaice_vice_min              =  -1.9504656051342E-01
(PID.TID 0000.0001) %MON seaice_vice_mean             =   1.4050600386582E-03
(PID.TID 0000.0001) %MON seaice_vice_sd               =   1.6352732755984E-02
(PID.TID 0000.0001) %MON seaice_vice_del2             =   1.3921091023242E-04
(PID.TID 0000.0001) %MON seaice_area_max              =   9.9191340470609E-01
(PID.TID 0000.0001) %MON seaice_area_min              =   0.0000000000000E+00
(PID.TID 0000.0001) %MON seaice_area_mean             =   2.5435570850106E-02
(PID.TID 0000.0001) %MON seaice_area_sd               =   1.5103527242124E-01
(PID.TID 0000.0001) %MON seaice_area_del2             =   1.0172497648827E-03
(PID.TID 0000.0001) %MON seaice_heff_max              =   7.4226100805452E-01
(PID.TID 0000.0001) %MON seaice_heff_min              =   0.0000000000000E+00
(PID.TID 0000.0001) %MON seaice_heff_mean             =   1.6698441477275E-02
(PID.TID 0000.0001) %MON seaice_heff_sd               =   1.0060656435583E-01
(PID.TID 0000.0001) %MON seaice_heff_del2             =   6.1819851526544E-04
(PID.TID 0000.0001) %MON seaice_hsnow_max             =   2.2927224731651E-02
(PID.TID 0000.0001) %MON seaice_hsnow_min             =   0.0000000000000E+00
(PID.TID 0000.0001) %MON seaice_hsnow_mean            =   2.5259321731803E-04
(PID.TID 0000.0001) %MON seaice_hsnow_sd              =   1.7593740796926E-03
(PID.TID 0000.0001) %MON seaice_hsnow_del2            =   1.9461900858333E-05
(PID.TID 0000.0001) // =======================================================
(PID.TID 0000.0001) // End MONITOR SEAICE statistics
(PID.TID 0000.0001) // =======================================================
 Compute Stats, Diag. #    23 "ETAN    " (list#  1) Parms "SM      M1      ", vol(  0 )= 3.639E+15
 Compute Stats, Diag. #    30 "UVEL    " (list#  1) Parms "UUR     MR      ", vol(  0 )= 1.250E+23
 Compute Stats, Diag. #    31 "VVEL    " (list#  1) Parms "VVR     MR      ", vol(  0 )= 1.262E+23
 Compute Stats, Diag. #    32 "WVEL    " (list#  1) Parms "WM      LR      ", vol(  0 )= 1.501E+23
 Compute Stats, Diag. #    26 "THETA   " (list#  1) Parms "SMR     MR      ", vol(  0 )= 1.360E+23
 Compute Stats, Diag. #    27 "SALT    " (list#  1) Parms "SMR     MR      ", vol(  0 )= 1.360E+23
 Compute Stats, Diag. #    80 "CONVADJ " (list#  1) Parms "SMR     LR      ", vol(  0 )= 1.501E+23
 Compute Stats, Diag. #    25 "DETADT2 " (list#  1) Parms "SM      M1      ", vol(  0 )= 3.639E+15
 Compute Stats, Diag. #   250 "SIheff  " (list#  2) Parms "SM      M1      ", vol(  0 )= 3.639E+15
 Compute Stats, Diag. #   250 "SIheff  " (list#  2) Parms "SM      M1      ", vol(  1 )= 1.289E+15
 Compute Stats, Diag. #   250 "SIheff  " (list#  2) Parms "SM      M1      ", vol(  3 )= 7.935E+14
 Compute Stats, Diag. #   247 "SIarea  " (list#  2) Parms "SM      M1      ", vol(  0 )= 3.639E+15
 Compute Stats, Diag. #   247 "SIarea  " (list#  2) Parms "SM      M1      ", vol(  1 )= 1.289E+15
 Compute Stats, Diag. #   247 "SIarea  " (list#  2) Parms "SM      M1      ", vol(  3 )= 7.935E+14
 Compute Stats, Diag. #   252 "SIhsnow " (list#  2) Parms "SM      M1      ", vol(  0 )= 3.639E+15
 Compute Stats, Diag. #   252 "SIhsnow " (list#  2) Parms "SM      M1      ", vol(  1 )= 1.289E+15
 Compute Stats, Diag. #   252 "SIhsnow " (list#  2) Parms "SM      M1      ", vol(  3 )= 7.935E+14
 Compute Stats, Diag. #   264 "SIuice  " (list#  2) Parms "UU      M1      ", vol(  0 )= 3.457E+15
 Compute Stats, Diag. #   264 "SIuice  " (list#  2) Parms "UU      M1      ", vol(  1 )= 1.262E+15
 Compute Stats, Diag. #   264 "SIuice  " (list#  2) Parms "UU      M1      ", vol(  3 )= 7.592E+14
 Compute Stats, Diag. #   265 "SIvice  " (list#  2) Parms "VV      M1      ", vol(  0 )= 3.478E+15
 Compute Stats, Diag. #   265 "SIvice  " (list#  2) Parms "VV      M1      ", vol(  1 )= 1.293E+15
 Compute Stats, Diag. #   265 "SIvice  " (list#  2) Parms "VV      M1      ", vol(  3 )= 7.207E+14
(PID.TID 0000.0001) DIAGSTATS_CLOSE_IO: close file: dynStDiag.0000000000.txt , unit=     9
(PID.TID 0000.0001) DIAGSTATS_CLOSE_IO: close file: seaiceStDiag.0000000000.txt , unit=    10
(PID.TID 0000.0001) %CHECKPOINT        10 ckptA
(PID.TID 0000.0001)   Seconds in section "ALL                    [THE_MODEL_MAIN]":
(PID.TID 0000.0001)           User time:   17.984911056235433
(PID.TID 0000.0001)         System time:  0.11575900204479694
(PID.TID 0000.0001)     Wall clock time:   18.105997085571289
(PID.TID 0000.0001)          No. starts:           1
(PID.TID 0000.0001)           No. stops:           1
(PID.TID 0000.0001)   Seconds in section "INITIALISE_FIXED       [THE_MODEL_MAIN]":
(PID.TID 0000.0001)           User time:  0.18598200660198927
(PID.TID 0000.0001)         System time:   3.6270999815315008E-002
(PID.TID 0000.0001)     Wall clock time:  0.22239708900451660
(PID.TID 0000.0001)          No. starts:           1
(PID.TID 0000.0001)           No. stops:           1
(PID.TID 0000.0001)   Seconds in section "THE_MAIN_LOOP          [THE_MODEL_MAIN]":
(PID.TID 0000.0001)           User time:   17.798885419964790
(PID.TID 0000.0001)         System time:   7.9472001641988754E-002
(PID.TID 0000.0001)     Wall clock time:   17.883550882339478
(PID.TID 0000.0001)          No. starts:           1
(PID.TID 0000.0001)           No. stops:           1
(PID.TID 0000.0001)   Seconds in section "INITIALISE_VARIA    [THE_MAIN_LOOP]":
(PID.TID 0000.0001)           User time:  0.37278501689434052
(PID.TID 0000.0001)         System time:   3.9381001144647598E-002
(PID.TID 0000.0001)     Wall clock time:  0.41236209869384766
(PID.TID 0000.0001)          No. starts:           1
(PID.TID 0000.0001)           No. stops:           1
(PID.TID 0000.0001)   Seconds in section "MAIN LOOP           [THE_MAIN_LOOP]":
(PID.TID 0000.0001)           User time:   17.426073908805847
(PID.TID 0000.0001)         System time:   4.0089003741741180E-002
(PID.TID 0000.0001)     Wall clock time:   17.471162796020508
(PID.TID 0000.0001)          No. starts:           1
(PID.TID 0000.0001)           No. stops:           1
(PID.TID 0000.0001)   Seconds in section "MAIN_DO_LOOP        [THE_MAIN_LOOP]":
(PID.TID 0000.0001)           User time:   17.425992965698242
(PID.TID 0000.0001)         System time:   4.0088005363941193E-002
(PID.TID 0000.0001)     Wall clock time:   17.471080303192139
(PID.TID 0000.0001)          No. starts:          10
(PID.TID 0000.0001)           No. stops:          10
(PID.TID 0000.0001)   Seconds in section "FORWARD_STEP        [MAIN_DO_LOOP]":
(PID.TID 0000.0001)           User time:   17.425820529460907
(PID.TID 0000.0001)         System time:   4.0086999535560608E-002
(PID.TID 0000.0001)     Wall clock time:   17.470908164978027
(PID.TID 0000.0001)          No. starts:          10
(PID.TID 0000.0001)           No. stops:          10
(PID.TID 0000.0001)   Seconds in section "UPDATE_R_STAR       [FORWARD_STEP]":
(PID.TID 0000.0001)           User time:  0.43788450956344604
(PID.TID 0000.0001)         System time:   5.5998563766479492E-005
(PID.TID 0000.0001)     Wall clock time:  0.43810653686523438
(PID.TID 0000.0001)          No. starts:          20
(PID.TID 0000.0001)           No. stops:          20
(PID.TID 0000.0001)   Seconds in section "DO_STATEVARS_DIAGS  [FORWARD_STEP]":
(PID.TID 0000.0001)           User time:  0.75747478008270264
(PID.TID 0000.0001)         System time:   1.1399388313293457E-004
(PID.TID 0000.0001)     Wall clock time:  0.75784087181091309
(PID.TID 0000.0001)          No. starts:          30
(PID.TID 0000.0001)           No. stops:          30
(PID.TID 0000.0001)   Seconds in section "LOAD_FIELDS_DRIVER  [FORWARD_STEP]":
(PID.TID 0000.0001)           User time:  0.20170676708221436
(PID.TID 0000.0001)         System time:   1.2499839067459106E-004
(PID.TID 0000.0001)     Wall clock time:  0.20195055007934570
(PID.TID 0000.0001)          No. starts:          10
(PID.TID 0000.0001)           No. stops:          10
(PID.TID 0000.0001)   Seconds in section "EXF_GETFORCING     [LOAD_FLDS_DRIVER]":
(PID.TID 0000.0001)           User time:  0.15662819147109985
(PID.TID 0000.0001)         System time:   1.5996396541595459E-005
(PID.TID 0000.0001)     Wall clock time:  0.15678167343139648
(PID.TID 0000.0001)          No. starts:          10
(PID.TID 0000.0001)           No. stops:          10
(PID.TID 0000.0001)   Seconds in section "EXTERNAL_FLDS_LOAD [LOAD_FLDS_DRIVER]":
(PID.TID 0000.0001)           User time:   5.6330561637878418E-003
(PID.TID 0000.0001)         System time:   1.0700523853302002E-004
(PID.TID 0000.0001)     Wall clock time:   5.7439804077148438E-003
(PID.TID 0000.0001)          No. starts:          10
(PID.TID 0000.0001)           No. stops:          10
(PID.TID 0000.0001)   Seconds in section "DO_ATMOSPHERIC_PHYS [FORWARD_STEP]":
(PID.TID 0000.0001)           User time:   8.3029270172119141E-005
(PID.TID 0000.0001)         System time:   1.9967555999755859E-006
(PID.TID 0000.0001)     Wall clock time:   8.6784362792968750E-005
(PID.TID 0000.0001)          No. starts:          10
(PID.TID 0000.0001)           No. stops:          10
(PID.TID 0000.0001)   Seconds in section "DO_OCEANIC_PHYS     [FORWARD_STEP]":
(PID.TID 0000.0001)           User time:   5.5756651759147644
(PID.TID 0000.0001)         System time:   7.9870000481605530E-003
(PID.TID 0000.0001)     Wall clock time:   5.5859818458557129
(PID.TID 0000.0001)          No. starts:          10
(PID.TID 0000.0001)           No. stops:          10
(PID.TID 0000.0001)   Seconds in section "SEAICE_MODEL    [DO_OCEANIC_PHYS]":
(PID.TID 0000.0001)           User time:   2.2902945280075073
(PID.TID 0000.0001)         System time:   1.6994774341583252E-005
(PID.TID 0000.0001)     Wall clock time:   2.2911860942840576
(PID.TID 0000.0001)          No. starts:          10
(PID.TID 0000.0001)           No. stops:          10
(PID.TID 0000.0001)   Seconds in section "SEAICE_DYNSOLVER   [SEAICE_MODEL]":
(PID.TID 0000.0001)           User time:   1.8760804533958435
(PID.TID 0000.0001)         System time:   0.0000000000000000
(PID.TID 0000.0001)     Wall clock time:   1.8769240379333496
(PID.TID 0000.0001)          No. starts:          10
(PID.TID 0000.0001)           No. stops:          10
(PID.TID 0000.0001)   Seconds in section "GGL90_CALC [DO_OCEANIC_PHYS]":
(PID.TID 0000.0001)           User time:   2.5109452009201050
(PID.TID 0000.0001)         System time:   7.8950002789497375E-003
(PID.TID 0000.0001)     Wall clock time:   2.5202496051788330
(PID.TID 0000.0001)          No. starts:         120
(PID.TID 0000.0001)           No. stops:         120
(PID.TID 0000.0001)   Seconds in section "DYNAMICS            [FORWARD_STEP]":
(PID.TID 0000.0001)           User time:   4.0804127454757690
(PID.TID 0000.0001)         System time:   0.0000000000000000
(PID.TID 0000.0001)     Wall clock time:   4.0812339782714844
(PID.TID 0000.0001)          No. starts:          10
(PID.TID 0000.0001)           No. stops:          10
(PID.TID 0000.0001)   Seconds in section "UPDATE_CG2D         [FORWARD_STEP]":
(PID.TID 0000.0001)           User time:   8.2291722297668457E-002
(PID.TID 0000.0001)         System time:   0.0000000000000000
(PID.TID 0000.0001)     Wall clock time:   8.2315683364868164E-002
(PID.TID 0000.0001)          No. starts:          10
(PID.TID 0000.0001)           No. stops:          10
(PID.TID 0000.0001)   Seconds in section "SOLVE_FOR_PRESSURE  [FORWARD_STEP]":
(PID.TID 0000.0001)           User time:   1.8430303335189819
(PID.TID 0000.0001)         System time:   0.0000000000000000
(PID.TID 0000.0001)     Wall clock time:   1.8436889648437500
(PID.TID 0000.0001)          No. starts:          10
(PID.TID 0000.0001)           No. stops:          10
(PID.TID 0000.0001)   Seconds in section "MOM_CORRECTION_STEP [FORWARD_STEP]":
(PID.TID 0000.0001)           User time:  0.13172113895416260
(PID.TID 0000.0001)         System time:   0.0000000000000000
(PID.TID 0000.0001)     Wall clock time:  0.13175559043884277
(PID.TID 0000.0001)          No. starts:          10
(PID.TID 0000.0001)           No. stops:          10
(PID.TID 0000.0001)   Seconds in section "INTEGR_CONTINUITY   [FORWARD_STEP]":
(PID.TID 0000.0001)           User time:  0.23567235469818115
(PID.TID 0000.0001)         System time:   0.0000000000000000
(PID.TID 0000.0001)     Wall clock time:  0.23579931259155273
(PID.TID 0000.0001)          No. starts:          10
(PID.TID 0000.0001)           No. stops:          10
(PID.TID 0000.0001)   Seconds in section "CALC_R_STAR         [FORWARD_STEP]":
(PID.TID 0000.0001)           User time:   4.3230772018432617E-002
(PID.TID 0000.0001)         System time:   0.0000000000000000
(PID.TID 0000.0001)     Wall clock time:   4.3257713317871094E-002
(PID.TID 0000.0001)          No. starts:          10
(PID.TID 0000.0001)           No. stops:          10
(PID.TID 0000.0001)   Seconds in section "BLOCKING_EXCHANGES  [FORWARD_STEP]":
(PID.TID 0000.0001)           User time:  0.21997368335723877
(PID.TID 0000.0001)         System time:   0.0000000000000000
(PID.TID 0000.0001)     Wall clock time:  0.22011399269104004
(PID.TID 0000.0001)          No. starts:          20
(PID.TID 0000.0001)           No. stops:          20
(PID.TID 0000.0001)   Seconds in section "THERMODYNAMICS      [FORWARD_STEP]":
(PID.TID 0000.0001)           User time:   2.5162345170974731
(PID.TID 0000.0001)         System time:   3.8160011172294617E-003
(PID.TID 0000.0001)     Wall clock time:   2.5207843780517578
(PID.TID 0000.0001)          No. starts:          10
(PID.TID 0000.0001)           No. stops:          10
(PID.TID 0000.0001)   Seconds in section "TRC_CORRECTION_STEP [FORWARD_STEP]":
(PID.TID 0000.0001)           User time:   8.7261199951171875E-005
(PID.TID 0000.0001)         System time:   0.0000000000000000
(PID.TID 0000.0001)     Wall clock time:   8.7976455688476562E-005
(PID.TID 0000.0001)          No. starts:          10
(PID.TID 0000.0001)           No. stops:          10
(PID.TID 0000.0001)   Seconds in section "DO_STATEVARS_TAVE   [FORWARD_STEP]":
(PID.TID 0000.0001)           User time:   7.6293945312500000E-005
(PID.TID 0000.0001)         System time:   0.0000000000000000
(PID.TID 0000.0001)     Wall clock time:   8.0823898315429688E-005
(PID.TID 0000.0001)          No. starts:          10
(PID.TID 0000.0001)           No. stops:          10
(PID.TID 0000.0001)   Seconds in section "MONITOR             [FORWARD_STEP]":
(PID.TID 0000.0001)           User time:   1.1652364730834961
(PID.TID 0000.0001)         System time:   4.7996640205383301E-005
(PID.TID 0000.0001)     Wall clock time:   1.1653366088867188
(PID.TID 0000.0001)          No. starts:          10
(PID.TID 0000.0001)           No. stops:          10
(PID.TID 0000.0001)   Seconds in section "DO_THE_MODEL_IO     [FORWARD_STEP]":
(PID.TID 0000.0001)           User time:   7.9692125320434570E-002
(PID.TID 0000.0001)         System time:   7.9200044274330139E-003
(PID.TID 0000.0001)     Wall clock time:   8.7639808654785156E-002
(PID.TID 0000.0001)          No. starts:          10
(PID.TID 0000.0001)           No. stops:          10
(PID.TID 0000.0001)   Seconds in section "DO_WRITE_PICKUP     [FORWARD_STEP]":
(PID.TID 0000.0001)           User time:   5.1807403564453125E-002
(PID.TID 0000.0001)         System time:   1.9997000694274902E-002
(PID.TID 0000.0001)     Wall clock time:   7.1804285049438477E-002
(PID.TID 0000.0001)          No. starts:          10
(PID.TID 0000.0001)           No. stops:          10
(PID.TID 0000.0001) // ======================================================
(PID.TID 0000.0001) // Tile <-> Tile communication statistics
(PID.TID 0000.0001) // ======================================================
(PID.TID 0000.0001) // o Tile number: 000001
(PID.TID 0000.0001) //         No. X exchanges =              0
(PID.TID 0000.0001) //            Max. X spins =              0
(PID.TID 0000.0001) //            Min. X spins =     1000000000
(PID.TID 0000.0001) //          Total. X spins =              0
(PID.TID 0000.0001) //            Avg. X spins =       0.00E+00
(PID.TID 0000.0001) //         No. Y exchanges =              0
(PID.TID 0000.0001) //            Max. Y spins =              0
(PID.TID 0000.0001) //            Min. Y spins =     1000000000
(PID.TID 0000.0001) //          Total. Y spins =              0
(PID.TID 0000.0001) //            Avg. Y spins =       0.00E+00
(PID.TID 0000.0001) // o Tile number: 000002
(PID.TID 0000.0001) //         No. X exchanges =              0
(PID.TID 0000.0001) //            Max. X spins =              0
(PID.TID 0000.0001) //            Min. X spins =     1000000000
(PID.TID 0000.0001) //          Total. X spins =              0
(PID.TID 0000.0001) //            Avg. X spins =       0.00E+00
(PID.TID 0000.0001) //         No. Y exchanges =              0
(PID.TID 0000.0001) //            Max. Y spins =              0
(PID.TID 0000.0001) //            Min. Y spins =     1000000000
(PID.TID 0000.0001) //          Total. Y spins =              0
(PID.TID 0000.0001) //            Avg. Y spins =       0.00E+00
(PID.TID 0000.0001) // o Tile number: 000003
(PID.TID 0000.0001) //         No. X exchanges =              0
(PID.TID 0000.0001) //            Max. X spins =              0
(PID.TID 0000.0001) //            Min. X spins =     1000000000
(PID.TID 0000.0001) //          Total. X spins =              0
(PID.TID 0000.0001) //            Avg. X spins =       0.00E+00
(PID.TID 0000.0001) //         No. Y exchanges =              0
(PID.TID 0000.0001) //            Max. Y spins =              0
(PID.TID 0000.0001) //            Min. Y spins =     1000000000
(PID.TID 0000.0001) //          Total. Y spins =              0
(PID.TID 0000.0001) //            Avg. Y spins =       0.00E+00
(PID.TID 0000.0001) // o Tile number: 000004
(PID.TID 0000.0001) //         No. X exchanges =              0
(PID.TID 0000.0001) //            Max. X spins =              0
(PID.TID 0000.0001) //            Min. X spins =     1000000000
(PID.TID 0000.0001) //          Total. X spins =              0
(PID.TID 0000.0001) //            Avg. X spins =       0.00E+00
(PID.TID 0000.0001) //         No. Y exchanges =              0
(PID.TID 0000.0001) //            Max. Y spins =              0
(PID.TID 0000.0001) //            Min. Y spins =     1000000000
(PID.TID 0000.0001) //          Total. Y spins =              0
(PID.TID 0000.0001) //            Avg. Y spins =       0.00E+00
(PID.TID 0000.0001) // o Tile number: 000005
(PID.TID 0000.0001) //         No. X exchanges =              0
(PID.TID 0000.0001) //            Max. X spins =              0
(PID.TID 0000.0001) //            Min. X spins =     1000000000
(PID.TID 0000.0001) //          Total. X spins =              0
(PID.TID 0000.0001) //            Avg. X spins =       0.00E+00
(PID.TID 0000.0001) //         No. Y exchanges =              0
(PID.TID 0000.0001) //            Max. Y spins =              0
(PID.TID 0000.0001) //            Min. Y spins =     1000000000
(PID.TID 0000.0001) //          Total. Y spins =              0
(PID.TID 0000.0001) //            Avg. Y spins =       0.00E+00
(PID.TID 0000.0001) // o Tile number: 000006
(PID.TID 0000.0001) //         No. X exchanges =              0
(PID.TID 0000.0001) //            Max. X spins =              0
(PID.TID 0000.0001) //            Min. X spins =     1000000000
(PID.TID 0000.0001) //          Total. X spins =              0
(PID.TID 0000.0001) //            Avg. X spins =       0.00E+00
(PID.TID 0000.0001) //         No. Y exchanges =              0
(PID.TID 0000.0001) //            Max. Y spins =              0
(PID.TID 0000.0001) //            Min. Y spins =     1000000000
(PID.TID 0000.0001) //          Total. Y spins =              0
(PID.TID 0000.0001) //            Avg. Y spins =       0.00E+00
(PID.TID 0000.0001) // o Tile number: 000007
(PID.TID 0000.0001) //         No. X exchanges =              0
(PID.TID 0000.0001) //            Max. X spins =              0
(PID.TID 0000.0001) //            Min. X spins =     1000000000
(PID.TID 0000.0001) //          Total. X spins =              0
(PID.TID 0000.0001) //            Avg. X spins =       0.00E+00
(PID.TID 0000.0001) //         No. Y exchanges =              0
(PID.TID 0000.0001) //            Max. Y spins =              0
(PID.TID 0000.0001) //            Min. Y spins =     1000000000
(PID.TID 0000.0001) //          Total. Y spins =              0
(PID.TID 0000.0001) //            Avg. Y spins =       0.00E+00
(PID.TID 0000.0001) // o Tile number: 000008
(PID.TID 0000.0001) //         No. X exchanges =              0
(PID.TID 0000.0001) //            Max. X spins =              0
(PID.TID 0000.0001) //            Min. X spins =     1000000000
(PID.TID 0000.0001) //          Total. X spins =              0
(PID.TID 0000.0001) //            Avg. X spins =       0.00E+00
(PID.TID 0000.0001) //         No. Y exchanges =              0
(PID.TID 0000.0001) //            Max. Y spins =              0
(PID.TID 0000.0001) //            Min. Y spins =     1000000000
(PID.TID 0000.0001) //          Total. Y spins =              0
(PID.TID 0000.0001) //            Avg. Y spins =       0.00E+00
(PID.TID 0000.0001) // o Tile number: 000009
(PID.TID 0000.0001) //         No. X exchanges =              0
(PID.TID 0000.0001) //            Max. X spins =              0
(PID.TID 0000.0001) //            Min. X spins =     1000000000
(PID.TID 0000.0001) //          Total. X spins =              0
(PID.TID 0000.0001) //            Avg. X spins =       0.00E+00
(PID.TID 0000.0001) //         No. Y exchanges =              0
(PID.TID 0000.0001) //            Max. Y spins =              0
(PID.TID 0000.0001) //            Min. Y spins =     1000000000
(PID.TID 0000.0001) //          Total. Y spins =              0
(PID.TID 0000.0001) //            Avg. Y spins =       0.00E+00
(PID.TID 0000.0001) // o Tile number: 000010
(PID.TID 0000.0001) //         No. X exchanges =              0
(PID.TID 0000.0001) //            Max. X spins =              0
(PID.TID 0000.0001) //            Min. X spins =     1000000000
(PID.TID 0000.0001) //          Total. X spins =              0
(PID.TID 0000.0001) //            Avg. X spins =       0.00E+00
(PID.TID 0000.0001) //         No. Y exchanges =              0
(PID.TID 0000.0001) //            Max. Y spins =              0
(PID.TID 0000.0001) //            Min. Y spins =     1000000000
(PID.TID 0000.0001) //          Total. Y spins =              0
(PID.TID 0000.0001) //            Avg. Y spins =       0.00E+00
(PID.TID 0000.0001) // o Tile number: 000011
(PID.TID 0000.0001) //         No. X exchanges =              0
(PID.TID 0000.0001) //            Max. X spins =              0
(PID.TID 0000.0001) //            Min. X spins =     1000000000
(PID.TID 0000.0001) //          Total. X spins =              0
(PID.TID 0000.0001) //            Avg. X spins =       0.00E+00
(PID.TID 0000.0001) //         No. Y exchanges =              0
(PID.TID 0000.0001) //            Max. Y spins =              0
(PID.TID 0000.0001) //            Min. Y spins =     1000000000
(PID.TID 0000.0001) //          Total. Y spins =              0
(PID.TID 0000.0001) //            Avg. Y spins =       0.00E+00
(PID.TID 0000.0001) // o Tile number: 000012
(PID.TID 0000.0001) //         No. X exchanges =              0
(PID.TID 0000.0001) //            Max. X spins =              0
(PID.TID 0000.0001) //            Min. X spins =     1000000000
(PID.TID 0000.0001) //          Total. X spins =              0
(PID.TID 0000.0001) //            Avg. X spins =       0.00E+00
(PID.TID 0000.0001) //         No. Y exchanges =              0
(PID.TID 0000.0001) //            Max. Y spins =              0
(PID.TID 0000.0001) //            Min. Y spins =     1000000000
(PID.TID 0000.0001) //          Total. Y spins =              0
(PID.TID 0000.0001) //            Avg. Y spins =       0.00E+00
(PID.TID 0000.0001) // o Thread number: 000001
(PID.TID 0000.0001) //            No. barriers =          19814
(PID.TID 0000.0001) //      Max. barrier spins =              1
(PID.TID 0000.0001) //      Min. barrier spins =              1
(PID.TID 0000.0001) //     Total barrier spins =          19814
(PID.TID 0000.0001) //      Avg. barrier spins =       1.00E+00
PROGRAM MAIN: Execution ended Normally
