(PID.TID 0000.0001) 
(PID.TID 0000.0001) // ======================================================
(PID.TID 0000.0001) //                      MITgcm UV
(PID.TID 0000.0001) //                      =========
(PID.TID 0000.0001) // ======================================================
(PID.TID 0000.0001) // execution environment starting up...
(PID.TID 0000.0001) 
(PID.TID 0000.0001) // MITgcmUV version:  checkpoint68v
(PID.TID 0000.0001) // Build user:        jm_c
(PID.TID 0000.0001) // Build host:        villon
(PID.TID 0000.0001) // Build date:        Thu Mar 14 23:51:22 EDT 2024
(PID.TID 0000.0001) 
(PID.TID 0000.0001) // =======================================================
(PID.TID 0000.0001) // Execution Environment parameter file "eedata"
(PID.TID 0000.0001) // =======================================================
(PID.TID 0000.0001) ># Example "eedata" file
(PID.TID 0000.0001) ># Lines beginning "#" are comments
(PID.TID 0000.0001) >#  nTx      :: No. threads per process in X
(PID.TID 0000.0001) >#  nTy      :: No. threads per process in Y
(PID.TID 0000.0001) ># debugMode :: print debug msg (sequence of S/R calls)
(PID.TID 0000.0001) > &EEPARMS
(PID.TID 0000.0001) > useCubedSphereExchange=.TRUE.,
(PID.TID 0000.0001) > nTx=1,
(PID.TID 0000.0001) > nTy=1,
(PID.TID 0000.0001) > /
(PID.TID 0000.0001) ># Note: Some systems use & as the namelist terminator (as shown here).
(PID.TID 0000.0001) >#       Other systems use a / character.
(PID.TID 0000.0001) 
(PID.TID 0000.0001) // =======================================================
(PID.TID 0000.0001) // Computational Grid Specification ( see files "SIZE.h" )
(PID.TID 0000.0001) //                                  ( and "eedata"       )
(PID.TID 0000.0001) // =======================================================
(PID.TID 0000.0001)      nPx =    1 ; /* No. processes in X */
(PID.TID 0000.0001)      nPy =    1 ; /* No. processes in Y */
(PID.TID 0000.0001)      nSx =   12 ; /* No. tiles in X per process */
(PID.TID 0000.0001)      nSy =    1 ; /* No. tiles in Y per process */
(PID.TID 0000.0001)      sNx =   32 ; /* Tile size in X */
(PID.TID 0000.0001)      sNy =   16 ; /* Tile size in Y */
(PID.TID 0000.0001)      OLx =    4 ; /* Tile overlap distance in X */
(PID.TID 0000.0001)      OLy =    4 ; /* Tile overlap distance in Y */
(PID.TID 0000.0001)      nTx =    1 ; /* No. threads in X per process */
(PID.TID 0000.0001)      nTy =    1 ; /* No. threads in Y per process */
(PID.TID 0000.0001)       Nr =   15 ; /* No. levels in the vertical   */
(PID.TID 0000.0001)       Nx =  384 ; /* Total domain size in X ( = nPx*nSx*sNx ) */
(PID.TID 0000.0001)       Ny =   16 ; /* Total domain size in Y ( = nPy*nSy*sNy ) */
(PID.TID 0000.0001)   nTiles =   12 ; /* Total no. tiles per process ( = nSx*nSy ) */
(PID.TID 0000.0001)   nProcs =    1 ; /* Total no. processes ( = nPx*nPy ) */
(PID.TID 0000.0001) nThreads =    1 ; /* Total no. threads per process ( = nTx*nTy ) */
(PID.TID 0000.0001) usingMPI =    F ; /* Flag used to control whether MPI is in use */
(PID.TID 0000.0001)                   /*  note: To execute a program with MPI calls */
(PID.TID 0000.0001)                   /*  it must be launched appropriately e.g     */
(PID.TID 0000.0001)                   /*  "mpirun -np 64 ......"                    */
(PID.TID 0000.0001) useCoupler=   F ; /* Flag used to control communications with   */
(PID.TID 0000.0001)                   /*  other model components, through a coupler */
(PID.TID 0000.0001) useNest2W_parent =    F ;/* Control 2-W Nesting comm */
(PID.TID 0000.0001) useNest2W_child  =    F ;/* Control 2-W Nesting comm */
(PID.TID 0000.0001) debugMode =    F ; /* print debug msg. (sequence of S/R calls)  */
(PID.TID 0000.0001) printMapIncludesZeros=    F ; /* print zeros in Std.Output maps */
(PID.TID 0000.0001) maxLengthPrt1D=   65 /* maxLength of 1D array printed to StdOut */
(PID.TID 0000.0001) 
(PID.TID 0000.0001) // ======================================================
(PID.TID 0000.0001) // Mapping of tiles to threads
(PID.TID 0000.0001) // ======================================================
(PID.TID 0000.0001) // -o- Thread   1, tiles (   1:  12,   1:   1)
(PID.TID 0000.0001) 
(PID.TID 0000.0001) W2_READPARMS: file data.exch2 not found
(PID.TID 0000.0001) => use W2_EXCH2 default: regular 6-facets Cube
(PID.TID 0000.0001) W2_useE2ioLayOut=    T ;/* T: use Exch2 glob IO map; F: use model default */
(PID.TID 0000.0001) W2_mapIO        =  -1 ; /* select option for Exch2 global-IO map */
(PID.TID 0000.0001) W2_printMsg     =  -1 ; /* select option for printing information */
(PID.TID 0000.0001) ===== Start setting W2 TOPOLOGY:
(PID.TID 0000.0001)  write to log-file: w2_tile_topology.0000.log
(PID.TID 0000.0001) =====       setting W2 TOPOLOGY: Done
(PID.TID 0000.0001) 
(PID.TID 0000.0001)  INI_PARMS: opening model parameter file "data"
(PID.TID 0000.0001)  OPEN_COPY_DATA_FILE: opening file data
(PID.TID 0000.0001) // =======================================================
(PID.TID 0000.0001) // Parameter file "data"
(PID.TID 0000.0001) // =======================================================
(PID.TID 0000.0001) ># ====================
(PID.TID 0000.0001) ># | Model parameters |
(PID.TID 0000.0001) ># ====================
(PID.TID 0000.0001) >#
(PID.TID 0000.0001) ># Continuous equation parameters
(PID.TID 0000.0001) > &PARM01
(PID.TID 0000.0001) > tRef=15*20.,
(PID.TID 0000.0001) > sRef=15*35.,
(PID.TID 0000.0001) > viscAh =3.E5,
(PID.TID 0000.0001) > viscAr =1.E-3,
(PID.TID 0000.0001) > diffKrT=3.E-5,
(PID.TID 0000.0001) > diffKrS=3.E-5,
(PID.TID 0000.0001) > ivdc_kappa=10.,
(PID.TID 0000.0001) > implicitDiffusion=.TRUE.,
(PID.TID 0000.0001) > gravity=9.81,
(PID.TID 0000.0001) > rhoConst=1035.,
(PID.TID 0000.0001) > rhoConstFresh=1000.,
(PID.TID 0000.0001) > eosType='JMD95Z',
(PID.TID 0000.0001) > staggerTimeStep=.TRUE.,
(PID.TID 0000.0001) > vectorInvariantMomentum=.TRUE.,
(PID.TID 0000.0001) > implicitFreeSurface=.TRUE.,
(PID.TID 0000.0001) > exactConserv=.TRUE.,
(PID.TID 0000.0001) > select_rStar=2,
(PID.TID 0000.0001) > nonlinFreeSurf=4,
(PID.TID 0000.0001) > hFacInf=0.2,
(PID.TID 0000.0001) > hFacSup=2.0,
(PID.TID 0000.0001) > useRealFreshWaterFlux=.TRUE.,
(PID.TID 0000.0001) >#- set Energy Reference Level to liq. water @ 0 degC:
(PID.TID 0000.0001) > temp_EvPrRn=0.,
(PID.TID 0000.0001) > hFacMin=.1,
(PID.TID 0000.0001) > hFacMinDr=20.,
(PID.TID 0000.0001) >#tempAdvScheme=77,
(PID.TID 0000.0001) >#saltAdvScheme=77,
(PID.TID 0000.0001) > readBinaryPrec=64,
(PID.TID 0000.0001) > writeBinaryPrec=64,
(PID.TID 0000.0001) > useSingleCpuIO=.TRUE.,
(PID.TID 0000.0001) >#debugLevel = 2,
(PID.TID 0000.0001) > plotLevel=0,
(PID.TID 0000.0001) > /
(PID.TID 0000.0001) >
(PID.TID 0000.0001) ># Elliptic solver parameters
(PID.TID 0000.0001) > &PARM02
(PID.TID 0000.0001) > cg2dMaxIters=200,
(PID.TID 0000.0001) >#cg2dTargetResidual=1.E-9,
(PID.TID 0000.0001) > cg2dTargetResWunit=1.E-14,
(PID.TID 0000.0001) > /
(PID.TID 0000.0001) >
(PID.TID 0000.0001) ># Time stepping parameters
(PID.TID 0000.0001) > &PARM03
(PID.TID 0000.0001) > nIter0=72000,
(PID.TID 0000.0001) > nTimeSteps=10,
(PID.TID 0000.0001) >#endTime=31104000.,
(PID.TID 0000.0001) > deltaTMom   =1200.,
(PID.TID 0000.0001) > deltaTtracer=86400.,
(PID.TID 0000.0001) > deltaTFreeSurf=86400.,
(PID.TID 0000.0001) > deltaTClock =86400.,
(PID.TID 0000.0001) > abEps = 0.1,
(PID.TID 0000.0001) > forcing_In_AB=.FALSE.,
(PID.TID 0000.0001) > pChkptFreq   =3110400000.,
(PID.TID 0000.0001) > chkptFreq    = 155520000.,
(PID.TID 0000.0001) >#tave_lastIter=0.,
(PID.TID 0000.0001) >#taveFreq     = 2592000.,
(PID.TID 0000.0001) >#dumpFreq     =  864000.,
(PID.TID 0000.0001) > monitorFreq  = 15552000.,
(PID.TID 0000.0001) > periodicExternalForcing=.TRUE.,
(PID.TID 0000.0001) > externForcingPeriod=2592000.,
(PID.TID 0000.0001) > externForcingCycle=31104000.,
(PID.TID 0000.0001) ># 6 months restoring timescale for temperature
(PID.TID 0000.0001) >#tauThetaClimRelax = 15552000.,
(PID.TID 0000.0001) ># 2 months restoring timescale for tsalinity
(PID.TID 0000.0001) >#tauSaltClimRelax = 5184000.,
(PID.TID 0000.0001) >#latBandClimRelax=60.,
(PID.TID 0000.0001) > monitorFreq =1.,
(PID.TID 0000.0001) > /
(PID.TID 0000.0001) >
(PID.TID 0000.0001) ># Gridding parameters
(PID.TID 0000.0001) > &PARM04
(PID.TID 0000.0001) > usingCurvilinearGrid=.TRUE.,
(PID.TID 0000.0001) > horizGridFile='grid_cs32',
(PID.TID 0000.0001) > radius_fromHorizGrid=6370.E3,
(PID.TID 0000.0001) > delR= 50., 70., 100., 140., 190.,
(PID.TID 0000.0001) >       240., 290., 340., 390., 440.,
(PID.TID 0000.0001) >       490., 540., 590., 640., 690.,
(PID.TID 0000.0001) > /
(PID.TID 0000.0001) >
(PID.TID 0000.0001) ># Input datasets
(PID.TID 0000.0001) > &PARM05
(PID.TID 0000.0001) > bathyFile      ='bathy_Hmin50.bin',
(PID.TID 0000.0001) > hydrogThetaFile='lev_T_cs_15k.bin',
(PID.TID 0000.0001) > hydrogSaltFile ='lev_S_cs_15k.bin',
(PID.TID 0000.0001) > /
(PID.TID 0000.0001) 
(PID.TID 0000.0001)  INI_PARMS ; starts to read PARM01
(PID.TID 0000.0001)  INI_PARMS ; read PARM01 : OK
(PID.TID 0000.0001)  INI_PARMS ; starts to read PARM02
(PID.TID 0000.0001)  INI_PARMS ; read PARM02 : OK
(PID.TID 0000.0001)  INI_PARMS ; starts to read PARM03
(PID.TID 0000.0001)  INI_PARMS ; read PARM03 : OK
(PID.TID 0000.0001)  INI_PARMS ; starts to read PARM04
(PID.TID 0000.0001)  INI_PARMS ; read PARM04 : OK
(PID.TID 0000.0001)  INI_PARMS ; starts to read PARM05
(PID.TID 0000.0001)  INI_PARMS ; read PARM05 : OK
(PID.TID 0000.0001)  INI_PARMS: finished reading file "data"
(PID.TID 0000.0001)  PACKAGES_BOOT: opening data.pkg
(PID.TID 0000.0001)  OPEN_COPY_DATA_FILE: opening file data.pkg
(PID.TID 0000.0001) // =======================================================
(PID.TID 0000.0001) // Parameter file "data.pkg"
(PID.TID 0000.0001) // =======================================================
(PID.TID 0000.0001) ># Packages
(PID.TID 0000.0001) > &PACKAGES
(PID.TID 0000.0001) > useGMRedi=.TRUE.,
(PID.TID 0000.0001) > useEXF   =.TRUE.,
(PID.TID 0000.0001) >#useCAL   =.TRUE.,
(PID.TID 0000.0001) > useSEAICE=.TRUE.,
(PID.TID 0000.0001) > useThSIce=.TRUE.,
(PID.TID 0000.0001) > useDiagnostics=.TRUE.,
(PID.TID 0000.0001) >#useMNC = .TRUE.,
(PID.TID 0000.0001) > /
(PID.TID 0000.0001) 
(PID.TID 0000.0001)  PACKAGES_BOOT: finished reading data.pkg
(PID.TID 0000.0001) ** WARNING ** PACKAGES_BOOT: useCAL no longer set to T when using EXF (useEXF=T)
(PID.TID 0000.0001) ** WARNING ** PACKAGES_BOOT:  as it used to be before checkpoint66d (2017/02/13)
(PID.TID 0000.0001)  PACKAGES_BOOT: On/Off package Summary
 --------  pkgs with a standard "usePKG" On/Off switch in "data.pkg":  --------
 pkg/ggl90                compiled but not used ( useGGL90                 = F )
 pkg/gmredi               compiled   and   used ( useGMRedi                = T )
 pkg/cal                  compiled but not used ( useCAL                   = F )
 pkg/exf                  compiled   and   used ( useEXF                   = T )
 pkg/bulk_force           compiled but not used ( useBulkForce             = F )
 pkg/seaice               compiled   and   used ( useSEAICE                = T )
 pkg/thsice               compiled   and   used ( useThSIce                = T )
 pkg/diagnostics          compiled   and   used ( useDiagnostics           = T )
 pkg/mnc                  compiled but not used ( useMNC                   = F )
 -------- pkgs without standard "usePKG" On/Off switch in "data.pkg":  --------
 pkg/generic_advdiff      compiled   and   used ( useGAD                   = T )
 pkg/mom_common           compiled   and   used ( momStepping              = T )
 pkg/mom_vecinv           compiled   and   used ( +vectorInvariantMomentum = T )
 pkg/mom_fluxform         compiled but not used ( & not vectorInvariantMom = F )
 pkg/monitor              compiled   and   used ( monitorFreq > 0.         = T )
 pkg/timeave              compiled but not used ( taveFreq > 0.            = F )
 pkg/debug                compiled but not used ( debugMode                = F )
 pkg/exch2                compiled   and   used
 pkg/rw                   compiled   and   used
 pkg/mdsio                compiled   and   used
(PID.TID 0000.0001)  PACKAGES_BOOT: End of package Summary
(PID.TID 0000.0001) 
(PID.TID 0000.0001) EXF_READPARMS: opening data.exf
(PID.TID 0000.0001)  OPEN_COPY_DATA_FILE: opening file data.exf
(PID.TID 0000.0001) // =======================================================
(PID.TID 0000.0001) // Parameter file "data.exf"
(PID.TID 0000.0001) // =======================================================
(PID.TID 0000.0001) ># *********************
(PID.TID 0000.0001) ># External Forcing Data
(PID.TID 0000.0001) ># *********************
(PID.TID 0000.0001) > &EXF_NML_01
(PID.TID 0000.0001) >#exf_debugLev      = 3,
(PID.TID 0000.0001) >#useExfCheckRange  = .TRUE.,
(PID.TID 0000.0001) >#useStabilityFct_overIce=.TRUE.,
(PID.TID 0000.0001) >#snow_emissivity   = 0.98,
(PID.TID 0000.0001) >#ice_emissivity    = 0.98,
(PID.TID 0000.0001) > ocean_emissivity  = 1.,
(PID.TID 0000.0001) > atmrho            = 1.22,
(PID.TID 0000.0001) > humid_fac         = .608,
(PID.TID 0000.0001) > ht                = 10.,
(PID.TID 0000.0001) > exf_albedo        = 0.066,
(PID.TID 0000.0001) >#readStressOnAgrid = .TRUE.,
(PID.TID 0000.0001) > readStressOnCgrid = .TRUE.,
(PID.TID 0000.0001) > exf_monFreq       = 0.,
(PID.TID 0000.0001) > repeatPeriod      = 31104000.,
(PID.TID 0000.0001) > exf_iprec         = 64,
(PID.TID 0000.0001) >#exf_debugLev      = 4,
(PID.TID 0000.0001) > /
(PID.TID 0000.0001) >
(PID.TID 0000.0001) ># *********************
(PID.TID 0000.0001) > &EXF_NML_02
(PID.TID 0000.0001) >#atempstartdate1   = 00010116,
(PID.TID 0000.0001) > atempStartTime    = 1296000.,
(PID.TID 0000.0001) > atempperiod       = 2592000.0,
(PID.TID 0000.0001) >#
(PID.TID 0000.0001) >#aqhstartdate1     = 00010116,
(PID.TID 0000.0001) > aqhStartTime      = 1296000.,
(PID.TID 0000.0001) > aqhperiod         = 2592000.0,
(PID.TID 0000.0001) >#
(PID.TID 0000.0001) >#precipstartdate1  = 00010116,
(PID.TID 0000.0001) > precipStartTime   = 1296000.,
(PID.TID 0000.0001) > precipperiod      = 2592000.0,
(PID.TID 0000.0001) >#
(PID.TID 0000.0001) >#snowprecipstartdate1= 00010116,
(PID.TID 0000.0001) > snowprecipStartTime = 1296000.,
(PID.TID 0000.0001) > snowprecipperiod    = 2592000.,
(PID.TID 0000.0001) >#
(PID.TID 0000.0001) >#runoffstartdate1  = 00010116,
(PID.TID 0000.0001) > runoffStartTime   = 1296000.,
(PID.TID 0000.0001) > runoffperiod      = 2592000.0,
(PID.TID 0000.0001) >#
(PID.TID 0000.0001) >#uwindstartdate1   = 00010116,
(PID.TID 0000.0001) > uwindStartTime    = 1296000.,
(PID.TID 0000.0001) > uwindperiod       = 2592000.0,
(PID.TID 0000.0001) >#
(PID.TID 0000.0001) >#vwindstartdate1   = 00010116,
(PID.TID 0000.0001) > vwindStartTime    = 1296000.,
(PID.TID 0000.0001) > vwindperiod       = 2592000.0,
(PID.TID 0000.0001) >#
(PID.TID 0000.0001) >#ustressstartdate1 = 00010116,
(PID.TID 0000.0001) > ustressStartTime  = 1296000.,
(PID.TID 0000.0001) > ustressperiod     = 2592000.0,
(PID.TID 0000.0001) >#
(PID.TID 0000.0001) >#vstressstartdate1 = 00010116,
(PID.TID 0000.0001) > vstressStartTime  = 1296000.,
(PID.TID 0000.0001) > vstressperiod     = 2592000.0,
(PID.TID 0000.0001) >#
(PID.TID 0000.0001) >#wspeedstartdate1  = 00010116,
(PID.TID 0000.0001) > wspeedStartTime   = 1296000.,
(PID.TID 0000.0001) > wspeedperiod      = 2592000.0,
(PID.TID 0000.0001) >#
(PID.TID 0000.0001) >#swdownstartdate1  = 00010116,
(PID.TID 0000.0001) > swdownStartTime   = 1296000.,
(PID.TID 0000.0001) > swdownperiod      = 2592000.0,
(PID.TID 0000.0001) >#
(PID.TID 0000.0001) >#lwdownstartdate1  = 00010116,
(PID.TID 0000.0001) > lwdownStartTime   = 1296000.,
(PID.TID 0000.0001) > lwdownperiod      = 2592000.0,
(PID.TID 0000.0001) >#
(PID.TID 0000.0001) > climsssStartTime   = 1296000.,
(PID.TID 0000.0001) >#climsssstartdate1  = 00010116,
(PID.TID 0000.0001) > climsssperiod      = 2592000.0,
(PID.TID 0000.0001) >#
(PID.TID 0000.0001) >#climsststartdate1  = 00010116,
(PID.TID 0000.0001) > climsstStartTime   = 1296000.,
(PID.TID 0000.0001) > climsstperiod      = 2592000.0,
(PID.TID 0000.0001) >#
(PID.TID 0000.0001) > atempfile         = 'core_t_Air_cs32.bin',
(PID.TID 0000.0001) > aqhfile           = 'core_q_air_cs32.bin',
(PID.TID 0000.0001) > ustressfile       = 'trenberth_taux.bin',
(PID.TID 0000.0001) > vstressfile       = 'trenberth_tauy.bin',
(PID.TID 0000.0001) >#uwindfile         = 'core_u_wind_cs32.bin',
(PID.TID 0000.0001) >#vwindfile         = 'core_v_wind_cs32.bin',
(PID.TID 0000.0001) > wspeedfile        = 'core_wndSpd_cs32.bin',
(PID.TID 0000.0001) > precipfile        = 'core_prec_1_cs32.bin',
(PID.TID 0000.0001) > snowprecipfile    = 'core_snwP_1_cs32.bin',
(PID.TID 0000.0001) > lwdownfile        = 'core_dwnLw_cs32.bin',
(PID.TID 0000.0001) > swdownfile        = 'core_dwnSw_cs32.bin',
(PID.TID 0000.0001) > runoffFile        = 'core_rnof_1_cs32.bin'
(PID.TID 0000.0001) > climsstfile       = 'lev_surfT_cs_12m.bin',
(PID.TID 0000.0001) > climsssfile       = 'lev_surfS_cs_12m.bin',
(PID.TID 0000.0001) >#
(PID.TID 0000.0001) > /
(PID.TID 0000.0001) >
(PID.TID 0000.0001) ># *********************
(PID.TID 0000.0001) > &EXF_NML_03
(PID.TID 0000.0001) > /
(PID.TID 0000.0001) >
(PID.TID 0000.0001) ># *********************
(PID.TID 0000.0001) > &EXF_NML_04
(PID.TID 0000.0001) > /
(PID.TID 0000.0001) 
(PID.TID 0000.0001) EXF_READPARMS: reading EXF_NML_01
(PID.TID 0000.0001) EXF_READPARMS: reading EXF_NML_02
(PID.TID 0000.0001) EXF_READPARMS: reading EXF_NML_03
(PID.TID 0000.0001) EXF_READPARMS: finished reading data.exf
(PID.TID 0000.0001)  GM_READPARMS: opening data.gmredi
(PID.TID 0000.0001)  OPEN_COPY_DATA_FILE: opening file data.gmredi
(PID.TID 0000.0001) // =======================================================
(PID.TID 0000.0001) // Parameter file "data.gmredi"
(PID.TID 0000.0001) // =======================================================
(PID.TID 0000.0001) ># GM+Redi package parameters:
(PID.TID 0000.0001) >
(PID.TID 0000.0001) >#-from MOM :
(PID.TID 0000.0001) ># GM_background_K: 	G & Mc.W  diffusion coefficient
(PID.TID 0000.0001) ># GM_maxSlope    :	max slope of isopycnals
(PID.TID 0000.0001) ># GM_Scrit       :	transition for scaling diffusion coefficient
(PID.TID 0000.0001) ># GM_Sd          :	half width scaling for diffusion coefficient
(PID.TID 0000.0001) ># GM_taper_scheme:	slope clipping or one of the tapering schemes
(PID.TID 0000.0001) ># GM_Kmin_horiz  :	horizontal diffusion minimum value
(PID.TID 0000.0001) >
(PID.TID 0000.0001) >#-Option parameters (needs to "define" options in GMREDI_OPTIONS.h")
(PID.TID 0000.0001) ># GM_isopycK     :	isopycnal diffusion coefficient (default=GM_background_K)
(PID.TID 0000.0001) ># GM_AdvForm     :	turn on GM Advective form       (default=Skew flux form)
(PID.TID 0000.0001) >
(PID.TID 0000.0001) > &GM_PARM01
(PID.TID 0000.0001) >  GM_Visbeck_alpha   = 0.,
(PID.TID 0000.0001) >  GM_background_K    = 800.,
(PID.TID 0000.0001) ># GM_AdvForm         = .TRUE.,
(PID.TID 0000.0001) ># GM_background_K    = 10.,
(PID.TID 0000.0001) ># GM_Visbeck_alpha   = 1.e-2,
(PID.TID 0000.0001) >  GM_Visbeck_length  = 2.e+5,
(PID.TID 0000.0001) >  GM_Visbeck_depth   = 1.e+3,
(PID.TID 0000.0001) >  GM_Visbeck_maxval_K= 2.5e+3,
(PID.TID 0000.0001) >  GM_taper_scheme    = 'gkw91',
(PID.TID 0000.0001) ># GM_Small_Number    = 1.e-18,
(PID.TID 0000.0001) >  GM_maxSlope        = 1.e-2,
(PID.TID 0000.0001) >  GM_Kmin_horiz      = 50.,
(PID.TID 0000.0001) >  GM_Scrit           = 4.e-3,
(PID.TID 0000.0001) >  GM_Sd              = 1.e-3,
(PID.TID 0000.0001) > /
(PID.TID 0000.0001) >
(PID.TID 0000.0001) 
(PID.TID 0000.0001)  GM_READPARMS: finished reading data.gmredi
(PID.TID 0000.0001) 
(PID.TID 0000.0001)  SEAICE_READPARMS: opening data.seaice
(PID.TID 0000.0001)  OPEN_COPY_DATA_FILE: opening file data.seaice
(PID.TID 0000.0001) // =======================================================
(PID.TID 0000.0001) // Parameter file "data.seaice"
(PID.TID 0000.0001) // =======================================================
(PID.TID 0000.0001) ># SEAICE parameters
(PID.TID 0000.0001) > &SEAICE_PARM01
(PID.TID 0000.0001) > LSR_ERROR        = 1.E-12,
(PID.TID 0000.0001) > /
(PID.TID 0000.0001) 
(PID.TID 0000.0001)  SEAICE_READPARMS: finished reading data.seaice
(PID.TID 0000.0001)  THSICE_READPARMS: opening data.ice
(PID.TID 0000.0001)  OPEN_COPY_DATA_FILE: opening file data.ice
(PID.TID 0000.0001) // =======================================================
(PID.TID 0000.0001) // Parameter file "data.ice"
(PID.TID 0000.0001) // =======================================================
(PID.TID 0000.0001) > &THSICE_CONST
(PID.TID 0000.0001) > Tf0kel  = 273.15,
(PID.TID 0000.0001) >#- with LANL albedo:
(PID.TID 0000.0001) >#albWarmSnow= 0.75,
(PID.TID 0000.0001) >#- for full ice-fraction :
(PID.TID 0000.0001) >#iceMaskMin = 1.,
(PID.TID 0000.0001) >#hThinIce   = 0.01,
(PID.TID 0000.0001) >#fracEnMelt = 0.,
(PID.TID 0000.0001) >#hThickIce  = 100.,
(PID.TID 0000.0001) >#- with fractional ice:
(PID.TID 0000.0001) > iceMaskMin = 0.05,
(PID.TID 0000.0001) > hiMax      = 10.,
(PID.TID 0000.0001) > hsMax      = 10.,
(PID.TID 0000.0001) > dhSnowLin  = 0.1,
(PID.TID 0000.0001) > fracEnFreez= 0.4,
(PID.TID 0000.0001) > hNewIceMax = 1.,
(PID.TID 0000.0001) >#albIceMax  = 0.7,
(PID.TID 0000.0001) >#albIceMin  = 0.7,
(PID.TID 0000.0001) >#albColdSnow= 0.85,
(PID.TID 0000.0001) > albWarmSnow= 0.60,
(PID.TID 0000.0001) > tempSnowAlb= -5.,
(PID.TID 0000.0001) > albOldSnow = 0.60,
(PID.TID 0000.0001) >#hNewSnowAge= 2.e-3,
(PID.TID 0000.0001) >#snowAgTime = 4320000.,
(PID.TID 0000.0001) > albIceMax  = 0.60,
(PID.TID 0000.0001) >#albIceMin  = 0.20,
(PID.TID 0000.0001) > hAlbIce    = 0.44,
(PID.TID 0000.0001) > hAlbSnow   = 0.15,
(PID.TID 0000.0001) > /
(PID.TID 0000.0001) >
(PID.TID 0000.0001) > &THSICE_PARM01
(PID.TID 0000.0001) >#StartIceModel=1,
(PID.TID 0000.0001) > thSIceAdvScheme=77,
(PID.TID 0000.0001) >#thSIce_diffK   =800.,
(PID.TID 0000.0001) > stressReduction=0.,
(PID.TID 0000.0001) >#thSIce_taveFreq=2592000.,
(PID.TID 0000.0001) >#thSIce_diagFreq=2592000.,
(PID.TID 0000.0001) >#thSIce_monFreq =2592000.,
(PID.TID 0000.0001) > /
(PID.TID 0000.0001) >
(PID.TID 0000.0001) 
(PID.TID 0000.0001)  THSICE_READPARMS: read THSICE_CONST
(PID.TID 0000.0001)  THSICE_READPARMS: read THSICE_PARM01
 ThSI:       rhos        =  3.3000000000000E+02
 ThSI:       rhoi        =  9.0000000000000E+02
 ThSI:       rhosw       =  1.0350000000000E+03
 ThSI:       rhofw       =  1.0000000000000E+03
 ThSI:       floodFac    =  4.0909090909091E-01
 ThSI:       cpIce       =  2.1060000000000E+03
 ThSI:       cpWater     =  3.9940000000000E+03
 ThSI:       kIce        =  2.0300000000000E+00
 ThSI:       kSnow       =  3.0000000000000E-01
 ThSI:       bMeltCoef   =  6.0000000000000E-03
 ThSI:       Lfresh      =  3.3400000000000E+05
 ThSI:       qsnow       =  3.3400000000000E+05
 ThSI:       albColdSnow =  8.5000000000000E-01
 ThSI:       albWarmSnow =  6.0000000000000E-01
 ThSI:       tempSnowAlb = -5.0000000000000E+00
 ThSI:       albOldSnow  =  6.0000000000000E-01
 ThSI:       hNewSnowAge =  2.0000000000000E-03
 ThSI:       snowAgTime  =  4.3200000000000E+06
 ThSI:       albIceMax   =  6.0000000000000E-01
 ThSI:       albIceMin   =  2.0000000000000E-01
 ThSI:       hAlbIce     =  4.4000000000000E-01
 ThSI:       hAlbSnow    =  1.5000000000000E-01
 ThSI:       i0swFrac    =  3.0000000000000E-01
 ThSI:       ksolar      =  1.5000000000000E+00
 ThSI:       dhSnowLin   =  1.0000000000000E-01
 ThSI:       saltIce     =  4.0000000000000E+00
 ThSI:       S_winton    =  1.0000000000000E+00
 ThSI:       mu_Tf       =  5.4000000000000E-02
 ThSI:       Tf0kel      =  2.7315000000000E+02
 ThSI:       Tmlt1       = -5.4000000000000E-02
 ThSI:       Terrmax     =  5.0000000000000E-01
 ThSI:       nitMaxTsf   =        20
 ThSI:       hIceMin     =  1.0000000000000E-02
 ThSI:       hiMax       =  1.0000000000000E+01
 ThSI:       hsMax       =  1.0000000000000E+01
 ThSI:       iceMaskMax  =  1.0000000000000E+00
 ThSI:       iceMaskMin  =  5.0000000000000E-02
 ThSI:       fracEnMelt  =  4.0000000000000E-01
 ThSI:       fracEnFreez =  4.0000000000000E-01
 ThSI:       hThinIce    =  2.0000000000000E-01
 ThSI:       hThickIce   =  2.5000000000000E+00
 ThSI:       hNewIceMax  =  1.0000000000000E+00
 ThSI: stressReduction   =  0.0000000000000E+00
 ThSI: thSIce_skipThermo =         F
 ThSI: thSIceAdvScheme   =        77
 ThSI: thSIceBalanceAtmFW=         0
 ThSI: thSIce_diffK      =  0.0000000000000E+00
 ThSI: thSIce_deltaT     =  8.6400000000000E+04
 ThSI: ocean_deltaT      =  8.6400000000000E+04
 ThSI: stepFwd_oceMxL    =         F
 ThSI: tauRelax_MxL      =  0.0000000000000E+00
 ThSI: tauRelax_MxL_salt =  0.0000000000000E+00
 ThSI: hMxL_default      =  5.0000000000000E+01
 ThSI: sMxL_default      =  3.5000000000000E+01
 ThSI: vMxL_default      =  5.0000000000000E-02
 ThSI: thSIce_taveFreq   =  0.0000000000000E+00
 ThSI: thSIce_diagFreq   =  0.0000000000000E+00
 ThSI: thSIce_monFreq    =  1.0000000000000E+00
 ThSI: startIceModel     =         0
(PID.TID 0000.0001)  DIAGNOSTICS_READPARMS: opening data.diagnostics
(PID.TID 0000.0001)  OPEN_COPY_DATA_FILE: opening file data.diagnostics
(PID.TID 0000.0001) // =======================================================
(PID.TID 0000.0001) // Parameter file "data.diagnostics"
(PID.TID 0000.0001) // =======================================================
(PID.TID 0000.0001) ># Diagnostic Package Choices
(PID.TID 0000.0001) >#--------------------
(PID.TID 0000.0001) >#  dumpAtLast (logical): always write output at the end of simulation (default=F)
(PID.TID 0000.0001) >#  diag_mnc   (logical): write to NetCDF files (default=useMNC)
(PID.TID 0000.0001) >#--for each output-stream:
(PID.TID 0000.0001) >#  fileName(n) : prefix of the output file name (max 80c long) for outp.stream n
(PID.TID 0000.0001) >#  frequency(n):< 0 : write snap-shot output every |frequency| seconds
(PID.TID 0000.0001) >#               > 0 : write time-average output every frequency seconds
(PID.TID 0000.0001) >#  timePhase(n)     : write at time = timePhase + multiple of |frequency|
(PID.TID 0000.0001) >#    averagingFreq  : frequency (in s) for periodic averaging interval
(PID.TID 0000.0001) >#    averagingPhase : phase     (in s) for periodic averaging interval
(PID.TID 0000.0001) >#    repeatCycle    : number of averaging intervals in 1 cycle
(PID.TID 0000.0001) >#  levels(:,n) : list of levels to write to file (Notes: declared as REAL)
(PID.TID 0000.0001) >#                when this entry is missing, select all common levels of this list
(PID.TID 0000.0001) >#  fields(:,n) : list of selected diagnostics fields (8.c) in outp.stream n
(PID.TID 0000.0001) >#                (see "available_diagnostics.log" file for the full list of diags)
(PID.TID 0000.0001) >#  missing_value(n) : missing value for real-type fields in output file "n"
(PID.TID 0000.0001) >#  fileFlags(n)     : specific code (8c string) for output file "n"
(PID.TID 0000.0001) >#--------------------
(PID.TID 0000.0001) > &DIAGNOSTICS_LIST
(PID.TID 0000.0001) ># diag_mnc     = .FALSE.,
(PID.TID 0000.0001) ># dumpAtLast   = .TRUE.,
(PID.TID 0000.0001) >#--
(PID.TID 0000.0001) >  fields(1:12,1) = 'ETAN    ','ETANSQ  ','DETADT2 ','PHIBOT  ','PHIBOTSQ',
(PID.TID 0000.0001) >                   'oceTAUX ','oceTAUY ',
(PID.TID 0000.0001) >                   'oceQnet ','oceSflux','oceFWflx',
(PID.TID 0000.0001) >#                  'surForcT','surForcS','TFLUX   ','SFLUX   ','oceFreez',
(PID.TID 0000.0001) >                   'TRELAX  ','SRELAX  ',
(PID.TID 0000.0001) >#                  'GM_VisbK',
(PID.TID 0000.0001) >   fileName(1) = 'surfDiag',
(PID.TID 0000.0001) >  frequency(1) = 1555200000.,
(PID.TID 0000.0001) >
(PID.TID 0000.0001) >  fields(1:15,2) = 'UVEL    ','VVEL    ','WVEL    ','PHIHYD  ',
(PID.TID 0000.0001) >                   'VVELMASS','UVELMASS','WVELSQ  ',
(PID.TID 0000.0001) >                   'THETA   ','UTHMASS ','VTHMASS ','WTHMASS ',
(PID.TID 0000.0001) >                   'SALT    ','USLTMASS','VSLTMASS','WSLTMASS',
(PID.TID 0000.0001) ># do not specify levels => all levels are selected
(PID.TID 0000.0001) >#  fileName(2) = 'dynDiag',
(PID.TID 0000.0001) >  frequency(2) = 1555200000.,
(PID.TID 0000.0001) >
(PID.TID 0000.0001) >  fields(1:8,3)  = 'DRHODR  ','RHOAnoma','CONVADJ ',
(PID.TID 0000.0001) >#                  'GM_PsiX ','GM_PsiY ',
(PID.TID 0000.0001) >                   'GM_Kwx  ','GM_Kwy  ','GM_Kwz  ',
(PID.TID 0000.0001) >                   'GM_Kux  ','GM_Kvy  ',
(PID.TID 0000.0001) >#                  'GM_Kuz  ','GM_Kvz  ',
(PID.TID 0000.0001) >#- disable this output list by commenting out the file name
(PID.TID 0000.0001) >#  fileName(3) = 'oceDiag',
(PID.TID 0000.0001) >  frequency(3) = 1555200000.,
(PID.TID 0000.0001) >
(PID.TID 0000.0001) >  fields(1:7,4)  = 'ADVx_TH ','ADVy_TH ','ADVr_TH ',
(PID.TID 0000.0001) >                   'DIFx_TH ','DIFy_TH ','DFrE_TH ',
(PID.TID 0000.0001) >                   'DFrI_TH ',
(PID.TID 0000.0001) >#                  'ADVx_SLT',
(PID.TID 0000.0001) >#  fileName(4) = 'flxDiag',
(PID.TID 0000.0001) >  frequency(4) = 1728000.,
(PID.TID 0000.0001) >
(PID.TID 0000.0001) >  fields(1:18,5) = 'SI_Fract','SI_Thick','SI_SnowH',
(PID.TID 0000.0001) >                   'SI_Tsrf ','SI_Tice1','SI_Tice2',
(PID.TID 0000.0001) >                   'SI_Qice1','SI_Qice2','SIsnwAge',
(PID.TID 0000.0001) >                   'SIsnwPrc','SIalbedo',
(PID.TID 0000.0001) >                   'SIflx2oc','SIfrw2oc','SIsaltFx',
(PID.TID 0000.0001) >                   'SIflxAtm','SIfrwAtm',
(PID.TID 0000.0001) >#                  'SItOcMxL','SIsOcMxL',
(PID.TID 0000.0001) >                   'THETA   ','SALT    ',
(PID.TID 0000.0001) >   levels(1,5) = 1.,
(PID.TID 0000.0001) >#  fileName(5) = 'thSIceDiag',
(PID.TID 0000.0001) >  frequency(5) = 1555200000.,
(PID.TID 0000.0001) > averagingFreq(5) = 2592000.,
(PID.TID 0000.0001) >   repeatCycle(5) = 12,
(PID.TID 0000.0001) >
(PID.TID 0000.0001) >#-- just to test small frequency in long simulations:
(PID.TID 0000.0001) >  fields(1:1,6) =  'ETANSQ  ',
(PID.TID 0000.0001) >#  fileName(6) = 'check_Diag_aver',
(PID.TID 0000.0001) >  frequency(6) = 1.,
(PID.TID 0000.0001) >
(PID.TID 0000.0001) >  fields(1:1,7) =  'RSURF   ',
(PID.TID 0000.0001) >#  fileName(7) = 'check_Diag_snap',
(PID.TID 0000.0001) >  frequency(7) = -1.,
(PID.TID 0000.0001) > /
(PID.TID 0000.0001) >
(PID.TID 0000.0001) >#--------------------
(PID.TID 0000.0001) ># Parameter for Diagnostics of per level statistics:
(PID.TID 0000.0001) >#--------------------
(PID.TID 0000.0001) >#  diagSt_mnc (logical): write stat-diags to NetCDF files (default=diag_mnc)
(PID.TID 0000.0001) >#  diagSt_regMaskFile : file containing the region-mask to read-in
(PID.TID 0000.0001) >#  nSetRegMskFile   : number of region-mask sets within the region-mask file
(PID.TID 0000.0001) >#  set_regMask(i)   : region-mask set-index that identifies the region "i"
(PID.TID 0000.0001) >#  val_regMask(i)   : region "i" identifier value in the region mask
(PID.TID 0000.0001) >#--for each output-stream:
(PID.TID 0000.0001) >#  stat_fName(n) : prefix of the output file name (max 80c long) for outp.stream n
(PID.TID 0000.0001) >#  stat_freq(n):< 0 : write snap-shot output every |stat_freq| seconds
(PID.TID 0000.0001) >#               > 0 : write time-average output every stat_freq seconds
(PID.TID 0000.0001) >#  stat_phase(n)    : write at time = stat_phase + multiple of |stat_freq|
(PID.TID 0000.0001) >#  stat_region(:,n) : list of "regions" (default: 1 region only=global)
(PID.TID 0000.0001) >#  stat_fields(:,n) : list of selected diagnostics fields (8.c) in outp.stream n
(PID.TID 0000.0001) >#                (see "available_diagnostics.log" file for the full list of diags)
(PID.TID 0000.0001) >#--------------------
(PID.TID 0000.0001) > &DIAG_STATIS_PARMS
(PID.TID 0000.0001) >#- regional mask: 3 lat. band: 1 : y <= -24 ; 2 : -24<y<24 ; 3 : 24 <= y
(PID.TID 0000.0001) > diagSt_regMaskFile='regMask_lat24.bin',
(PID.TID 0000.0001) > nSetRegMskFile = 1,
(PID.TID 0000.0001) > set_regMask(1:3) = 1,  1,  1,
(PID.TID 0000.0001) > val_regMask(1:3) = 1., 2., 3.,
(PID.TID 0000.0001) >#---
(PID.TID 0000.0001) > stat_fields(1:8,1)  = 'ETAN    ','UVEL    ','VVEL    ','WVEL    ',
(PID.TID 0000.0001) >                       'THETA   ','SALT    ','CONVADJ ','DETADT2 ',
(PID.TID 0000.0001) >  stat_fName(1) = 'dynStDiag',
(PID.TID 0000.0001) >   stat_freq(1) = 864000.,
(PID.TID 0000.0001) > stat_fields(1:16,5) = 'SI_Fract','SI_Thick','SI_SnowH',
(PID.TID 0000.0001) >                       'SI_Tsrf ','SI_Tice1','SI_Tice2',
(PID.TID 0000.0001) >                       'SI_Qice1','SI_Qice2',
(PID.TID 0000.0001) >                       'SIsnwPrc','SIalbedo','SIsnwAge',
(PID.TID 0000.0001) >                       'SIflx2oc','SIfrw2oc','SIsaltFx',
(PID.TID 0000.0001) >                       'SIflxAtm','SIfrwAtm',
(PID.TID 0000.0001) >#                      'SItOcMxL','SIsOcMxL',
(PID.TID 0000.0001) > stat_region(1:3,5)  = 1, 3, 0,
(PID.TID 0000.0001) >  stat_fName(5) = 'thSIceStDiag',
(PID.TID 0000.0001) >   stat_freq(5) = 864000.,
(PID.TID 0000.0001) >
(PID.TID 0000.0001) >#-- just to test small frequency in long simulations:
(PID.TID 0000.0001) > stat_fields(1:1,3)  = 'ETANSQ  ',
(PID.TID 0000.0001) ># stat_fName(3) = 'check_StD_aver',
(PID.TID 0000.0001) >   stat_freq(3) = 1.,
(PID.TID 0000.0001) > stat_fields(1:1,4)  = 'RSURF   ',
(PID.TID 0000.0001) ># stat_fName(4) = 'check_StD_snap',
(PID.TID 0000.0001) >   stat_freq(4) = -1.,
(PID.TID 0000.0001) > /
(PID.TID 0000.0001) >
(PID.TID 0000.0001) 
(PID.TID 0000.0001) S/R DIAGNOSTICS_READPARMS, read namelist "diagnostics_list": start
(PID.TID 0000.0001) S/R DIAGNOSTICS_READPARMS, read namelist "diagnostics_list": OK
(PID.TID 0000.0001) S/R DIAGNOSTICS_READPARMS, read namelist "DIAG_STATIS_PARMS": start
(PID.TID 0000.0001) S/R DIAGNOSTICS_READPARMS, read namelist "DIAG_STATIS_PARMS": OK
(PID.TID 0000.0001)  DIAGNOSTICS_READPARMS: global parameter summary:
(PID.TID 0000.0001)  dumpAtLast = /* always write time-ave diags at the end */
(PID.TID 0000.0001)                   F
(PID.TID 0000.0001)     ;
(PID.TID 0000.0001)  diag_mnc =   /* write NetCDF output files */
(PID.TID 0000.0001)                   F
(PID.TID 0000.0001)     ;
(PID.TID 0000.0001)  useMissingValue = /* put MissingValue where mask = 0 */
(PID.TID 0000.0001)                   F
(PID.TID 0000.0001)     ;
(PID.TID 0000.0001)  diagCG_maxIters = /* max number of iters in diag_cg2d */
(PID.TID 0000.0001)                     200
(PID.TID 0000.0001)     ;
(PID.TID 0000.0001)  diagCG_resTarget = /* residual target for diag_cg2d */
(PID.TID 0000.0001)                 1.000000000000000E-07
(PID.TID 0000.0001)     ;
(PID.TID 0000.0001)  diagCG_pcOffDFac = /* preconditioner off-diagonal factor */
(PID.TID 0000.0001)                 9.611687812379854E-01
(PID.TID 0000.0001)     ;
(PID.TID 0000.0001) -----------------------------------------------------
(PID.TID 0000.0001)  DIAGNOSTICS_READPARMS: active diagnostics summary:
(PID.TID 0000.0001) -----------------------------------------------------
(PID.TID 0000.0001) Creating Output Stream: surfDiag
(PID.TID 0000.0001) Output Frequency: 1555200000.000000 ; Phase:           0.000000
(PID.TID 0000.0001)  Averaging Freq.: 1555200000.000000 , Phase:           0.000000 , Cycle:   1
(PID.TID 0000.0001)  missing value: -9.990000000000E+02
(PID.TID 0000.0001)  Levels:    will be set later
(PID.TID 0000.0001)  Fields:    ETAN     ETANSQ   DETADT2  PHIBOT   PHIBOTSQ oceTAUX  oceTAUY  oceQnet  oceSflux oceFWflx
(PID.TID 0000.0001)  Fields:    TRELAX   SRELAX
(PID.TID 0000.0001) -----------------------------------------------------
(PID.TID 0000.0001)  DIAGNOSTICS_READPARMS: statistics diags. summary:
(PID.TID 0000.0001) Creating Stats. Output Stream: dynStDiag
(PID.TID 0000.0001) Output Frequency:     864000.000000 ; Phase:           0.000000
(PID.TID 0000.0001)  Regions:   0
(PID.TID 0000.0001)  Fields:    ETAN     UVEL     VVEL     WVEL     THETA    SALT     CONVADJ  DETADT2
(PID.TID 0000.0001) Creating Stats. Output Stream: thSIceStDiag
(PID.TID 0000.0001) Output Frequency:     864000.000000 ; Phase:           0.000000
(PID.TID 0000.0001)  Regions:   0  1  3
(PID.TID 0000.0001)  Fields:    SI_Fract SI_Thick SI_SnowH SI_Tsrf  SI_Tice1 SI_Tice2 SI_Qice1 SI_Qice2 SIsnwPrc SIalbedo
(PID.TID 0000.0001)  Fields:    SIsnwAge SIflx2oc SIfrw2oc SIsaltFx SIflxAtm SIfrwAtm
(PID.TID 0000.0001) -----------------------------------------------------
(PID.TID 0000.0001) 
(PID.TID 0000.0001) SET_PARMS: done
(PID.TID 0000.0001) Enter INI_VERTICAL_GRID: setInterFDr=    T ; setCenterDr=    F
(PID.TID 0000.0001) tile:   1 ; Read from file grid_cs32.face001.bin
(PID.TID 0000.0001)   => xC yC dxF dyF rA xG yG dxV dyU rAz dxC dyC rAw rAs dxG dyG AngleCS AngleSN
(PID.TID 0000.0001) tile:   2 ; Read from file grid_cs32.face001.bin
(PID.TID 0000.0001)   => xC yC dxF dyF rA xG yG dxV dyU rAz dxC dyC rAw rAs dxG dyG AngleCS AngleSN
(PID.TID 0000.0001) tile:   3 ; Read from file grid_cs32.face002.bin
(PID.TID 0000.0001)   => xC yC dxF dyF rA xG yG dxV dyU rAz dxC dyC rAw rAs dxG dyG AngleCS AngleSN
(PID.TID 0000.0001) tile:   4 ; Read from file grid_cs32.face002.bin
(PID.TID 0000.0001)   => xC yC dxF dyF rA xG yG dxV dyU rAz dxC dyC rAw rAs dxG dyG AngleCS AngleSN
(PID.TID 0000.0001) tile:   5 ; Read from file grid_cs32.face003.bin
(PID.TID 0000.0001)   => xC yC dxF dyF rA xG yG dxV dyU rAz dxC dyC rAw rAs dxG dyG AngleCS AngleSN
(PID.TID 0000.0001) tile:   6 ; Read from file grid_cs32.face003.bin
(PID.TID 0000.0001)   => xC yC dxF dyF rA xG yG dxV dyU rAz dxC dyC rAw rAs dxG dyG AngleCS AngleSN
(PID.TID 0000.0001) tile:   7 ; Read from file grid_cs32.face004.bin
(PID.TID 0000.0001)   => xC yC dxF dyF rA xG yG dxV dyU rAz dxC dyC rAw rAs dxG dyG AngleCS AngleSN
(PID.TID 0000.0001) tile:   8 ; Read from file grid_cs32.face004.bin
(PID.TID 0000.0001)   => xC yC dxF dyF rA xG yG dxV dyU rAz dxC dyC rAw rAs dxG dyG AngleCS AngleSN
(PID.TID 0000.0001) tile:   9 ; Read from file grid_cs32.face005.bin
(PID.TID 0000.0001)   => xC yC dxF dyF rA xG yG dxV dyU rAz dxC dyC rAw rAs dxG dyG AngleCS AngleSN
(PID.TID 0000.0001) tile:  10 ; Read from file grid_cs32.face005.bin
(PID.TID 0000.0001)   => xC yC dxF dyF rA xG yG dxV dyU rAz dxC dyC rAw rAs dxG dyG AngleCS AngleSN
(PID.TID 0000.0001) tile:  11 ; Read from file grid_cs32.face006.bin
(PID.TID 0000.0001)   => xC yC dxF dyF rA xG yG dxV dyU rAz dxC dyC rAw rAs dxG dyG AngleCS AngleSN
(PID.TID 0000.0001) tile:  12 ; Read from file grid_cs32.face006.bin
(PID.TID 0000.0001)   => xC yC dxF dyF rA xG yG dxV dyU rAz dxC dyC rAw rAs dxG dyG AngleCS AngleSN
(PID.TID 0000.0001) %MON XC_max                       =   1.7854351589505E+02
(PID.TID 0000.0001) %MON XC_min                       =  -1.7854351589505E+02
(PID.TID 0000.0001) %MON XC_mean                      =  -1.4199289892029E-14
(PID.TID 0000.0001) %MON XC_sd                        =   1.0355545336287E+02
(PID.TID 0000.0001) %MON XG_max                       =   1.8000000000000E+02
(PID.TID 0000.0001) %MON XG_min                       =  -1.7708797161002E+02
(PID.TID 0000.0001) %MON XG_mean                      =   1.8603515625000E+00
(PID.TID 0000.0001) %MON XG_sd                        =   1.0357130300504E+02
(PID.TID 0000.0001) %MON DXC_max                      =   3.2375185836900E+05
(PID.TID 0000.0001) %MON DXC_min                      =   1.1142031410131E+05
(PID.TID 0000.0001) %MON DXC_mean                     =   2.8605689051214E+05
(PID.TID 0000.0001) %MON DXC_sd                       =   3.4042087138252E+04
(PID.TID 0000.0001) %MON DXF_max                      =   3.2369947500827E+05
(PID.TID 0000.0001) %MON DXF_min                      =   1.2020820513318E+05
(PID.TID 0000.0001) %MON DXF_mean                     =   2.8605437324820E+05
(PID.TID 0000.0001) %MON DXF_sd                       =   3.4050524252539E+04
(PID.TID 0000.0001) %MON DXG_max                      =   3.2375195872773E+05
(PID.TID 0000.0001) %MON DXG_min                      =   1.0098378008791E+05
(PID.TID 0000.0001) %MON DXG_mean                     =   2.8603818508931E+05
(PID.TID 0000.0001) %MON DXG_sd                       =   3.4140406908005E+04
(PID.TID 0000.0001) %MON DXV_max                      =   3.2380418162750E+05
(PID.TID 0000.0001) %MON DXV_min                      =   8.0152299824136E+04
(PID.TID 0000.0001) %MON DXV_mean                     =   2.8603970633619E+05
(PID.TID 0000.0001) %MON DXV_sd                       =   3.4145142117723E+04
(PID.TID 0000.0001) %MON YC_max                       =   8.7940663871962E+01
(PID.TID 0000.0001) %MON YC_min                       =  -8.7940663871962E+01
(PID.TID 0000.0001) %MON YC_mean                      =  -2.3684757858670E-15
(PID.TID 0000.0001) %MON YC_sd                        =   3.8676242969072E+01
(PID.TID 0000.0001) %MON YG_max                       =   9.0000000000000E+01
(PID.TID 0000.0001) %MON YG_min                       =  -9.0000000000000E+01
(PID.TID 0000.0001) %MON YG_mean                      =  -4.1448326252673E-15
(PID.TID 0000.0001) %MON YG_sd                        =   3.8676895860710E+01
(PID.TID 0000.0001) %MON DYC_max                      =   3.2375185836900E+05
(PID.TID 0000.0001) %MON DYC_min                      =   1.1142031410131E+05
(PID.TID 0000.0001) %MON DYC_mean                     =   2.8605689051214E+05
(PID.TID 0000.0001) %MON DYC_sd                       =   3.4042087138252E+04
(PID.TID 0000.0001) %MON DYF_max                      =   3.2369947500827E+05
(PID.TID 0000.0001) %MON DYF_min                      =   1.2020820513318E+05
(PID.TID 0000.0001) %MON DYF_mean                     =   2.8605437324820E+05
(PID.TID 0000.0001) %MON DYF_sd                       =   3.4050524252539E+04
(PID.TID 0000.0001) %MON DYG_max                      =   3.2375195872773E+05
(PID.TID 0000.0001) %MON DYG_min                      =   1.0098378008791E+05
(PID.TID 0000.0001) %MON DYG_mean                     =   2.8603818508931E+05
(PID.TID 0000.0001) %MON DYG_sd                       =   3.4140406908005E+04
(PID.TID 0000.0001) %MON DYU_max                      =   3.2380418162750E+05
(PID.TID 0000.0001) %MON DYU_min                      =   8.0152299824136E+04
(PID.TID 0000.0001) %MON DYU_mean                     =   2.8603970633619E+05
(PID.TID 0000.0001) %MON DYU_sd                       =   3.4145142117723E+04
(PID.TID 0000.0001) %MON RA_max                       =   1.0479260248419E+11
(PID.TID 0000.0001) %MON RA_min                       =   1.4019007022556E+10
(PID.TID 0000.0001) %MON RA_mean                      =   8.2992246709265E+10
(PID.TID 0000.0001) %MON RA_sd                        =   1.7509089299457E+10
(PID.TID 0000.0001) %MON RAW_max                      =   1.0480965274559E+11
(PID.TID 0000.0001) %MON RAW_min                      =   1.2166903467143E+10
(PID.TID 0000.0001) %MON RAW_mean                     =   8.2992246709235E+10
(PID.TID 0000.0001) %MON RAW_sd                       =   1.7481917919656E+10
(PID.TID 0000.0001) %MON RAS_max                      =   1.0480965274559E+11
(PID.TID 0000.0001) %MON RAS_min                      =   1.2166903467143E+10
(PID.TID 0000.0001) %MON RAS_mean                     =   8.2992246709235E+10
(PID.TID 0000.0001) %MON RAS_sd                       =   1.7481917919656E+10
(PID.TID 0000.0001) %MON RAZ_max                      =   1.0484349334619E+11
(PID.TID 0000.0001) %MON RAZ_min                      =   8.8317900612505E+09
(PID.TID 0000.0001) %MON RAZ_mean                     =   8.2992246709235E+10
(PID.TID 0000.0001) %MON RAZ_sd                       =   1.7482297311044E+10
(PID.TID 0000.0001) %MON AngleCS_max                  =   9.9999994756719E-01
(PID.TID 0000.0001) %MON AngleCS_min                  =  -9.9968286884824E-01
(PID.TID 0000.0001) %MON AngleCS_mean                 =   3.3078922539000E-01
(PID.TID 0000.0001) %MON AngleCS_sd                   =   6.2496278958502E-01
(PID.TID 0000.0001) %MON AngleSN_max                  =   9.9968286884824E-01
(PID.TID 0000.0001) %MON AngleSN_min                  =  -9.9999994756719E-01
(PID.TID 0000.0001) %MON AngleSN_mean                 =  -3.3078922539000E-01
(PID.TID 0000.0001) %MON AngleSN_sd                   =   6.2496278958502E-01
(PID.TID 0000.0001)  MDS_READ_FIELD: opening global file: bathy_Hmin50.bin
(PID.TID 0000.0001) GAD_INIT_FIXED: GAD_OlMinSize=  1  0  1
(PID.TID 0000.0001) 
(PID.TID 0000.0001) // ===================================
(PID.TID 0000.0001) // GAD parameters :
(PID.TID 0000.0001) // ===================================
(PID.TID 0000.0001) tempAdvScheme =   /* Temp. Horiz.Advection scheme selector */
(PID.TID 0000.0001)                       2
(PID.TID 0000.0001)     ;
(PID.TID 0000.0001) tempVertAdvScheme =   /* Temp. Vert. Advection scheme selector */
(PID.TID 0000.0001)                       2
(PID.TID 0000.0001)     ;
(PID.TID 0000.0001) tempMultiDimAdvec =   /* use Muti-Dim Advec method for Temp */
(PID.TID 0000.0001)                   F
(PID.TID 0000.0001)     ;
(PID.TID 0000.0001) tempSOM_Advection = /* use 2nd Order Moment Advection for Temp */
(PID.TID 0000.0001)                   F
(PID.TID 0000.0001)     ;
(PID.TID 0000.0001) AdamsBashforthGt = /* apply Adams-Bashforth extrapolation on Gt */
(PID.TID 0000.0001)                   T
(PID.TID 0000.0001)     ;
(PID.TID 0000.0001) AdamsBashforth_T = /* apply Adams-Bashforth extrapolation on Temp */
(PID.TID 0000.0001)                   F
(PID.TID 0000.0001)     ;
(PID.TID 0000.0001) saltAdvScheme =   /* Salt. Horiz.advection scheme selector */
(PID.TID 0000.0001)                       2
(PID.TID 0000.0001)     ;
(PID.TID 0000.0001) saltVertAdvScheme =   /* Salt. Vert. Advection scheme selector */
(PID.TID 0000.0001)                       2
(PID.TID 0000.0001)     ;
(PID.TID 0000.0001) saltMultiDimAdvec =   /* use Muti-Dim Advec method for Salt */
(PID.TID 0000.0001)                   F
(PID.TID 0000.0001)     ;
(PID.TID 0000.0001) saltSOM_Advection = /* use 2nd Order Moment Advection for Salt */
(PID.TID 0000.0001)                   F
(PID.TID 0000.0001)     ;
(PID.TID 0000.0001) AdamsBashforthGs = /* apply Adams-Bashforth extrapolation on Gs */
(PID.TID 0000.0001)                   T
(PID.TID 0000.0001)     ;
(PID.TID 0000.0001) AdamsBashforth_S = /* apply Adams-Bashforth extrapolation on Salt */
(PID.TID 0000.0001)                   F
(PID.TID 0000.0001)     ;
(PID.TID 0000.0001) // ===================================
(PID.TID 0000.0001) 
(PID.TID 0000.0001) // =======================================================
(PID.TID 0000.0001) // External forcing (EXF) configuration >>> START <<<
(PID.TID 0000.0001) // =======================================================
(PID.TID 0000.0001) 
(PID.TID 0000.0001)  EXF general parameters:
(PID.TID 0000.0001) 
(PID.TID 0000.0001) exf_iprec = /* exf file precision */
(PID.TID 0000.0001)                      64
(PID.TID 0000.0001)     ;
(PID.TID 0000.0001) useExfYearlyFields = /* add extension _YEAR to input file names */
(PID.TID 0000.0001)                   F
(PID.TID 0000.0001)     ;
(PID.TID 0000.0001) twoDigitYear = /* use 2-digit year extension */
(PID.TID 0000.0001)                   F
(PID.TID 0000.0001)     ;
(PID.TID 0000.0001) useExfCheckRange = /* check for fields range */
(PID.TID 0000.0001)                   T
(PID.TID 0000.0001)     ;
(PID.TID 0000.0001) diags_opOceWeighted = /* weight flux diags by open-ocean fraction */
(PID.TID 0000.0001)                   T
(PID.TID 0000.0001)     ;
(PID.TID 0000.0001) exf_debugLev = /* select EXF-debug printing level */
(PID.TID 0000.0001)                       2
(PID.TID 0000.0001)     ;
(PID.TID 0000.0001) exf_monFreq  = /* EXF monitor frequency [ s ] */
(PID.TID 0000.0001)                 0.000000000000000E+00
(PID.TID 0000.0001)     ;
(PID.TID 0000.0001) exf_adjMonSelect = /* select group of exf AD-variables to monitor */
(PID.TID 0000.0001)                       1
(PID.TID 0000.0001)     ;
(PID.TID 0000.0001) repeatPeriod = /* period for cycling forcing dataset [ s ] */
(PID.TID 0000.0001)                 3.110400000000000E+07
(PID.TID 0000.0001)     ;
(PID.TID 0000.0001) climTempFreeze= /* Minimum climatological temperature [deg.C] */
(PID.TID 0000.0001)                -1.900000000000000E+00
(PID.TID 0000.0001)     ;
(PID.TID 0000.0001) windStressMax = /* Maximum absolute windstress [ Pa ] */
(PID.TID 0000.0001)                 2.000000000000000E+00
(PID.TID 0000.0001)     ;
(PID.TID 0000.0001) stressIsOnCgrid = /* set u,v_stress on Arakawa C-grid */
(PID.TID 0000.0001)                   T
(PID.TID 0000.0001)     ;
(PID.TID 0000.0001) rotateStressOnAgrid = /* rotate u,v_stress on Arakawa A-grid */
(PID.TID 0000.0001)                   F
(PID.TID 0000.0001)     ;
(PID.TID 0000.0001) cen2kel = /* conversion of deg. Centigrade to Kelvin [K] */
(PID.TID 0000.0001)                 2.731500000000000E+02
(PID.TID 0000.0001)     ;
(PID.TID 0000.0001) gravity_mks= /* gravitational acceleration [m/s^2] */
(PID.TID 0000.0001)                 9.810000000000000E+00
(PID.TID 0000.0001)     ;
(PID.TID 0000.0001) atmrho =  /* mean atmospheric density [kg/m^3] */
(PID.TID 0000.0001)                 1.220000000000000E+00
(PID.TID 0000.0001)     ;
(PID.TID 0000.0001) atmcp =  /* mean atmospheric specific heat [J/kg/K] */
(PID.TID 0000.0001)                 1.005000000000000E+03
(PID.TID 0000.0001)     ;
(PID.TID 0000.0001) flamb =  /* latent heat of evaporation [J/kg] */
(PID.TID 0000.0001)                 2.500000000000000E+06
(PID.TID 0000.0001)     ;
(PID.TID 0000.0001) flami =  /* latent heat of pure-ice melting [J/kg] */
(PID.TID 0000.0001)                 3.340000000000000E+05
(PID.TID 0000.0001)     ;
(PID.TID 0000.0001) cvapor_fac = /* const. for Saturation calculation [?] */
(PID.TID 0000.0001)                 6.403800000000000E+05
(PID.TID 0000.0001)     ;
(PID.TID 0000.0001) cvapor_exp = /* const. for Saturation calculation [?] */
(PID.TID 0000.0001)                 5.107400000000000E+03
(PID.TID 0000.0001)     ;
(PID.TID 0000.0001) cvapor_fac_ice= /* const. for Saturation calculation [?] */
(PID.TID 0000.0001)                 1.163780000000000E+07
(PID.TID 0000.0001)     ;
(PID.TID 0000.0001) cvapor_exp_ice= /* const. for Saturation calculation [?] */
(PID.TID 0000.0001)                 5.897800000000000E+03
(PID.TID 0000.0001)     ;
(PID.TID 0000.0001) humid_fac = /* humidity coef. in virtual temp. [(kg/kg)^-1] */
(PID.TID 0000.0001)                 6.080000000000000E-01
(PID.TID 0000.0001)     ;
(PID.TID 0000.0001) gamma_blk = /* adiabatic lapse rate [?] */
(PID.TID 0000.0001)                 1.000000000000000E-02
(PID.TID 0000.0001)     ;
(PID.TID 0000.0001) saltsat = /* reduction of Qsat over salty water [-] */
(PID.TID 0000.0001)                 9.800000000000000E-01
(PID.TID 0000.0001)     ;
(PID.TID 0000.0001) noNegativeEvap = /* prevent negative Evaporation */
(PID.TID 0000.0001)                   F
(PID.TID 0000.0001)     ;
(PID.TID 0000.0001) sstExtrapol = /* extrapolation coeff from lev. 1 & 2 to surf [-] */
(PID.TID 0000.0001)                 0.000000000000000E+00
(PID.TID 0000.0001)     ;
(PID.TID 0000.0001) cDrag_1 = /* coef used in drag calculation [m/s] */
(PID.TID 0000.0001)                 2.700000000000000E-03
(PID.TID 0000.0001)     ;
(PID.TID 0000.0001) cDrag_2 = /* coef used in drag calculation [-] */
(PID.TID 0000.0001)                 1.420000000000000E-04
(PID.TID 0000.0001)     ;
(PID.TID 0000.0001) cDrag_3 = /* coef used in drag calculation [s/m] */
(PID.TID 0000.0001)                 7.640000000000000E-05
(PID.TID 0000.0001)     ;
(PID.TID 0000.0001) cDrag_8 = /* coef used in drag calculation [(s/m)^6] */
(PID.TID 0000.0001)                 1.234567000000000E+05
(PID.TID 0000.0001)     ;
(PID.TID 0000.0001) cDragMax = /* maximum drag (Large and Yeager, 2009) [-] */
(PID.TID 0000.0001)                 1.234567000000000E+05
(PID.TID 0000.0001)     ;
(PID.TID 0000.0001) umax = /* at maximum wind (Large and Yeager, 2009) [m/s] */
(PID.TID 0000.0001)                 1.234567000000000E+05
(PID.TID 0000.0001)     ;
(PID.TID 0000.0001) cStanton_1 = /* coef used in Stanton number calculation [-] */
(PID.TID 0000.0001)                 3.270000000000000E-02
(PID.TID 0000.0001)     ;
(PID.TID 0000.0001) cStanton_2 = /* coef used in Stanton number calculation [-] */
(PID.TID 0000.0001)                 1.800000000000000E-02
(PID.TID 0000.0001)     ;
(PID.TID 0000.0001) cDalton = /* Dalton number [-] */
(PID.TID 0000.0001)                 3.460000000000000E-02
(PID.TID 0000.0001)     ;
(PID.TID 0000.0001) exf_scal_BulkCdn= /* Drag coefficient scaling factor [-] */
(PID.TID 0000.0001)                 1.000000000000000E+00
(PID.TID 0000.0001)     ;
(PID.TID 0000.0001) zolmin = /* minimum stability parameter [?] */
(PID.TID 0000.0001)                -1.000000000000000E+02
(PID.TID 0000.0001)     ;
(PID.TID 0000.0001) psim_fac = /* coef used in turbulent fluxes calculation [-] */
(PID.TID 0000.0001)                 5.000000000000000E+00
(PID.TID 0000.0001)     ;
(PID.TID 0000.0001) zref =  /* reference height [ m ] */
(PID.TID 0000.0001)                 1.000000000000000E+01
(PID.TID 0000.0001)     ;
(PID.TID 0000.0001) hu =  /* height of mean wind [ m ] */
(PID.TID 0000.0001)                 1.000000000000000E+01
(PID.TID 0000.0001)     ;
(PID.TID 0000.0001) ht =  /* height of mean temperature [ m ] */
(PID.TID 0000.0001)                 1.000000000000000E+01
(PID.TID 0000.0001)     ;
(PID.TID 0000.0001) hq =  /* height of mean spec.humidity [ m ] */
(PID.TID 0000.0001)                 1.000000000000000E+01
(PID.TID 0000.0001)     ;
(PID.TID 0000.0001) uMin = /* minimum wind speed [m/s] */
(PID.TID 0000.0001)                 5.000000000000000E-01
(PID.TID 0000.0001)     ;
(PID.TID 0000.0001) useStabilityFct_overIce= /* transfert Coeffs over sea-ice depend on stability */
(PID.TID 0000.0001)                   F
(PID.TID 0000.0001)     ;
(PID.TID 0000.0001) exf_iceCd = /* drag coefficient over sea-ice (fixed) [-] */
(PID.TID 0000.0001)                 1.630000000000000E-03
(PID.TID 0000.0001)     ;
(PID.TID 0000.0001) exf_iceCe = /* transfert coeff. over sea-ice, for Evap (fixed) [-] */
(PID.TID 0000.0001)                 1.630000000000000E-03
(PID.TID 0000.0001)     ;
(PID.TID 0000.0001) exf_iceCh = /* transfert coeff. over sea-ice, Sens.Heat.(fixed)[-] */
(PID.TID 0000.0001)                 1.630000000000000E-03
(PID.TID 0000.0001)     ;
(PID.TID 0000.0001) exf_albedo =  /* Sea-water albedo [-] */
(PID.TID 0000.0001)                 6.600000000000000E-02
(PID.TID 0000.0001)     ;
(PID.TID 0000.0001) useExfZenAlbedo = /* Sea-water albedo varies with zenith angle */
(PID.TID 0000.0001)                   F
(PID.TID 0000.0001)     ;
(PID.TID 0000.0001) select_ZenAlbedo = /* Sea-water albedo computation method */
(PID.TID 0000.0001)                       0
(PID.TID 0000.0001)     ;
(PID.TID 0000.0001) useExfZenIncoming = /* compute incoming solar radiation */
(PID.TID 0000.0001)                   F
(PID.TID 0000.0001)     ;
(PID.TID 0000.0001) ocean_emissivity = /* longwave ocean-surface emissivity [-] */
(PID.TID 0000.0001)                 1.000000000000000E+00
(PID.TID 0000.0001)     ;
(PID.TID 0000.0001) ice_emissivity = /* longwave seaice emissivity [-] */
(PID.TID 0000.0001)                 9.500000000000000E-01
(PID.TID 0000.0001)     ;
(PID.TID 0000.0001) snow_emissivity = /* longwave snow  emissivity [-] */
(PID.TID 0000.0001)                 9.500000000000000E-01
(PID.TID 0000.0001)     ;
(PID.TID 0000.0001) 
(PID.TID 0000.0001)  EXF main CPP flags:
(PID.TID 0000.0001) 
(PID.TID 0000.0001) // USE_EXF_INTERPOLATION:          NOT defined
(PID.TID 0000.0001) // ALLOW_ATM_TEMP:                     defined
(PID.TID 0000.0001) // ALLOW_ATM_WIND (useAtmWind):    NOT defined
(PID.TID 0000.0001) // ALLOW_DOWNWARD_RADIATION:           defined
(PID.TID 0000.0001) // ALLOW_BULKFORMULAE:                 defined
(PID.TID 0000.0001) 
(PID.TID 0000.0001)    Zonal wind stress forcing starts at             1296000.
(PID.TID 0000.0001)    Zonal wind stress forcing period is             2592000.
(PID.TID 0000.0001)    Zonal wind stress forcing repeat-cycle is      31104000.
(PID.TID 0000.0001)    Zonal wind stress forcing is read from file:
(PID.TID 0000.0001)    >> trenberth_taux.bin <<
(PID.TID 0000.0001) 
(PID.TID 0000.0001)    Meridional wind stress forcing starts at        1296000.
(PID.TID 0000.0001)    Meridional wind stress forcing period is        2592000.
(PID.TID 0000.0001)    Meridional wind stress forcing rep-cycle is    31104000.
(PID.TID 0000.0001)    Meridional wind stress forcing is read from file:
(PID.TID 0000.0001)    >> trenberth_tauy.bin <<
(PID.TID 0000.0001) 
(PID.TID 0000.0001)    Surface wind speed starts at                    1296000.
(PID.TID 0000.0001)    Surface wind speed period is                    2592000.
(PID.TID 0000.0001)    Surface wind speed repeat-cycle is             31104000.
(PID.TID 0000.0001)    Surface wind speed is read from file:
(PID.TID 0000.0001)    >> core_wndSpd_cs32.bin <<
(PID.TID 0000.0001) 
(PID.TID 0000.0001)    Atmospheric temperature starts at               1296000.
(PID.TID 0000.0001)    Atmospheric temperature period is               2592000.
(PID.TID 0000.0001)    Atmospheric temperature repeat-cycle is        31104000.
(PID.TID 0000.0001)    Atmospheric temperature is read from file:
(PID.TID 0000.0001)    >> core_t_Air_cs32.bin <<
(PID.TID 0000.0001) 
(PID.TID 0000.0001)    Atmospheric specific humidity starts at         1296000.
(PID.TID 0000.0001)    Atmospheric specific humidity period is         2592000.
(PID.TID 0000.0001)    Atmospheric specific humidity rep-cycle is     31104000.
(PID.TID 0000.0001)    Atmospheric specific humidity is read from file:
(PID.TID 0000.0001)    >> core_q_air_cs32.bin <<
(PID.TID 0000.0001) 
(PID.TID 0000.0001) // ALLOW_READ_TURBFLUXES:          NOT defined
(PID.TID 0000.0001) // EXF_READ_EVAP:                  NOT defined
(PID.TID 0000.0001) 
(PID.TID 0000.0001)    Precipitation data starts at                    1296000.
(PID.TID 0000.0001)    Precipitation data period is                    2592000.
(PID.TID 0000.0001)    Precipitation data repeat-cycle is             31104000.
(PID.TID 0000.0001)    Precipitation data is read from file:
(PID.TID 0000.0001)    >> core_prec_1_cs32.bin <<
(PID.TID 0000.0001) 
(PID.TID 0000.0001)    Snow Precipitation data starts at               1296000.
(PID.TID 0000.0001)    Snow Precipitation data period is               2592000.
(PID.TID 0000.0001)    Snow Precipitation data repeat-cycle is        31104000.
(PID.TID 0000.0001)    Snow Precipitation data is read from file:
(PID.TID 0000.0001)    >> core_snwP_1_cs32.bin <<
(PID.TID 0000.0001) 
(PID.TID 0000.0001) // ALLOW_RUNOFF:                       defined
(PID.TID 0000.0001)    Runoff data starts at                           1296000.
(PID.TID 0000.0001)    Runoff data period is                           2592000.
(PID.TID 0000.0001)    Runoff data repeat-cycle is                    31104000.
(PID.TID 0000.0001)    Runoff data is read from file:
(PID.TID 0000.0001)    >> core_rnof_1_cs32.bin <<
(PID.TID 0000.0001) 
(PID.TID 0000.0001) // ALLOW_RUNOFTEMP:                    defined
(PID.TID 0000.0001) // ALLOW_SALTFLX:                  NOT defined
(PID.TID 0000.0001) 
(PID.TID 0000.0001)    Downward shortwave flux starts at               1296000.
(PID.TID 0000.0001)    Downward shortwave flux period is               2592000.
(PID.TID 0000.0001)    Downward shortwave flux repeat-cycle is        31104000.
(PID.TID 0000.0001)    Downward shortwave flux is read from file:
(PID.TID 0000.0001)    >> core_dwnSw_cs32.bin <<
(PID.TID 0000.0001) 
(PID.TID 0000.0001)    Downward longwave flux starts at                1296000.
(PID.TID 0000.0001)    Downward longwave flux period is                2592000.
(PID.TID 0000.0001)    Downward longwave flux repeat-cycle is         31104000.
(PID.TID 0000.0001)    Downward longwave flux is read from file:
(PID.TID 0000.0001)    >> core_dwnLw_cs32.bin <<
(PID.TID 0000.0001) 
(PID.TID 0000.0001) // =======================================================
(PID.TID 0000.0001) // External forcing (EXF) climatology configuration :
(PID.TID 0000.0001) // =======================================================
(PID.TID 0000.0001) 
(PID.TID 0000.0001) // ALLOW_CLIMSST_RELAXATION:           defined
(PID.TID 0000.0001)    Climatological SST starts at                    1296000.
(PID.TID 0000.0001)    Climatological SST period is                    2592000.
(PID.TID 0000.0001)    Climatological SST repeat-cycle is             31104000.
(PID.TID 0000.0001)    Climatological SST is read from file:
(PID.TID 0000.0001)    >> lev_surfT_cs_12m.bin <<
(PID.TID 0000.0001) 
(PID.TID 0000.0001) // ALLOW_CLIMSSS_RELAXATION:           defined
(PID.TID 0000.0001)    Climatological SSS starts at                    1296000.
(PID.TID 0000.0001)    Climatological SSS period is                    2592000.
(PID.TID 0000.0001)    Climatological SSS repeat-cycle is             31104000.
(PID.TID 0000.0001)    Climatological SSS is read from file:
(PID.TID 0000.0001)    >> lev_surfS_cs_12m.bin <<
(PID.TID 0000.0001) 
(PID.TID 0000.0001) // =======================================================
(PID.TID 0000.0001) // External forcing (EXF) configuration  >>> END <<<
(PID.TID 0000.0001) // =======================================================
(PID.TID 0000.0001) 
(PID.TID 0000.0001) // =======================================================
(PID.TID 0000.0001) // Seaice configuration (SEAICE_PARM01) >>> START <<<
(PID.TID 0000.0001) // =======================================================
(PID.TID 0000.0001) 
(PID.TID 0000.0001)    Seaice time stepping configuration   > START <
(PID.TID 0000.0001)    ----------------------------------------------
(PID.TID 0000.0001) SEAICE_deltaTtherm= /* thermodynamic timestep */
(PID.TID 0000.0001)                 8.640000000000000E+04
(PID.TID 0000.0001)     ;
(PID.TID 0000.0001) SEAICE_deltaTdyn  = /* dynamic timestep */
(PID.TID 0000.0001)                 8.640000000000000E+04
(PID.TID 0000.0001)     ;
(PID.TID 0000.0001) SEAICEuseBDF2  = /* use backw. differencing for mom. eq. */
(PID.TID 0000.0001)                   F
(PID.TID 0000.0001)     ;
(PID.TID 0000.0001) SEAICEupdateOceanStress= /* update Ocean surf. stress */
(PID.TID 0000.0001)                   T
(PID.TID 0000.0001)     ;
(PID.TID 0000.0001) SEAICErestoreUnderIce  = /* restore T and S under ice */
(PID.TID 0000.0001)                   F
(PID.TID 0000.0001)     ;
(PID.TID 0000.0001) 
(PID.TID 0000.0001)    Seaice dynamics configuration   > START <
(PID.TID 0000.0001)    ------------------------------------------
(PID.TID 0000.0001) SEAICEuseDYNAMICS = /* use dynamics */
(PID.TID 0000.0001)                   T
(PID.TID 0000.0001)     ;
(PID.TID 0000.0001) model grid type   = /* type of sea ice model grid */
(PID.TID 0000.0001)               'C-GRID'
(PID.TID 0000.0001)     ;
(PID.TID 0000.0001) SEAICEuseStrImpCpl = /* use strongly implicit coupling */
(PID.TID 0000.0001)                   F
(PID.TID 0000.0001)     ;
(PID.TID 0000.0001) SEAICEusePicardAsPrecon = /* Picard as preconditioner */
(PID.TID 0000.0001)                   F
(PID.TID 0000.0001)     ;
(PID.TID 0000.0001) SEAICEuseLSR      = /* use default Picard-LSR solver */
(PID.TID 0000.0001)                   T
(PID.TID 0000.0001)     ;
(PID.TID 0000.0001) SEAICEuseLSRflex  = /* with residual norm criterion */
(PID.TID 0000.0001)                   F
(PID.TID 0000.0001)     ;
(PID.TID 0000.0001) SEAICEuseKrylov   = /* use Picard-Krylov solver */
(PID.TID 0000.0001)                   F
(PID.TID 0000.0001)     ;
(PID.TID 0000.0001) SEAICEuseEVP      = /* use EVP solver rather than LSR */
(PID.TID 0000.0001)                   F
(PID.TID 0000.0001)     ;
(PID.TID 0000.0001) SEAICEuseJFNK     = /* use JFNK solver */
(PID.TID 0000.0001)                   F
(PID.TID 0000.0001)     ;
(PID.TID 0000.0001) OCEAN_drag        = /* air-ocean drag coefficient */
(PID.TID 0000.0001)                 1.000000000000000E-03
(PID.TID 0000.0001)     ;
(PID.TID 0000.0001) SEAICE_drag       = /* air-ice drag coefficient */
(PID.TID 0000.0001)                 1.000000000000000E-03
(PID.TID 0000.0001)     ;
(PID.TID 0000.0001) SEAICE_drag_south      = /* Southern Ocean SEAICE_drag */
(PID.TID 0000.0001)                 1.000000000000000E-03
(PID.TID 0000.0001)     ;
(PID.TID 0000.0001) SEAICE_waterDrag  = /* water-ice drag (no units) */
(PID.TID 0000.0001)                 5.500000000000000E-03
(PID.TID 0000.0001)     ;
(PID.TID 0000.0001) SEAICE_waterDrag_south = /* Southern Ocean waterDrag (no units) */
(PID.TID 0000.0001)                 5.500000000000000E-03
(PID.TID 0000.0001)     ;
(PID.TID 0000.0001) SEAICEdWatMin = /* minimum linear water-ice drag (in m/s) */
(PID.TID 0000.0001)                 2.500000000000000E-01
(PID.TID 0000.0001)     ;
(PID.TID 0000.0001) SEAICEuseTilt     = /* include surface tilt in dyna. */
(PID.TID 0000.0001)                   T
(PID.TID 0000.0001)     ;
(PID.TID 0000.0001) SEAICEuseTEM      = /* use truncated ellipse rheology */
(PID.TID 0000.0001)                   F
(PID.TID 0000.0001)     ;
(PID.TID 0000.0001) SEAICE_strength   = /* sea-ice strength Pstar */
(PID.TID 0000.0001)                 2.750000000000000E+04
(PID.TID 0000.0001)     ;
(PID.TID 0000.0001) SEAICE_cStar      = /* sea-ice strength parameter cStar */
(PID.TID 0000.0001)                 2.000000000000000E+01
(PID.TID 0000.0001)     ;
(PID.TID 0000.0001) SEAICEpressReplFac= /* press. replacement method factor */
(PID.TID 0000.0001)                 1.000000000000000E+00
(PID.TID 0000.0001)     ;
(PID.TID 0000.0001) SEAICE_tensilFac  = /* sea-ice tensile strength factor */
(PID.TID 0000.0001)                 0.000000000000000E+00
(PID.TID 0000.0001)     ;
(PID.TID 0000.0001) SEAICE_tensilDepth= /* crit. depth for tensile strength */
(PID.TID 0000.0001)                 0.000000000000000E+00
(PID.TID 0000.0001)     ;
(PID.TID 0000.0001) SEAICEpresH0   = /* sea-ice strength Heff threshold */
(PID.TID 0000.0001)                 1.000000000000000E+00
(PID.TID 0000.0001)     ;
(PID.TID 0000.0001) SEAICEpresPow0 = /* exponent for Heff<SEAICEpresH0 */
(PID.TID 0000.0001)                       1
(PID.TID 0000.0001)     ;
(PID.TID 0000.0001) SEAICEpresPow1 = /* exponent for Heff>SEAICEpresH0 */
(PID.TID 0000.0001)                       1
(PID.TID 0000.0001)     ;
(PID.TID 0000.0001) SEAICEetaZmethod = /* method computing eta at Z-point */
(PID.TID 0000.0001)                       3
(PID.TID 0000.0001)     ;
(PID.TID 0000.0001) SEAICE_zetaMaxFac = /* factor for upper viscosity bound */
(PID.TID 0000.0001)                 2.500000000000000E+08
(PID.TID 0000.0001)     ;
(PID.TID 0000.0001) SEAICE_zetaMin    = /* lower bound for viscosity */
(PID.TID 0000.0001)                 0.000000000000000E+00
(PID.TID 0000.0001)     ;
(PID.TID 0000.0001) SEAICE_eccen    = /* elliptical yield curve eccent */
(PID.TID 0000.0001)                 2.000000000000000E+00
(PID.TID 0000.0001)     ;
(PID.TID 0000.0001) SEAICEstressFactor    = /* wind stress scaling factor */
(PID.TID 0000.0001)                 1.000000000000000E+00
(PID.TID 0000.0001)     ;
(PID.TID 0000.0001) SEAICE_airTurnAngle    = /* air-ice turning angle */
(PID.TID 0000.0001)                 0.000000000000000E+00
(PID.TID 0000.0001)     ;
(PID.TID 0000.0001) SEAICE_waterTurnAngle  = /* ice-water turning angle */
(PID.TID 0000.0001)                 0.000000000000000E+00
(PID.TID 0000.0001)     ;
(PID.TID 0000.0001) SEAICEuseMetricTerms = /* use metric terms */
(PID.TID 0000.0001)                   T
(PID.TID 0000.0001)     ;
(PID.TID 0000.0001) SEAICE_no_slip    = /* no slip boundary conditions */
(PID.TID 0000.0001)                   F
(PID.TID 0000.0001)     ;
(PID.TID 0000.0001) SEAICE_2ndOrderBC = /* 2nd order no slip boundary conditions */
(PID.TID 0000.0001)                   F
(PID.TID 0000.0001)     ;
(PID.TID 0000.0001) SEAICE_clipVeloctities = /* impose max. vels. */
(PID.TID 0000.0001)                   F
(PID.TID 0000.0001)     ;
(PID.TID 0000.0001) useHB87stressCoupling  = /* altern. ice-ocean stress */
(PID.TID 0000.0001)                   F
(PID.TID 0000.0001)     ;
(PID.TID 0000.0001) SEAICEscaleSurfStress  = /* scale atm. and ocean-surface stress with AREA */
(PID.TID 0000.0001)                   T
(PID.TID 0000.0001)     ;
(PID.TID 0000.0001) SEAICE_maskRHS    = /* mask RHS of solver */
(PID.TID 0000.0001)                   F
(PID.TID 0000.0001)     ;
(PID.TID 0000.0001) SEAICEaddSnowMass = /* add snow mass to seaiceMassC/U/V */
(PID.TID 0000.0001)                   T
(PID.TID 0000.0001)     ;
(PID.TID 0000.0001) LSR_mixIniGuess = /* mix free-drift sol. into LSR initial Guess */
(PID.TID 0000.0001)                      -1
(PID.TID 0000.0001)     ;
(PID.TID 0000.0001) SEAICE_LSRrelaxU  = /* LSR solver: relaxation parameter */
(PID.TID 0000.0001)                 9.500000000000000E-01
(PID.TID 0000.0001)     ;
(PID.TID 0000.0001) SEAICE_LSRrelaxV  = /* LSR solver: relaxation parameter */
(PID.TID 0000.0001)                 9.500000000000000E-01
(PID.TID 0000.0001)     ;
(PID.TID 0000.0001) LSR_ERROR         = /* sets accuracy of LSR solver */
(PID.TID 0000.0001)                 1.000000000000000E-12
(PID.TID 0000.0001)     ;
(PID.TID 0000.0001) SOLV_NCHECK       = /* test interval for LSR solver */
(PID.TID 0000.0001)                       2
(PID.TID 0000.0001)     ;
(PID.TID 0000.0001) SEAICEuseMultiTileSolver = /* use full domain tri-diag solver */
(PID.TID 0000.0001)                   F
(PID.TID 0000.0001)     ;
(PID.TID 0000.0001) SEAICE_OLx = /* overlap for LSR/preconditioner */
(PID.TID 0000.0001)                       2
(PID.TID 0000.0001)     ;
(PID.TID 0000.0001) SEAICE_OLy = /* overlap for LSR/preconditioner */
(PID.TID 0000.0001)                       2
(PID.TID 0000.0001)     ;
(PID.TID 0000.0001) SEAICEnonLinIterMax = /* max. number of nonlinear solver steps */
(PID.TID 0000.0001)                       2
(PID.TID 0000.0001)     ;
(PID.TID 0000.0001) SEAICElinearIterMax = /* max. number of linear solver steps */
(PID.TID 0000.0001)                    1500
(PID.TID 0000.0001)     ;
(PID.TID 0000.0001) SEAICEnonLinTol     = /* non-linear solver tolerance */
(PID.TID 0000.0001)                 0.000000000000000E+00
(PID.TID 0000.0001)     ;
(PID.TID 0000.0001) 
(PID.TID 0000.0001)    Seaice advection diffusion config,   > START <
(PID.TID 0000.0001)    -----------------------------------------------
(PID.TID 0000.0001) SEAICEmomAdvection = /* advect sea ice momentum */
(PID.TID 0000.0001)                   F
(PID.TID 0000.0001)     ;
(PID.TID 0000.0001)    ==> advection diffusion done in pkg ThSIce
(PID.TID 0000.0001) 
(PID.TID 0000.0001)    Seaice thermodynamics configuration   > START <
(PID.TID 0000.0001)    -----------------------------------------------
(PID.TID 0000.0001) SEAICE_rhoIce     = /* density of sea ice (kg/m3) */
(PID.TID 0000.0001)                 9.100000000000000E+02
(PID.TID 0000.0001)     ;
(PID.TID 0000.0001) SEAICE_rhoSnow    = /* density of snow (kg/m3) */
(PID.TID 0000.0001)                 3.300000000000000E+02
(PID.TID 0000.0001)     ;
(PID.TID 0000.0001) SEAICE_rhoAir     = /* density of air (kg/m3) */
(PID.TID 0000.0001)                 1.220000000000000E+00
(PID.TID 0000.0001)     ;
(PID.TID 0000.0001) usePW79thermodynamics  = /* default 0-layer TD */
(PID.TID 0000.0001)                   F
(PID.TID 0000.0001)     ;
(PID.TID 0000.0001)    pkg/seaice thermodynamics is OFF
(PID.TID 0000.0001) 
(PID.TID 0000.0001)    Seaice initialization and IO config.,   > START <
(PID.TID 0000.0001)    -------------------------------------------------
(PID.TID 0000.0001) SEAICE_initialHEFF= /* initial sea-ice thickness */
(PID.TID 0000.0001)                 0.000000000000000E+00
(PID.TID 0000.0001)     ;
(PID.TID 0000.0001) AreaFile = /* Initial ice concentration File */
(PID.TID 0000.0001)               ''
(PID.TID 0000.0001)     ;
(PID.TID 0000.0001) HeffFile = /* Initial effective ice thickness File */
(PID.TID 0000.0001)               ''
(PID.TID 0000.0001)     ;
(PID.TID 0000.0001) HsnowFile = /* Initial snow thickness File */
(PID.TID 0000.0001)               ''
(PID.TID 0000.0001)     ;
(PID.TID 0000.0001) uIceFile = /* Initial U-ice velocity File */
(PID.TID 0000.0001)               ''
(PID.TID 0000.0001)     ;
(PID.TID 0000.0001) vIceFile = /* Initial V-ice velocity File */
(PID.TID 0000.0001)               ''
(PID.TID 0000.0001)     ;
(PID.TID 0000.0001) SEAICEwriteState  = /* write sea ice state to file */
(PID.TID 0000.0001)                   F
(PID.TID 0000.0001)     ;
(PID.TID 0000.0001) SEAICE_monFreq  = /* monitor frequency */
(PID.TID 0000.0001)                 1.000000000000000E+00
(PID.TID 0000.0001)     ;
(PID.TID 0000.0001) SEAICE_dumpFreq   = /* dump frequency */
(PID.TID 0000.0001)                 0.000000000000000E+00
(PID.TID 0000.0001)     ;
(PID.TID 0000.0001) SEAICE_taveFreq   = /* time-averaging frequency */
(PID.TID 0000.0001)                 0.000000000000000E+00
(PID.TID 0000.0001)     ;
(PID.TID 0000.0001) SEAICE_mon_stdio  = /* write monitor to std-outp */
(PID.TID 0000.0001)                   T
(PID.TID 0000.0001)     ;
(PID.TID 0000.0001) SEAICE_dump_mdsio = /* write snap-shot   using MDSIO */
(PID.TID 0000.0001)                   T
(PID.TID 0000.0001)     ;
(PID.TID 0000.0001) SEAICE_tave_mdsio = /* write TimeAverage using MDSIO */
(PID.TID 0000.0001)                   T
(PID.TID 0000.0001)     ;
(PID.TID 0000.0001) SEAICE_mon_mnc    = /* write monitor to netcdf file */
(PID.TID 0000.0001)                   F
(PID.TID 0000.0001)     ;
(PID.TID 0000.0001) SEAICE_dump_mnc   = /* write snap-shot   using MNC */
(PID.TID 0000.0001)                   F
(PID.TID 0000.0001)     ;
(PID.TID 0000.0001) SEAICE_tave_mnc   = /* write TimeAverage using MNC */
(PID.TID 0000.0001)                   F
(PID.TID 0000.0001)     ;
(PID.TID 0000.0001) 
(PID.TID 0000.0001)    Seaice regularization numbers,   > START <
(PID.TID 0000.0001)    -----------------------------------------------
(PID.TID 0000.0001) SEAICE_deltaMin   = /* reduce singularities in Delta */
(PID.TID 0000.0001)                 1.000000000000000E-10
(PID.TID 0000.0001)     ;
(PID.TID 0000.0001) SEAICE_EPS        = /* small number */
(PID.TID 0000.0001)                 1.000000000000000E-10
(PID.TID 0000.0001)     ;
(PID.TID 0000.0001) SEAICE_EPS_SQ     = /* small number squared */
(PID.TID 0000.0001)                 1.000000000000000E-20
(PID.TID 0000.0001)     ;
(PID.TID 0000.0001) SEAICE_area_reg   = /* reduce derivative singularities */
(PID.TID 0000.0001)                 1.000000000000000E-05
(PID.TID 0000.0001)     ;
(PID.TID 0000.0001) SEAICE_hice_reg   = /* reduce derivative singularities */
(PID.TID 0000.0001)                 5.000000000000000E-02
(PID.TID 0000.0001)     ;
(PID.TID 0000.0001) SEAICE_area_floor = /* reduce derivative singularities */
(PID.TID 0000.0001)                 1.000000000000000E-05
(PID.TID 0000.0001)     ;
(PID.TID 0000.0001) 
(PID.TID 0000.0001) // =======================================================
(PID.TID 0000.0001) // Seaice configuration (SEAICE_PARM01) >>> END <<<
(PID.TID 0000.0001) // =======================================================
(PID.TID 0000.0001) 
(PID.TID 0000.0001) ------------------------------------------------------------
(PID.TID 0000.0001) DIAGNOSTICS_SET_LEVELS: done
(PID.TID 0000.0001)  Total Nb of available Diagnostics: ndiagt=   356
(PID.TID 0000.0001)  write list of available Diagnostics to file: available_diagnostics.log
(PID.TID 0000.0001) SETDIAG: Allocate  1 x  1 Levels for Diagnostic #    23 ETAN
(PID.TID 0000.0001) SETDIAG: Allocate  1 x  1 Levels for Diagnostic #    24 ETANSQ
(PID.TID 0000.0001) SETDIAG: Allocate  1 x  1 Levels for Diagnostic #    25 DETADT2
(PID.TID 0000.0001) SETDIAG: Allocate  1 x  1 Levels for Diagnostic #    73 PHIBOT
(PID.TID 0000.0001) SETDIAG: Allocate  1 x  1 Levels for Diagnostic #    74 PHIBOTSQ
(PID.TID 0000.0001) SETDIAG: Allocate  1 x  1 Levels for Diagnostic #    81 oceTAUX
(PID.TID 0000.0001) SETDIAG: Allocate  1 x  1 Levels for Diagnostic #    82 oceTAUY
(PID.TID 0000.0001) SETDIAG: Allocate  1 x  1 Levels for Diagnostic #    87 oceQnet
(PID.TID 0000.0001) SETDIAG: Allocate  1 x  1 Levels for Diagnostic #    86 oceSflux
(PID.TID 0000.0001) SETDIAG: Allocate  1 x  1 Levels for Diagnostic #    85 oceFWflx
(PID.TID 0000.0001) SETDIAG: Allocate  1 x  1 Levels for Diagnostic #    90 TRELAX
(PID.TID 0000.0001) SETDIAG: Allocate  1 x  1 Levels for Diagnostic #    91 SRELAX
(PID.TID 0000.0001)   space allocated for all diagnostics:      12 levels
(PID.TID 0000.0001)   set mate pointer for diag #    81  oceTAUX  , Parms: UU      U1 , mate:    82
(PID.TID 0000.0001)   set mate pointer for diag #    82  oceTAUY  , Parms: VV      U1 , mate:    81
(PID.TID 0000.0001) DIAGNOSTICS_SET_POINTERS: Set levels for Outp.Stream: surfDiag
(PID.TID 0000.0001)  Levels:       1.
(PID.TID 0000.0001) DIAGNOSTICS_SET_POINTERS: done
(PID.TID 0000.0001) ------------------------------------------------------------
 DIAGSTATS_SET_REGIONS: start reading region-mask file: regMask_lat24.bin
 DIAGSTATS_SET_REGIONS:  reading set k=  1
(PID.TID 0000.0001)  MDS_READ_FIELD: opening global file: regMask_lat24.bin
 DIAGSTATS_SET_REGIONS:          set k=  1 <= done
(PID.TID 0000.0001) DIAGSTATS_SET_REGIONS: define   3 regions:  1  2  3
(PID.TID 0000.0001) ------------------------------------------------------------
(PID.TID 0000.0001) SETDIAG: Allocate  1 Levels for Stats-Diag #    23 ETAN
(PID.TID 0000.0001) SETDIAG: Allocate 15 Levels for Stats-Diag #    30 UVEL
(PID.TID 0000.0001) SETDIAG: Allocate 15 Levels for Stats-Diag #    31 VVEL
(PID.TID 0000.0001) SETDIAG: Allocate 15 Levels for Stats-Diag #    32 WVEL
(PID.TID 0000.0001) SETDIAG: Allocate 15 Levels for Stats-Diag #    26 THETA
(PID.TID 0000.0001) SETDIAG: Allocate 15 Levels for Stats-Diag #    27 SALT
(PID.TID 0000.0001) SETDIAG: Allocate 15 Levels for Stats-Diag #    80 CONVADJ
(PID.TID 0000.0001) SETDIAG: Allocate  1 Levels for Stats-Diag #    25 DETADT2
(PID.TID 0000.0001) SETDIAG: Allocate  1 Levels for Stats-Diag #   324 SI_Fract
(PID.TID 0000.0001) SETDIAG: Allocate  1 Levels for Stats-Diag #   325 SI_Thick
(PID.TID 0000.0001) - NOTE - SETDIAG: Counter Diagnostic #   324 SI_Fract has already been set
(PID.TID 0000.0001) SETDIAG: Allocate  1 Levels for Stats-Diag #   326 SI_SnowH
(PID.TID 0000.0001) - NOTE - SETDIAG: Counter Diagnostic #   324 SI_Fract has already been set
(PID.TID 0000.0001) SETDIAG: Allocate  1 Levels for Stats-Diag #   327 SI_Tsrf
(PID.TID 0000.0001) - NOTE - SETDIAG: Counter Diagnostic #   324 SI_Fract has already been set
(PID.TID 0000.0001) SETDIAG: Allocate  1 Levels for Stats-Diag #   328 SI_Tice1
(PID.TID 0000.0001) - NOTE - SETDIAG: Counter Diagnostic #   324 SI_Fract has already been set
(PID.TID 0000.0001) SETDIAG: Allocate  1 Levels for Stats-Diag #   329 SI_Tice2
(PID.TID 0000.0001) - NOTE - SETDIAG: Counter Diagnostic #   324 SI_Fract has already been set
(PID.TID 0000.0001) SETDIAG: Allocate  1 Levels for Stats-Diag #   330 SI_Qice1
(PID.TID 0000.0001) - NOTE - SETDIAG: Counter Diagnostic #   325 SI_Thick has already been set
(PID.TID 0000.0001) SETDIAG: Allocate  1 Levels for Stats-Diag #   331 SI_Qice2
(PID.TID 0000.0001) - NOTE - SETDIAG: Counter Diagnostic #   325 SI_Thick has already been set
(PID.TID 0000.0001) SETDIAG: Allocate  1 Levels for Stats-Diag #   334 SIsnwPrc
(PID.TID 0000.0001) - NOTE - SETDIAG: Counter Diagnostic #   324 SI_Fract has already been set
(PID.TID 0000.0001) SETDIAG: Allocate  1 Levels for Stats-Diag #   333 SIalbedo
(PID.TID 0000.0001) - NOTE - SETDIAG: Counter Diagnostic #   324 SI_Fract has already been set
(PID.TID 0000.0001) SETDIAG: Allocate  1 Levels for Stats-Diag #   332 SIsnwAge
(PID.TID 0000.0001) SETDIAG: Allocate  1 Levels for Stats-Diag #   337 SIflx2oc
(PID.TID 0000.0001) SETDIAG: Allocate  1 Levels for Stats-Diag #   338 SIfrw2oc
(PID.TID 0000.0001) SETDIAG: Allocate  1 Levels for Stats-Diag #   339 SIsaltFx
(PID.TID 0000.0001) SETDIAG: Allocate  1 Levels for Stats-Diag #   335 SIflxAtm
(PID.TID 0000.0001) SETDIAG: Allocate  1 Levels for Stats-Diag #   336 SIfrwAtm
(PID.TID 0000.0001)   space allocated for all stats-diags:     108 levels
(PID.TID 0000.0001) DIAGSTATS_SET_POINTERS: done
(PID.TID 0000.0001) ------------------------------------------------------------
(PID.TID 0000.0001) DIAGSTATS_INI_IO: open file: dynStDiag.0000072000.txt , unit=     9
(PID.TID 0000.0001) DIAGSTATS_INI_IO: open file: thSIceStDiag.0000072000.txt , unit=    10
(PID.TID 0000.0001) INI_GLOBAL_DOMAIN: Found  19 CS-corner Pts in the domain
(PID.TID 0000.0001) %MON fCori_max                    =   1.4574827780704E-04
(PID.TID 0000.0001) %MON fCori_min                    =  -1.4574827780704E-04
(PID.TID 0000.0001) %MON fCori_mean                   =   3.3881317890172E-21
(PID.TID 0000.0001) %MON fCori_sd                     =   8.4202189509968E-05
(PID.TID 0000.0001) %MON fCoriG_max                   =   1.4584247033981E-04
(PID.TID 0000.0001) %MON fCoriG_min                   =  -1.4584247033981E-04
(PID.TID 0000.0001) %MON fCoriG_mean                  =  -1.6940658945086E-20
(PID.TID 0000.0001) %MON fCoriG_sd                    =   8.4202189509968E-05
(PID.TID 0000.0001) %MON fCoriCos_max                 =   1.4580166994612E-04
(PID.TID 0000.0001) %MON fCoriCos_min                 =   5.2407700865903E-06
(PID.TID 0000.0001) %MON fCoriCos_mean                =   1.1514045869113E-04
(PID.TID 0000.0001) %MON fCoriCos_sd                  =   3.0375849106513E-05
(PID.TID 0000.0001) INI_CG2D: CG2D normalisation factor =  1.9156564154949553E-04
(PID.TID 0000.0001) INI_CG2D: cg2dTolerance = 5.809016360175296E-07 (Area=3.6388673751E+14)
(PID.TID 0000.0001) 
(PID.TID 0000.0001) // =======================================================
(PID.TID 0000.0001) // Model configuration
(PID.TID 0000.0001) // =======================================================
(PID.TID 0000.0001) //
(PID.TID 0000.0001) // "Physical" paramters ( PARM01 in namelist )
(PID.TID 0000.0001) //
(PID.TID 0000.0001) buoyancyRelation = /* Type of relation to get Buoyancy */
(PID.TID 0000.0001)               'OCEANIC'
(PID.TID 0000.0001)     ;
(PID.TID 0000.0001) fluidIsAir   =  /* fluid major constituent is Air */
(PID.TID 0000.0001)                   F
(PID.TID 0000.0001)     ;
(PID.TID 0000.0001) fluidIsWater =  /* fluid major constituent is Water */
(PID.TID 0000.0001)                   T
(PID.TID 0000.0001)     ;
(PID.TID 0000.0001) usingPCoords =  /* use p (or p*) vertical coordinate */
(PID.TID 0000.0001)                   F
(PID.TID 0000.0001)     ;
(PID.TID 0000.0001) usingZCoords =  /* use z (or z*) vertical coordinate */
(PID.TID 0000.0001)                   T
(PID.TID 0000.0001)     ;
(PID.TID 0000.0001) tRef =   /* Reference temperature profile ( oC or K ) */
(PID.TID 0000.0001)    15 @  2.000000000000000E+01              /* K =  1: 15 */
(PID.TID 0000.0001)     ;
(PID.TID 0000.0001) sRef =   /* Reference salinity profile ( g/kg ) */
(PID.TID 0000.0001)    15 @  3.500000000000000E+01              /* K =  1: 15 */
(PID.TID 0000.0001)     ;
(PID.TID 0000.0001) rhoRef =   /* Density vertical profile from (Ref,sRef)( kg/m^3 ) */
(PID.TID 0000.0001)                 1.024872626184147E+03,      /* K =  1 */
(PID.TID 0000.0001)                 1.025135462285008E+03,      /* K =  2 */
(PID.TID 0000.0001)                 1.025507198938228E+03,      /* K =  3 */
(PID.TID 0000.0001)                 1.026030780760464E+03,      /* K =  4 */
(PID.TID 0000.0001)                 1.026748377776259E+03,      /* K =  5 */
(PID.TID 0000.0001)                 1.027679406285166E+03,      /* K =  6 */
(PID.TID 0000.0001)                 1.028820735595355E+03,      /* K =  7 */
(PID.TID 0000.0001)                 1.030168558073105E+03,      /* K =  8 */
(PID.TID 0000.0001)                 1.031718419899614E+03,      /* K =  9 */
(PID.TID 0000.0001)                 1.033465256541184E+03,      /* K = 10 */
(PID.TID 0000.0001)                 1.035403432414885E+03,      /* K = 11 */
(PID.TID 0000.0001)                 1.037526784183520E+03,      /* K = 12 */
(PID.TID 0000.0001)                 1.039828667078104E+03,      /* K = 13 */
(PID.TID 0000.0001)                 1.042302003623418E+03,      /* K = 14 */
(PID.TID 0000.0001)                 1.044939334132512E+03       /* K = 15 */
(PID.TID 0000.0001)     ;
(PID.TID 0000.0001) dBdrRef = /* Vertical grad. of reference buoyancy [(m/s/r)^2] */
(PID.TID 0000.0001)    15 @  0.000000000000000E+00              /* K =  1: 15 */
(PID.TID 0000.0001)     ;
(PID.TID 0000.0001) useStrainTensionVisc= /* Use StrainTension Form of Viscous Operator */
(PID.TID 0000.0001)                   F
(PID.TID 0000.0001)     ;
(PID.TID 0000.0001) useVariableVisc = /* Use variable horizontal viscosity */
(PID.TID 0000.0001)                   F
(PID.TID 0000.0001)     ;
(PID.TID 0000.0001) useHarmonicVisc = /* Use harmonic horizontal viscosity */
(PID.TID 0000.0001)                   T
(PID.TID 0000.0001)     ;
(PID.TID 0000.0001) useBiharmonicVisc= /* Use biharmonic horiz.  viscosity */
(PID.TID 0000.0001)                   F
(PID.TID 0000.0001)     ;
(PID.TID 0000.0001) useSmag3D = /* Use isotropic 3-D Smagorinsky viscosity */
(PID.TID 0000.0001)                   F
(PID.TID 0000.0001)     ;
(PID.TID 0000.0001) viscAh  =   /* Lateral harmonic viscosity ( m^2/s ) */
(PID.TID 0000.0001)                 3.000000000000000E+05
(PID.TID 0000.0001)     ;
(PID.TID 0000.0001) viscA4  =   /* Lateral biharmonic viscosity ( m^4/s ) */
(PID.TID 0000.0001)                 0.000000000000000E+00
(PID.TID 0000.0001)     ;
(PID.TID 0000.0001) no_slip_sides =  /* Viscous BCs: No-slip sides */
(PID.TID 0000.0001)                   T
(PID.TID 0000.0001)     ;
(PID.TID 0000.0001) sideDragFactor = /* side-drag scaling factor (non-dim) */
(PID.TID 0000.0001)                 2.000000000000000E+00
(PID.TID 0000.0001)     ;
(PID.TID 0000.0001) viscArNr = /* vertical profile of vertical viscosity ( m^2/s )*/
(PID.TID 0000.0001)    15 @  1.000000000000000E-03              /* K =  1: 15 */
(PID.TID 0000.0001)     ;
(PID.TID 0000.0001) no_slip_bottom =  /* Viscous BCs: No-slip bottom */
(PID.TID 0000.0001)                   T
(PID.TID 0000.0001)     ;
(PID.TID 0000.0001) bottomVisc_pCell = /* Partial-cell in bottom Visc. BC */
(PID.TID 0000.0001)                   F
(PID.TID 0000.0001)     ;
(PID.TID 0000.0001) bottomDragLinear = /* linear bottom-drag coefficient ( m/s ) */
(PID.TID 0000.0001)                 0.000000000000000E+00
(PID.TID 0000.0001)     ;
(PID.TID 0000.0001) bottomDragQuadratic = /* quadratic bottom-drag coefficient (-) */
(PID.TID 0000.0001)                 0.000000000000000E+00
(PID.TID 0000.0001)     ;
(PID.TID 0000.0001) selectBotDragQuadr = /* select quadratic bottom drag options */
(PID.TID 0000.0001)                      -1
(PID.TID 0000.0001)     ;
(PID.TID 0000.0001) diffKhT =   /* Laplacian diffusion of heat laterally ( m^2/s ) */
(PID.TID 0000.0001)                 0.000000000000000E+00
(PID.TID 0000.0001)     ;
(PID.TID 0000.0001) diffK4T =   /* Biharmonic diffusion of heat laterally ( m^4/s ) */
(PID.TID 0000.0001)                 0.000000000000000E+00
(PID.TID 0000.0001)     ;
(PID.TID 0000.0001) diffKhS =   /* Laplacian diffusion of salt laterally ( m^2/s ) */
(PID.TID 0000.0001)                 0.000000000000000E+00
(PID.TID 0000.0001)     ;
(PID.TID 0000.0001) diffK4S =   /* Biharmonic diffusion of salt laterally ( m^4/s ) */
(PID.TID 0000.0001)                 0.000000000000000E+00
(PID.TID 0000.0001)     ;
(PID.TID 0000.0001) diffKrNrT = /* vertical profile of vertical diffusion of Temp ( m^2/s )*/
(PID.TID 0000.0001)    15 @  3.000000000000000E-05              /* K =  1: 15 */
(PID.TID 0000.0001)     ;
(PID.TID 0000.0001) diffKrNrS = /* vertical profile of vertical diffusion of Salt ( m^2/s )*/
(PID.TID 0000.0001)    15 @  3.000000000000000E-05              /* K =  1: 15 */
(PID.TID 0000.0001)     ;
(PID.TID 0000.0001) diffKrBL79surf = /* Surface diffusion for Bryan and Lewis 79 ( m^2/s ) */
(PID.TID 0000.0001)                 0.000000000000000E+00
(PID.TID 0000.0001)     ;
(PID.TID 0000.0001) diffKrBL79deep = /* Deep diffusion for Bryan and Lewis 1979 ( m^2/s ) */
(PID.TID 0000.0001)                 0.000000000000000E+00
(PID.TID 0000.0001)     ;
(PID.TID 0000.0001) diffKrBL79scl = /* Depth scale for Bryan and Lewis 1979 ( m ) */
(PID.TID 0000.0001)                 2.000000000000000E+02
(PID.TID 0000.0001)     ;
(PID.TID 0000.0001) diffKrBL79Ho = /* Turning depth for Bryan and Lewis 1979 ( m ) */
(PID.TID 0000.0001)                -2.000000000000000E+03
(PID.TID 0000.0001)     ;
(PID.TID 0000.0001) ivdc_kappa = /* Implicit Vertical Diffusivity for Convection ( m^2/s) */
(PID.TID 0000.0001)                 1.000000000000000E+01
(PID.TID 0000.0001)     ;
(PID.TID 0000.0001) hMixCriteria=  /* Criteria for mixed-layer diagnostic */
(PID.TID 0000.0001)                -8.000000000000000E-01
(PID.TID 0000.0001)     ;
(PID.TID 0000.0001) dRhoSmall =  /* Parameter for mixed-layer diagnostic */
(PID.TID 0000.0001)                 1.000000000000000E-06
(PID.TID 0000.0001)     ;
(PID.TID 0000.0001) hMixSmooth=  /* Smoothing parameter for mixed-layer diagnostic */
(PID.TID 0000.0001)                 0.000000000000000E+00
(PID.TID 0000.0001)     ;
(PID.TID 0000.0001) eosType =  /* Type of Equation of State */
(PID.TID 0000.0001)               'JMD95Z'
(PID.TID 0000.0001)     ;
(PID.TID 0000.0001) eosRefP0 = /* Reference atmospheric pressure for EOS ( Pa ) */
(PID.TID 0000.0001)                 1.013250000000000E+05
(PID.TID 0000.0001)     ;
(PID.TID 0000.0001) selectP_inEOS_Zc = /* select pressure to use in EOS (0,1,2,3) */
(PID.TID 0000.0001)                       0
(PID.TID 0000.0001)     0= -g*rhoConst*z ; 1= pRef (from tRef,sRef); 2= Hyd P ; 3= Hyd+NH P
(PID.TID 0000.0001)     ;
(PID.TID 0000.0001) surf_pRef = /* Surface reference pressure ( Pa ) */
(PID.TID 0000.0001)                 1.013250000000000E+05
(PID.TID 0000.0001)     ;
(PID.TID 0000.0001) HeatCapacity_Cp =  /* Specific heat capacity ( J/kg/K ) */
(PID.TID 0000.0001)                 3.994000000000000E+03
(PID.TID 0000.0001)     ;
(PID.TID 0000.0001) celsius2K = /* 0 degree Celsius converted to Kelvin ( K ) */
(PID.TID 0000.0001)                 2.731500000000000E+02
(PID.TID 0000.0001)     ;
(PID.TID 0000.0001) rhoConst  = /* Reference density (Boussinesq)  ( kg/m^3 ) */
(PID.TID 0000.0001)                 1.035000000000000E+03
(PID.TID 0000.0001)     ;
(PID.TID 0000.0001) rhoFacC = /* normalized Reference density @ cell-Center (-) */
(PID.TID 0000.0001)    15 @  1.000000000000000E+00              /* K =  1: 15 */
(PID.TID 0000.0001)     ;
(PID.TID 0000.0001) rhoFacF = /* normalized Reference density @ W-Interface (-) */
(PID.TID 0000.0001)    16 @  1.000000000000000E+00              /* K =  1: 16 */
(PID.TID 0000.0001)     ;
(PID.TID 0000.0001) rhoConstFresh = /* Fresh-water reference density ( kg/m^3 ) */
(PID.TID 0000.0001)                 1.000000000000000E+03
(PID.TID 0000.0001)     ;
(PID.TID 0000.0001) gravity =   /* Gravitational acceleration ( m/s^2 ) */
(PID.TID 0000.0001)                 9.810000000000000E+00
(PID.TID 0000.0001)     ;
(PID.TID 0000.0001) gBaro =   /* Barotropic gravity ( m/s^2 ) */
(PID.TID 0000.0001)                 9.810000000000000E+00
(PID.TID 0000.0001)     ;
(PID.TID 0000.0001) gravFacC = /* gravity factor (vs surf.) @ cell-Center (-) */
(PID.TID 0000.0001)    15 @  1.000000000000000E+00              /* K =  1: 15 */
(PID.TID 0000.0001)     ;
(PID.TID 0000.0001) gravFacF = /* gravity factor (vs surf.) @ W-Interface (-) */
(PID.TID 0000.0001)    16 @  1.000000000000000E+00              /* K =  1: 16 */
(PID.TID 0000.0001)     ;
(PID.TID 0000.0001) rotationPeriod =   /* Rotation Period ( s ) */
(PID.TID 0000.0001)                 8.616400000000000E+04
(PID.TID 0000.0001)     ;
(PID.TID 0000.0001) omega =   /* Angular velocity ( rad/s ) */
(PID.TID 0000.0001)                 7.292123516990375E-05
(PID.TID 0000.0001)     ;
(PID.TID 0000.0001) f0 =   /* Reference coriolis parameter ( 1/s ) */
(PID.TID 0000.0001)                 1.000000000000000E-04
(PID.TID 0000.0001)     ;
(PID.TID 0000.0001) beta =   /* Beta ( 1/(m.s) ) */
(PID.TID 0000.0001)                 9.999999999999999E-12
(PID.TID 0000.0001)     ;
(PID.TID 0000.0001) fPrime =   /* Second coriolis parameter ( 1/s ) */
(PID.TID 0000.0001)                 0.000000000000000E+00
(PID.TID 0000.0001)     ;
(PID.TID 0000.0001) rigidLid =   /* Rigid lid on/off flag */
(PID.TID 0000.0001)                   F
(PID.TID 0000.0001)     ;
(PID.TID 0000.0001) implicitFreeSurface =   /* Implicit free surface on/off flag */
(PID.TID 0000.0001)                   T
(PID.TID 0000.0001)     ;
(PID.TID 0000.0001) freeSurfFac =   /* Implicit free surface factor */
(PID.TID 0000.0001)                 1.000000000000000E+00
(PID.TID 0000.0001)     ;
(PID.TID 0000.0001) implicSurfPress =  /* Surface Pressure implicit factor (0-1) */
(PID.TID 0000.0001)                 1.000000000000000E+00
(PID.TID 0000.0001)     ;
(PID.TID 0000.0001) implicDiv2DFlow =  /* Barot. Flow Div. implicit factor (0-1) */
(PID.TID 0000.0001)                 1.000000000000000E+00
(PID.TID 0000.0001)     ;
(PID.TID 0000.0001) uniformLin_PhiSurf = /* use uniform Bo_surf on/off flag */
(PID.TID 0000.0001)                   T
(PID.TID 0000.0001)     ;
(PID.TID 0000.0001) uniformFreeSurfLev = /* free-surface level-index is uniform */
(PID.TID 0000.0001)                   T
(PID.TID 0000.0001)     ;
(PID.TID 0000.0001) sIceLoadFac =  /* scale factor for sIceLoad (0-1) */
(PID.TID 0000.0001)                 1.000000000000000E+00
(PID.TID 0000.0001)     ;
(PID.TID 0000.0001) hFacMin =   /* minimum partial cell factor (hFac) */
(PID.TID 0000.0001)                 1.000000000000000E-01
(PID.TID 0000.0001)     ;
(PID.TID 0000.0001) hFacMinDr = /* minimum partial cell thickness ( m) */
(PID.TID 0000.0001)                 2.000000000000000E+01
(PID.TID 0000.0001)     ;
(PID.TID 0000.0001) exactConserv =  /* Exact Volume Conservation on/off flag */
(PID.TID 0000.0001)                   T
(PID.TID 0000.0001)     ;
(PID.TID 0000.0001) linFSConserveTr = /* Tracer correction for Lin Free Surface on/off flag */
(PID.TID 0000.0001)                   F
(PID.TID 0000.0001)     ;
(PID.TID 0000.0001) nonlinFreeSurf = /* Non-linear Free Surf. options (-1,0,1,2,3)*/
(PID.TID 0000.0001)                       4
(PID.TID 0000.0001)      -1,0= Off ; 1,2,3= On, 2=+rescale gU,gV, 3=+update cg2d solv.
(PID.TID 0000.0001)     ;
(PID.TID 0000.0001) hFacInf =   /* lower threshold for hFac (nonlinFreeSurf only)*/
(PID.TID 0000.0001)                 2.000000000000000E-01
(PID.TID 0000.0001)     ;
(PID.TID 0000.0001) hFacSup =   /* upper threshold for hFac (nonlinFreeSurf only)*/
(PID.TID 0000.0001)                 2.000000000000000E+00
(PID.TID 0000.0001)     ;
(PID.TID 0000.0001) select_rStar = /* r* Vertical coord. options (=0 r coord.; >0 uses r*)*/
(PID.TID 0000.0001)                       2
(PID.TID 0000.0001)     ;
(PID.TID 0000.0001) useRealFreshWaterFlux = /* Real Fresh Water Flux on/off flag*/
(PID.TID 0000.0001)                   T
(PID.TID 0000.0001)     ;
(PID.TID 0000.0001) temp_EvPrRn = /* Temp. of Evap/Prec/R (UNSET=use local T)(oC)*/
(PID.TID 0000.0001)                 0.000000000000000E+00
(PID.TID 0000.0001)     ;
(PID.TID 0000.0001) salt_EvPrRn = /* Salin. of Evap/Prec/R (UNSET=use local S)(g/kg)*/
(PID.TID 0000.0001)                 0.000000000000000E+00
(PID.TID 0000.0001)     ;
(PID.TID 0000.0001) selectAddFluid = /* option for mass source/sink of fluid (=0: off) */
(PID.TID 0000.0001)                       0
(PID.TID 0000.0001)     ;
(PID.TID 0000.0001) temp_addMass = /* Temp. of addMass array (UNSET=use local T)(oC)*/
(PID.TID 0000.0001)                 0.000000000000000E+00
(PID.TID 0000.0001)     ;
(PID.TID 0000.0001) salt_addMass = /* Salin. of addMass array (UNSET=use local S)(g/kg)*/
(PID.TID 0000.0001)                 0.000000000000000E+00
(PID.TID 0000.0001)     ;
(PID.TID 0000.0001) use3Dsolver = /* use 3-D pressure solver on/off flag */
(PID.TID 0000.0001)                   F
(PID.TID 0000.0001)     ;
(PID.TID 0000.0001) nonHydrostatic =  /* Non-Hydrostatic on/off flag */
(PID.TID 0000.0001)                   F
(PID.TID 0000.0001)     ;
(PID.TID 0000.0001) nh_Am2 = /* Non-Hydrostatic terms scaling factor */
(PID.TID 0000.0001)                 1.000000000000000E+00
(PID.TID 0000.0001)     ;
(PID.TID 0000.0001) implicitNHPress = /* Non-Hyd Pressure implicit factor (0-1)*/
(PID.TID 0000.0001)                 1.000000000000000E+00
(PID.TID 0000.0001)     ;
(PID.TID 0000.0001) selectNHfreeSurf = /* Non-Hyd (free-)Surface option */
(PID.TID 0000.0001)                       0
(PID.TID 0000.0001)     ;
(PID.TID 0000.0001) quasiHydrostatic = /* Quasi-Hydrostatic on/off flag */
(PID.TID 0000.0001)                   F
(PID.TID 0000.0001)     ;
(PID.TID 0000.0001) calc_wVelocity = /* vertical velocity calculation on/off flag */
(PID.TID 0000.0001)                   T
(PID.TID 0000.0001)     ;
(PID.TID 0000.0001) momStepping =  /* Momentum equation on/off flag */
(PID.TID 0000.0001)                   T
(PID.TID 0000.0001)     ;
(PID.TID 0000.0001) vectorInvariantMomentum= /* Vector-Invariant Momentum on/off */
(PID.TID 0000.0001)                   T
(PID.TID 0000.0001)     ;
(PID.TID 0000.0001) momAdvection =  /* Momentum advection on/off flag */
(PID.TID 0000.0001)                   T
(PID.TID 0000.0001)     ;
(PID.TID 0000.0001) momViscosity =  /* Momentum viscosity on/off flag */
(PID.TID 0000.0001)                   T
(PID.TID 0000.0001)     ;
(PID.TID 0000.0001) momImplVertAdv= /* Momentum implicit vert. advection on/off*/
(PID.TID 0000.0001)                   F
(PID.TID 0000.0001)     ;
(PID.TID 0000.0001) implicitViscosity = /* Implicit viscosity on/off flag */
(PID.TID 0000.0001)                   F
(PID.TID 0000.0001)     ;
(PID.TID 0000.0001) selectImplicitDrag= /* Implicit bot Drag options (0,1,2)*/
(PID.TID 0000.0001)                       0
(PID.TID 0000.0001)     0= Expl. ; 1= Impl. on provis. Vel ; 2= Fully Impl (with surf.P)
(PID.TID 0000.0001)     ;
(PID.TID 0000.0001) selectMetricTerms= /* Metric-Terms on/off flag (=0/1) */
(PID.TID 0000.0001)                       0
(PID.TID 0000.0001)     ;
(PID.TID 0000.0001) useNHMTerms = /* Non-Hydrostatic Metric-Terms on/off */
(PID.TID 0000.0001)                   F
(PID.TID 0000.0001)     ;
(PID.TID 0000.0001) selectCoriMap = /* Coriolis Map options (0,1,2,3)*/
(PID.TID 0000.0001)                       2
(PID.TID 0000.0001)     0= f-Plane ; 1= Beta-Plane ; 2= Spherical ; 3= read from file
(PID.TID 0000.0001)     ;
(PID.TID 0000.0001) select3dCoriScheme= /* 3-D Coriolis on/off flag (=0/1) */
(PID.TID 0000.0001)                       0
(PID.TID 0000.0001)     ;
(PID.TID 0000.0001) useCoriolis =  /* Coriolis on/off flag */
(PID.TID 0000.0001)                   T
(PID.TID 0000.0001)     ;
(PID.TID 0000.0001) useCDscheme =  /* CD scheme on/off flag */
(PID.TID 0000.0001)                   F
(PID.TID 0000.0001)     ;
(PID.TID 0000.0001) selectCoriScheme= /* Scheme selector for Coriolis-Term */
(PID.TID 0000.0001)                       0
(PID.TID 0000.0001)    = 0 : original discretization (simple averaging, no hFac)
(PID.TID 0000.0001)    = 1 : Wet-point averaging (Jamar & Ozer 1986)
(PID.TID 0000.0001)    = 2 : hFac weighted average (Angular Mom. conserving)
(PID.TID 0000.0001)    = 3 : energy conserving scheme using hFac weighted average
(PID.TID 0000.0001)     ;
(PID.TID 0000.0001) useAbsVorticity= /* V.I Works with f+zeta in Coriolis */
(PID.TID 0000.0001)                   F
(PID.TID 0000.0001)     ;
(PID.TID 0000.0001) selectVortScheme= /* V.I Scheme selector for Vorticity-Term */
(PID.TID 0000.0001)                       1
(PID.TID 0000.0001)    = 0 : enstrophy (Shallow-Water Eq.) conserving scheme by Sadourny, JAS 75
(PID.TID 0000.0001)    = 1 : same as 0 with modified hFac
(PID.TID 0000.0001)    = 2 : energy conserving scheme (used by Sadourny in JAS 75 paper)
(PID.TID 0000.0001)    = 3 : energy (general) and enstrophy (2D, nonDiv.) conserving scheme
(PID.TID 0000.0001)          from Sadourny (Burridge & Haseler, ECMWF Rep.4, 1977)
(PID.TID 0000.0001)     ;
(PID.TID 0000.0001) useJamartMomAdv= /* V.I Non-linear terms Jamart flag */
(PID.TID 0000.0001)                   F
(PID.TID 0000.0001)     ;
(PID.TID 0000.0001) upwindVorticity= /* V.I Upwind bias vorticity flag */
(PID.TID 0000.0001)                   F
(PID.TID 0000.0001)     ;
(PID.TID 0000.0001) highOrderVorticity= /* V.I High order vort. advect. flag */
(PID.TID 0000.0001)                   F
(PID.TID 0000.0001)     ;
(PID.TID 0000.0001) upwindShear= /* V.I Upwind vertical Shear advection flag */
(PID.TID 0000.0001)                   F
(PID.TID 0000.0001)     ;
(PID.TID 0000.0001) selectKEscheme= /* V.I Kinetic Energy scheme selector */
(PID.TID 0000.0001)                       0
(PID.TID 0000.0001)     ;
(PID.TID 0000.0001) momForcing =  /* Momentum forcing on/off flag */
(PID.TID 0000.0001)                   T
(PID.TID 0000.0001)     ;
(PID.TID 0000.0001) momTidalForcing = /* Momentum Tidal forcing on/off flag */
(PID.TID 0000.0001)                   T
(PID.TID 0000.0001)     ;
(PID.TID 0000.0001) momPressureForcing =  /* Momentum pressure term on/off flag */
(PID.TID 0000.0001)                   T
(PID.TID 0000.0001)     ;
(PID.TID 0000.0001) implicitIntGravWave= /* Implicit Internal Gravity Wave flag */
(PID.TID 0000.0001)                   F
(PID.TID 0000.0001)     ;
(PID.TID 0000.0001) staggerTimeStep =    /* Stagger time stepping on/off flag */
(PID.TID 0000.0001)                   T
(PID.TID 0000.0001)     ;
(PID.TID 0000.0001) doResetHFactors = /* reset thickness factors @ each time-step */
(PID.TID 0000.0001)                   F
(PID.TID 0000.0001)     ;
(PID.TID 0000.0001) multiDimAdvection =  /* enable/disable Multi-Dim Advection */
(PID.TID 0000.0001)                   T
(PID.TID 0000.0001)     ;
(PID.TID 0000.0001) useMultiDimAdvec =   /* Multi-Dim Advection is/is-not used */
(PID.TID 0000.0001)                   F
(PID.TID 0000.0001)     ;
(PID.TID 0000.0001) implicitDiffusion = /* Implicit Diffusion on/off flag */
(PID.TID 0000.0001)                   T
(PID.TID 0000.0001)     ;
(PID.TID 0000.0001) tempStepping =  /* Temperature equation on/off flag */
(PID.TID 0000.0001)                   T
(PID.TID 0000.0001)     ;
(PID.TID 0000.0001) tempAdvection = /* Temperature advection on/off flag */
(PID.TID 0000.0001)                   T
(PID.TID 0000.0001)     ;
(PID.TID 0000.0001) tempImplVertAdv = /* Temp. implicit vert. advection on/off */
(PID.TID 0000.0001)                   F
(PID.TID 0000.0001)     ;
(PID.TID 0000.0001) tempForcing  =  /* Temperature forcing on/off flag */
(PID.TID 0000.0001)                   T
(PID.TID 0000.0001)     ;
(PID.TID 0000.0001) balanceQnet  =  /* balance net heat-flux on/off flag */
(PID.TID 0000.0001)                   F
(PID.TID 0000.0001)     ;
(PID.TID 0000.0001) doThetaClimRelax = /* apply SST relaxation on/off flag */
(PID.TID 0000.0001)                   F
(PID.TID 0000.0001)     ;
(PID.TID 0000.0001) balanceThetaClimRelax= /* balance SST relaxation on/off flag */
(PID.TID 0000.0001)                   F
(PID.TID 0000.0001)     ;
(PID.TID 0000.0001) tempIsActiveTr = /* Temp. is a dynamically Active Tracer */
(PID.TID 0000.0001)                   T
(PID.TID 0000.0001)     ;
(PID.TID 0000.0001) saltStepping =  /* Salinity equation on/off flag */
(PID.TID 0000.0001)                   T
(PID.TID 0000.0001)     ;
(PID.TID 0000.0001) saltAdvection = /* Salinity advection on/off flag */
(PID.TID 0000.0001)                   T
(PID.TID 0000.0001)     ;
(PID.TID 0000.0001) saltImplVertAdv = /* Sali. implicit vert. advection on/off */
(PID.TID 0000.0001)                   F
(PID.TID 0000.0001)     ;
(PID.TID 0000.0001) saltForcing  =  /* Salinity forcing on/off flag */
(PID.TID 0000.0001)                   T
(PID.TID 0000.0001)     ;
(PID.TID 0000.0001) selectBalanceEmPmR = /* balancing glob.mean EmPmR selector */
(PID.TID 0000.0001)                       0
(PID.TID 0000.0001)     ;
(PID.TID 0000.0001) doSaltClimRelax = /* apply SSS relaxation on/off flag */
(PID.TID 0000.0001)                   F
(PID.TID 0000.0001)     ;
(PID.TID 0000.0001) balanceSaltClimRelax= /* balance SSS relaxation on/off flag */
(PID.TID 0000.0001)                   F
(PID.TID 0000.0001)     ;
(PID.TID 0000.0001) saltIsActiveTr = /* Salt  is a dynamically Active Tracer */
(PID.TID 0000.0001)                   T
(PID.TID 0000.0001)     ;
(PID.TID 0000.0001)  readBinaryPrec = /* Precision used for reading binary files */
(PID.TID 0000.0001)                      64
(PID.TID 0000.0001)     ;
(PID.TID 0000.0001) writeBinaryPrec = /* Precision used for writing binary files */
(PID.TID 0000.0001)                      64
(PID.TID 0000.0001)     ;
(PID.TID 0000.0001) balancePrintMean = /* print means for balancing fluxes */
(PID.TID 0000.0001)                   F
(PID.TID 0000.0001)     ;
(PID.TID 0000.0001)  rwSuffixType =   /* select format of mds file suffix */
(PID.TID 0000.0001)                       0
(PID.TID 0000.0001)    = 0 : myIter (I10.10) ;   = 1 : 100*myTime (100th sec) ;
(PID.TID 0000.0001)    = 2 : myTime (seconds);   = 3 : myTime/360 (10th of hr);
(PID.TID 0000.0001)    = 4 : myTime/3600 (hours)
(PID.TID 0000.0001)     ;
(PID.TID 0000.0001)  globalFiles = /* write "global" (=not per tile) files */
(PID.TID 0000.0001)                   F
(PID.TID 0000.0001)     ;
(PID.TID 0000.0001)  useSingleCpuIO = /* only master MPI process does I/O */
(PID.TID 0000.0001)                   T
(PID.TID 0000.0001)     ;
(PID.TID 0000.0001)  useSingleCpuInput = /* only master process reads input */
(PID.TID 0000.0001)                   T
(PID.TID 0000.0001)     ;
(PID.TID 0000.0001) /* debLev[*]  : level of debug & auxiliary message printing */
(PID.TID 0000.0001) debLevZero =  0 ; /* level of disabled aux. msg printing */
(PID.TID 0000.0001)    debLevA =  1 ; /* level of minimum  aux. msg printing */
(PID.TID 0000.0001)    debLevB =  2 ; /* level of low aux. print (report read-file opening)*/
(PID.TID 0000.0001)    debLevC =  3 ; /* level of moderate debug prt (most pkgs debug msg) */
(PID.TID 0000.0001)    debLevD =  4 ; /* level of enhanced debug prt (add DEBUG_STATS prt) */
(PID.TID 0000.0001)    debLevE =  5 ; /* level of extensive debug printing */
(PID.TID 0000.0001) debugLevel =  /* select debug printing level */
(PID.TID 0000.0001)                       2
(PID.TID 0000.0001)     ;
(PID.TID 0000.0001)  plotLevel =  /* select PLOT_FIELD printing level */
(PID.TID 0000.0001)                       0
(PID.TID 0000.0001)     ;
(PID.TID 0000.0001) //
(PID.TID 0000.0001) // Elliptic solver(s) paramters ( PARM02 in namelist )
(PID.TID 0000.0001) //
(PID.TID 0000.0001) cg2dMaxIters =   /* Upper limit on 2d con. grad iterations  */
(PID.TID 0000.0001)                     200
(PID.TID 0000.0001)     ;
(PID.TID 0000.0001) cg2dMinItersNSA =   /* Minimum number of iterations of 2d con. grad solver  */
(PID.TID 0000.0001)                       0
(PID.TID 0000.0001)     ;
(PID.TID 0000.0001) cg2dUseMinResSol= /* use cg2d last-iter(=0) / min-resid.(=1) solution */
(PID.TID 0000.0001)                       0
(PID.TID 0000.0001)     ;
(PID.TID 0000.0001) cg2dTargetResidual =   /* 2d con. grad target residual  */
(PID.TID 0000.0001)                 1.000000000000000E-07
(PID.TID 0000.0001)     ;
(PID.TID 0000.0001) cg2dTargetResWunit =   /* CG2d target residual [W units] */
(PID.TID 0000.0001)                 1.000000000000000E-14
(PID.TID 0000.0001)     ;
(PID.TID 0000.0001) cg2dPreCondFreq =   /* Freq. for updating cg2d preconditioner */
(PID.TID 0000.0001)                       1
(PID.TID 0000.0001)     ;
(PID.TID 0000.0001) useSRCGSolver =  /* use single reduction CG solver(s) */
(PID.TID 0000.0001)                   F
(PID.TID 0000.0001)     ;
(PID.TID 0000.0001) useNSACGSolver =  /* use not-self-adjoint CG solver */
(PID.TID 0000.0001)                   F
(PID.TID 0000.0001)     ;
(PID.TID 0000.0001) printResidualFreq = /* Freq. for printing CG residual */
(PID.TID 0000.0001)                       0
(PID.TID 0000.0001)     ;
(PID.TID 0000.0001) //
(PID.TID 0000.0001) // Time stepping paramters ( PARM03 in namelist )
(PID.TID 0000.0001) //
(PID.TID 0000.0001) deltaTMom =   /* Momentum equation timestep ( s ) */
(PID.TID 0000.0001)                 1.200000000000000E+03
(PID.TID 0000.0001)     ;
(PID.TID 0000.0001) deltaTFreeSurf = /* FreeSurface equation timestep ( s ) */
(PID.TID 0000.0001)                 8.640000000000000E+04
(PID.TID 0000.0001)     ;
(PID.TID 0000.0001) dTtracerLev =  /* Tracer equation timestep ( s ) */
(PID.TID 0000.0001)    15 @  8.640000000000000E+04              /* K =  1: 15 */
(PID.TID 0000.0001)     ;
(PID.TID 0000.0001) deltaTClock  =   /* Model clock timestep ( s ) */
(PID.TID 0000.0001)                 8.640000000000000E+04
(PID.TID 0000.0001)     ;
(PID.TID 0000.0001) cAdjFreq =   /* Convective adjustment interval ( s ) */
(PID.TID 0000.0001)                 0.000000000000000E+00
(PID.TID 0000.0001)     ;
(PID.TID 0000.0001) momForcingOutAB = /* =1: take Momentum Forcing out of Adams-Bash. stepping */
(PID.TID 0000.0001)                       1
(PID.TID 0000.0001)     ;
(PID.TID 0000.0001) tracForcingOutAB = /* =1: take T,S,pTr Forcing out of Adams-Bash. stepping */
(PID.TID 0000.0001)                       1
(PID.TID 0000.0001)     ;
(PID.TID 0000.0001) momDissip_In_AB = /* put Dissipation Tendency in Adams-Bash. stepping */
(PID.TID 0000.0001)                   T
(PID.TID 0000.0001)     ;
(PID.TID 0000.0001) doAB_onGtGs = /* apply AB on Tendencies (rather than on T,S)*/
(PID.TID 0000.0001)                   T
(PID.TID 0000.0001)     ;
(PID.TID 0000.0001) abEps =   /* Adams-Bashforth-2 stabilizing weight */
(PID.TID 0000.0001)                 1.000000000000000E-01
(PID.TID 0000.0001)     ;
(PID.TID 0000.0001) applyExchUV_early = /* Apply EXCH to U,V earlier in time-step */
(PID.TID 0000.0001)                   F
(PID.TID 0000.0001)     ;
(PID.TID 0000.0001) pickupStrictlyMatch= /* stop if pickup do not strictly match */
(PID.TID 0000.0001)                   T
(PID.TID 0000.0001)     ;
(PID.TID 0000.0001) nIter0   =   /* Run starting timestep number */
(PID.TID 0000.0001)                   72000
(PID.TID 0000.0001)     ;
(PID.TID 0000.0001) nTimeSteps = /* Number of timesteps */
(PID.TID 0000.0001)                      10
(PID.TID 0000.0001)     ;
(PID.TID 0000.0001) nEndIter =   /* Run ending timestep number */
(PID.TID 0000.0001)                   72010
(PID.TID 0000.0001)     ;
(PID.TID 0000.0001) baseTime =   /* Model base time ( s ) */
(PID.TID 0000.0001)                 0.000000000000000E+00
(PID.TID 0000.0001)     ;
(PID.TID 0000.0001) startTime =  /* Run start time ( s ) */
(PID.TID 0000.0001)                 6.220800000000000E+09
(PID.TID 0000.0001)     ;
(PID.TID 0000.0001) endTime  =   /* Integration ending time ( s ) */
(PID.TID 0000.0001)                 6.221664000000000E+09
(PID.TID 0000.0001)     ;
(PID.TID 0000.0001) pChkPtFreq = /* Permanent restart/pickup file interval ( s ) */
(PID.TID 0000.0001)                 3.110400000000000E+09
(PID.TID 0000.0001)     ;
(PID.TID 0000.0001) chkPtFreq  = /* Rolling restart/pickup file interval ( s ) */
(PID.TID 0000.0001)                 1.555200000000000E+08
(PID.TID 0000.0001)     ;
(PID.TID 0000.0001) pickup_write_mdsio =   /* Model IO flag. */
(PID.TID 0000.0001)                   T
(PID.TID 0000.0001)     ;
(PID.TID 0000.0001) pickup_read_mdsio =   /* Model IO flag. */
(PID.TID 0000.0001)                   T
(PID.TID 0000.0001)     ;
(PID.TID 0000.0001) pickup_write_mnc =   /* Model IO flag. */
(PID.TID 0000.0001)                   F
(PID.TID 0000.0001)     ;
(PID.TID 0000.0001) pickup_read_mnc =   /* Model IO flag. */
(PID.TID 0000.0001)                   F
(PID.TID 0000.0001)     ;
(PID.TID 0000.0001) writePickupAtEnd =   /* Model IO flag. */
(PID.TID 0000.0001)                   T
(PID.TID 0000.0001)     ;
(PID.TID 0000.0001) dumpFreq =   /* Model state write out interval ( s ). */
(PID.TID 0000.0001)                 0.000000000000000E+00
(PID.TID 0000.0001)     ;
(PID.TID 0000.0001) dumpInitAndLast= /* write out Initial & Last iter. model state */
(PID.TID 0000.0001)                   T
(PID.TID 0000.0001)     ;
(PID.TID 0000.0001) snapshot_mdsio =   /* Model IO flag. */
(PID.TID 0000.0001)                   T
(PID.TID 0000.0001)     ;
(PID.TID 0000.0001) snapshot_mnc =   /* Model IO flag. */
(PID.TID 0000.0001)                   F
(PID.TID 0000.0001)     ;
(PID.TID 0000.0001) monitorFreq =   /* Monitor output interval ( s ). */
(PID.TID 0000.0001)                 1.000000000000000E+00
(PID.TID 0000.0001)     ;
(PID.TID 0000.0001) monitorSelect = /* select group of variables to monitor */
(PID.TID 0000.0001)                       3
(PID.TID 0000.0001)     ;
(PID.TID 0000.0001) monitor_stdio =   /* Model IO flag. */
(PID.TID 0000.0001)                   T
(PID.TID 0000.0001)     ;
(PID.TID 0000.0001) monitor_mnc =   /* Model IO flag. */
(PID.TID 0000.0001)                   F
(PID.TID 0000.0001)     ;
(PID.TID 0000.0001) externForcingPeriod =   /* forcing period (s) */
(PID.TID 0000.0001)                 2.592000000000000E+06
(PID.TID 0000.0001)     ;
(PID.TID 0000.0001) externForcingCycle =   /* period of the cyle (s). */
(PID.TID 0000.0001)                 3.110400000000000E+07
(PID.TID 0000.0001)     ;
(PID.TID 0000.0001) tauThetaClimRelax =   /* relaxation time scale (s) */
(PID.TID 0000.0001)                 0.000000000000000E+00
(PID.TID 0000.0001)     ;
(PID.TID 0000.0001) tauSaltClimRelax =   /* relaxation time scale (s) */
(PID.TID 0000.0001)                 0.000000000000000E+00
(PID.TID 0000.0001)     ;
(PID.TID 0000.0001) latBandClimRelax =   /* max. Lat. where relaxation */
(PID.TID 0000.0001)                 1.800000000000000E+02
(PID.TID 0000.0001)     ;
(PID.TID 0000.0001) //
(PID.TID 0000.0001) // Gridding paramters ( PARM04 in namelist )
(PID.TID 0000.0001) //
(PID.TID 0000.0001) usingCartesianGrid = /* Cartesian coordinates flag ( True/False ) */
(PID.TID 0000.0001)                   F
(PID.TID 0000.0001)     ;
(PID.TID 0000.0001) usingCylindricalGrid = /* Cylindrical coordinates flag ( True/False ) */
(PID.TID 0000.0001)                   F
(PID.TID 0000.0001)     ;
(PID.TID 0000.0001) usingSphericalPolarGrid = /* Spherical coordinates flag ( True/False ) */
(PID.TID 0000.0001)                   F
(PID.TID 0000.0001)     ;
(PID.TID 0000.0001) usingCurvilinearGrid = /* Curvilinear coordinates flag ( True/False ) */
(PID.TID 0000.0001)                   T
(PID.TID 0000.0001)     ;
(PID.TID 0000.0001) useMin4hFacEdges = /* set hFacW,S as minimum of adjacent hFacC factor */
(PID.TID 0000.0001)                   F
(PID.TID 0000.0001)     ;
(PID.TID 0000.0001) interViscAr_pCell = /* account for partial-cell in interior vert. viscosity */
(PID.TID 0000.0001)                   F
(PID.TID 0000.0001)     ;
(PID.TID 0000.0001) interDiffKr_pCell = /* account for partial-cell in interior vert. diffusion */
(PID.TID 0000.0001)                   F
(PID.TID 0000.0001)     ;
(PID.TID 0000.0001) pCellMix_select = /* option to enhance mixing near surface & bottom */
(PID.TID 0000.0001)                       0
(PID.TID 0000.0001)     ;
(PID.TID 0000.0001) selectSigmaCoord = /* Hybrid-Sigma Vert. Coordinate option */
(PID.TID 0000.0001)                       0
(PID.TID 0000.0001)     ;
(PID.TID 0000.0001) rSigmaBnd = /* r/sigma transition ( units of r ==  m ) */
(PID.TID 0000.0001)                 1.234567000000000E+05
(PID.TID 0000.0001)     ;
(PID.TID 0000.0001) rkSign =   /* index orientation relative to vertical coordinate */
(PID.TID 0000.0001)                -1.000000000000000E+00
(PID.TID 0000.0001)     ;
(PID.TID 0000.0001) gravitySign = /* gravity orientation relative to vertical coordinate */
(PID.TID 0000.0001)                -1.000000000000000E+00
(PID.TID 0000.0001)     ;
(PID.TID 0000.0001) seaLev_Z =  /* reference height of sea-level [m] */
(PID.TID 0000.0001)                 0.000000000000000E+00
(PID.TID 0000.0001)     ;
(PID.TID 0000.0001) top_Pres =  /* reference pressure at the top [Pa] */
(PID.TID 0000.0001)                 0.000000000000000E+00
(PID.TID 0000.0001)     ;
(PID.TID 0000.0001) mass2rUnit = /* convert mass per unit area [kg/m2] to r-units [m] */
(PID.TID 0000.0001)                 9.661835748792270E-04
(PID.TID 0000.0001)     ;
(PID.TID 0000.0001) rUnit2mass = /* convert r-units [m] to mass per unit area [kg/m2] */
(PID.TID 0000.0001)                 1.035000000000000E+03
(PID.TID 0000.0001)     ;
(PID.TID 0000.0001) drC =   /* C spacing ( units of r ) */
(PID.TID 0000.0001)                 2.500000000000000E+01,      /* K =  1 */
(PID.TID 0000.0001)                 6.000000000000000E+01,      /* K =  2 */
(PID.TID 0000.0001)                 8.500000000000000E+01,      /* K =  3 */
(PID.TID 0000.0001)                 1.200000000000000E+02,      /* K =  4 */
(PID.TID 0000.0001)                 1.650000000000000E+02,      /* K =  5 */
(PID.TID 0000.0001)                 2.150000000000000E+02,      /* K =  6 */
(PID.TID 0000.0001)                 2.650000000000000E+02,      /* K =  7 */
(PID.TID 0000.0001)                 3.150000000000000E+02,      /* K =  8 */
(PID.TID 0000.0001)                 3.650000000000000E+02,      /* K =  9 */
(PID.TID 0000.0001)                 4.150000000000000E+02,      /* K = 10 */
(PID.TID 0000.0001)                 4.650000000000000E+02,      /* K = 11 */
(PID.TID 0000.0001)                 5.150000000000000E+02,      /* K = 12 */
(PID.TID 0000.0001)                 5.650000000000000E+02,      /* K = 13 */
(PID.TID 0000.0001)                 6.150000000000000E+02,      /* K = 14 */
(PID.TID 0000.0001)                 6.650000000000000E+02,      /* K = 15 */
(PID.TID 0000.0001)                 3.450000000000000E+02       /* K = 16 */
(PID.TID 0000.0001)     ;
(PID.TID 0000.0001) drF =   /* W spacing ( units of r ) */
(PID.TID 0000.0001)                 5.000000000000000E+01,      /* K =  1 */
(PID.TID 0000.0001)                 7.000000000000000E+01,      /* K =  2 */
(PID.TID 0000.0001)                 1.000000000000000E+02,      /* K =  3 */
(PID.TID 0000.0001)                 1.400000000000000E+02,      /* K =  4 */
(PID.TID 0000.0001)                 1.900000000000000E+02,      /* K =  5 */
(PID.TID 0000.0001)                 2.400000000000000E+02,      /* K =  6 */
(PID.TID 0000.0001)                 2.900000000000000E+02,      /* K =  7 */
(PID.TID 0000.0001)                 3.400000000000000E+02,      /* K =  8 */
(PID.TID 0000.0001)                 3.900000000000000E+02,      /* K =  9 */
(PID.TID 0000.0001)                 4.400000000000000E+02,      /* K = 10 */
(PID.TID 0000.0001)                 4.900000000000000E+02,      /* K = 11 */
(PID.TID 0000.0001)                 5.400000000000000E+02,      /* K = 12 */
(PID.TID 0000.0001)                 5.900000000000000E+02,      /* K = 13 */
(PID.TID 0000.0001)                 6.400000000000000E+02,      /* K = 14 */
(PID.TID 0000.0001)                 6.900000000000000E+02       /* K = 15 */
(PID.TID 0000.0001)     ;
(PID.TID 0000.0001) radius_fromHorizGrid = /* sphere Radius of input horiz. grid */
(PID.TID 0000.0001)                 6.370000000000000E+06
(PID.TID 0000.0001)     ;
(PID.TID 0000.0001) rSphere =  /* Radius ( ignored - cartesian, m - spherical ) */
(PID.TID 0000.0001)                 6.370000000000000E+06
(PID.TID 0000.0001)     ;
(PID.TID 0000.0001) deepAtmosphere = /* Deep/Shallow Atmosphere flag (True/False) */
(PID.TID 0000.0001)                   F
(PID.TID 0000.0001)     ;
(PID.TID 0000.0001) xC =  /* xC(:,1,:,1) : P-point X coord ( deg. or m if cartesian) */
(PID.TID 0000.0001)                -4.439521994760536E+01,      /* I =  1 */
(PID.TID 0000.0001)                -4.295641272275883E+01,      /* I =  2 */
(PID.TID 0000.0001)                -4.122055553388957E+01,      /* I =  3 */
(PID.TID 0000.0001)      . . .
(PID.TID 0000.0001)                 1.312205555338896E+02,      /* I = 94 */
(PID.TID 0000.0001)                 1.329564127227588E+02,      /* I = 95 */
(PID.TID 0000.0001)                 1.343952199476053E+02,      /* I = 96 */
(PID.TID 0000.0001)                 4.635509675007168E+01,      /* I = 97 */
(PID.TID 0000.0001)                 4.906731228843647E+01,      /* I = 98 */
(PID.TID 0000.0001)                 5.178550688214704E+01,      /* I = 99 */
(PID.TID 0000.0001)      . . .
(PID.TID 0000.0001)                -1.778001716525716E+02,      /* I =190 */
(PID.TID 0000.0001)                -1.779288225675308E+02,      /* I =191 */
(PID.TID 0000.0001)                -1.780367200854751E+02,      /* I =192 */
(PID.TID 0000.0001)                 1.356047800523947E+02,      /* I =193 */
(PID.TID 0000.0001)                 1.358367907661329E+02,      /* I =194 */
(PID.TID 0000.0001)                 1.359720382181193E+02,      /* I =195 */
(PID.TID 0000.0001)      . . .
(PID.TID 0000.0001)                -1.340279617818807E+02,      /* I =286 */
(PID.TID 0000.0001)                -1.341632092338671E+02,      /* I =287 */
(PID.TID 0000.0001)                -1.343952199476053E+02,      /* I =288 */
(PID.TID 0000.0001)                -8.812739148696656E+01,      /* I =289 */
(PID.TID 0000.0001)                -8.820362659721324E+01,      /* I =290 */
(PID.TID 0000.0001)                -8.826768106944316E+01,      /* I =291 */
(PID.TID 0000.0001)      . . .
(PID.TID 0000.0001)                 8.780017165257156E+01,      /* I =382 */
(PID.TID 0000.0001)                 8.792882256753080E+01,      /* I =383 */
(PID.TID 0000.0001)                 8.803672008547504E+01       /* I =384 */
(PID.TID 0000.0001)     ;
(PID.TID 0000.0001) yC =  /* yC(1,:,1,:) : P-point Y coord ( deg. or m if cartesian) */
(PID.TID 0000.0001)                -3.497677942598243E+01,      /* J =  1 */
(PID.TID 0000.0001)                -3.374005967394886E+01,      /* J =  2 */
(PID.TID 0000.0001)                -3.220655175667454E+01,      /* J =  3 */
(PID.TID 0000.0001)                -3.045756348838641E+01,      /* J =  4 */
(PID.TID 0000.0001)                -2.853728129852918E+01,      /* J =  5 */
(PID.TID 0000.0001)                -2.647426640173173E+01,      /* J =  6 */
(PID.TID 0000.0001)                -2.428936657094636E+01,      /* J =  7 */
(PID.TID 0000.0001)                -2.199915808312262E+01,      /* J =  8 */
(PID.TID 0000.0001)                -1.961768597440146E+01,      /* J =  9 */
(PID.TID 0000.0001)                -1.715743888281371E+01,      /* J = 10 */
(PID.TID 0000.0001)                -1.462993396899330E+01,      /* J = 11 */
(PID.TID 0000.0001)                -1.204608340464756E+01,      /* J = 12 */
(PID.TID 0000.0001)                -9.416429130284818E+00,      /* J = 13 */
(PID.TID 0000.0001)                -6.751293662992216E+00,      /* J = 14 */
(PID.TID 0000.0001)                -4.060875511835959E+00,      /* J = 15 */
(PID.TID 0000.0001)                -1.355307764409121E+00       /* J = 16 */
(PID.TID 0000.0001)     ;
(PID.TID 0000.0001) rcoord = /* P-point R coordinate (  units of r ) */
(PID.TID 0000.0001)                -2.500000000000000E+01,      /* K =  1 */
(PID.TID 0000.0001)                -8.500000000000000E+01,      /* K =  2 */
(PID.TID 0000.0001)                -1.700000000000000E+02,      /* K =  3 */
(PID.TID 0000.0001)                -2.900000000000000E+02,      /* K =  4 */
(PID.TID 0000.0001)                -4.550000000000000E+02,      /* K =  5 */
(PID.TID 0000.0001)                -6.700000000000000E+02,      /* K =  6 */
(PID.TID 0000.0001)                -9.350000000000000E+02,      /* K =  7 */
(PID.TID 0000.0001)                -1.250000000000000E+03,      /* K =  8 */
(PID.TID 0000.0001)                -1.615000000000000E+03,      /* K =  9 */
(PID.TID 0000.0001)                -2.030000000000000E+03,      /* K = 10 */
(PID.TID 0000.0001)                -2.495000000000000E+03,      /* K = 11 */
(PID.TID 0000.0001)                -3.010000000000000E+03,      /* K = 12 */
(PID.TID 0000.0001)                -3.575000000000000E+03,      /* K = 13 */
(PID.TID 0000.0001)                -4.190000000000000E+03,      /* K = 14 */
(PID.TID 0000.0001)                -4.855000000000000E+03       /* K = 15 */
(PID.TID 0000.0001)     ;
(PID.TID 0000.0001) rF =   /* W-Interf. R coordinate (  units of r ) */
(PID.TID 0000.0001)                 0.000000000000000E+00,      /* K =  1 */
(PID.TID 0000.0001)                -5.000000000000000E+01,      /* K =  2 */
(PID.TID 0000.0001)                -1.200000000000000E+02,      /* K =  3 */
(PID.TID 0000.0001)                -2.200000000000000E+02,      /* K =  4 */
(PID.TID 0000.0001)                -3.600000000000000E+02,      /* K =  5 */
(PID.TID 0000.0001)                -5.500000000000000E+02,      /* K =  6 */
(PID.TID 0000.0001)                -7.900000000000000E+02,      /* K =  7 */
(PID.TID 0000.0001)                -1.080000000000000E+03,      /* K =  8 */
(PID.TID 0000.0001)                -1.420000000000000E+03,      /* K =  9 */
(PID.TID 0000.0001)                -1.810000000000000E+03,      /* K = 10 */
(PID.TID 0000.0001)                -2.250000000000000E+03,      /* K = 11 */
(PID.TID 0000.0001)                -2.740000000000000E+03,      /* K = 12 */
(PID.TID 0000.0001)                -3.280000000000000E+03,      /* K = 13 */
(PID.TID 0000.0001)                -3.870000000000000E+03,      /* K = 14 */
(PID.TID 0000.0001)                -4.510000000000000E+03,      /* K = 15 */
(PID.TID 0000.0001)                -5.200000000000000E+03       /* K = 16 */
(PID.TID 0000.0001)     ;
(PID.TID 0000.0001) deepFacC = /* deep-model grid factor @ cell-Center (-) */
(PID.TID 0000.0001)    15 @  1.000000000000000E+00              /* K =  1: 15 */
(PID.TID 0000.0001)     ;
(PID.TID 0000.0001) deepFacF = /* deep-model grid factor @ W-Interface (-) */
(PID.TID 0000.0001)    16 @  1.000000000000000E+00              /* K =  1: 16 */
(PID.TID 0000.0001)     ;
(PID.TID 0000.0001) rotateGrid = /* use rotated grid ( True/False ) */
(PID.TID 0000.0001)                   F
(PID.TID 0000.0001)     ;
(PID.TID 0000.0001) phiEuler = /* Euler angle, rotation about original z-coordinate [rad] */
(PID.TID 0000.0001)                 0.000000000000000E+00
(PID.TID 0000.0001)     ;
(PID.TID 0000.0001) thetaEuler = /* Euler angle, rotation about new x-coordinate [rad] */
(PID.TID 0000.0001)                 0.000000000000000E+00
(PID.TID 0000.0001)     ;
(PID.TID 0000.0001) psiEuler = /* Euler angle, rotation about new z-coordinate [rad] */
(PID.TID 0000.0001)                 0.000000000000000E+00
(PID.TID 0000.0001)     ;
(PID.TID 0000.0001) dxF =  /* dxF(:,1,:,1) ( units: m ) */
(PID.TID 0000.0001)                 1.202082051331828E+05,      /* I =  1 */
(PID.TID 0000.0001)                 1.563594089971120E+05,      /* I =  2 */
(PID.TID 0000.0001)                 1.835530058121492E+05,      /* I =  3 */
(PID.TID 0000.0001)      . . .
(PID.TID 0000.0001)                 1.835530058121492E+05,      /* I = 94 */
(PID.TID 0000.0001)                 1.563594089971120E+05,      /* I = 95 */
(PID.TID 0000.0001)                 1.202082051331828E+05,      /* I = 96 */
(PID.TID 0000.0001)                 3.012844832048790E+05,      /* I = 97 */
(PID.TID 0000.0001)                 3.017314519159184E+05,      /* I = 98 */
(PID.TID 0000.0001)                 3.026061571839506E+05,      /* I = 99 */
(PID.TID 0000.0001)      . . .
(PID.TID 0000.0001)                 3.026061571839506E+05,      /* I =190 */
(PID.TID 0000.0001)                 3.017314519159184E+05,      /* I =191 */
(PID.TID 0000.0001)                 3.012844832048790E+05,      /* I =192 */
(PID.TID 0000.0001)                 1.202082051331828E+05,      /* I =193 */
(PID.TID 0000.0001)                 1.563594089971120E+05,      /* I =194 */
(PID.TID 0000.0001)                 1.835530058121492E+05,      /* I =195 */
(PID.TID 0000.0001)      . . .
(PID.TID 0000.0001)                 1.835530058121492E+05,      /* I =286 */
(PID.TID 0000.0001)                 1.563594089971120E+05,      /* I =287 */
(PID.TID 0000.0001)                 1.202082051331828E+05,      /* I =288 */
(PID.TID 0000.0001)                 3.012844832048790E+05,      /* I =289 */
(PID.TID 0000.0001)                 3.017314519159184E+05,      /* I =290 */
(PID.TID 0000.0001)                 3.026061571839506E+05,      /* I =291 */
(PID.TID 0000.0001)      . . .
(PID.TID 0000.0001)                 3.026061571839506E+05,      /* I =382 */
(PID.TID 0000.0001)                 3.017314519159184E+05,      /* I =383 */
(PID.TID 0000.0001)                 3.012844832048790E+05       /* I =384 */
(PID.TID 0000.0001)     ;
(PID.TID 0000.0001) dxF =  /* dxF(1,:,1,:) ( units: m ) */
(PID.TID 0000.0001)                 1.202082051331828E+05,      /* J =  1 */
(PID.TID 0000.0001)                 1.572908084538706E+05,      /* J =  2 */
(PID.TID 0000.0001)                 1.840412227747703E+05,      /* J =  3 */
(PID.TID 0000.0001)                 2.048868197919576E+05,      /* J =  4 */
(PID.TID 0000.0001)                 2.220405216043041E+05,      /* J =  5 */
(PID.TID 0000.0001)                 2.365892017348392E+05,      /* J =  6 */
(PID.TID 0000.0001)                 2.491250781852558E+05,      /* J =  7 */
(PID.TID 0000.0001)                 2.599949918261881E+05,      /* J =  8 */
(PID.TID 0000.0001)                 2.694110134598581E+05,      /* J =  9 */
(PID.TID 0000.0001)                 2.775055554645015E+05,      /* J = 10 */
(PID.TID 0000.0001)                 2.843615645344775E+05,      /* J = 11 */
(PID.TID 0000.0001)                 2.900303768613599E+05,      /* J = 12 */
(PID.TID 0000.0001)                 2.945429307892709E+05,      /* J = 13 */
(PID.TID 0000.0001)                 2.979171143158405E+05,      /* J = 14 */
(PID.TID 0000.0001)                 3.001626787528886E+05,      /* J = 15 */
(PID.TID 0000.0001)                 3.012844832048790E+05       /* J = 16 */
(PID.TID 0000.0001)     ;
(PID.TID 0000.0001) dyF =  /* dyF(:,1,:,1) ( units: m ) */
(PID.TID 0000.0001)                 1.202082051331828E+05,      /* I =  1 */
(PID.TID 0000.0001)                 1.572908084538706E+05,      /* I =  2 */
(PID.TID 0000.0001)                 1.840412227747703E+05,      /* I =  3 */
(PID.TID 0000.0001)      . . .
(PID.TID 0000.0001)                 1.840412227747703E+05,      /* I = 94 */
(PID.TID 0000.0001)                 1.572908084538706E+05,      /* I = 95 */
(PID.TID 0000.0001)                 1.202082051331828E+05,      /* I = 96 */
(PID.TID 0000.0001)                 3.012190981969055E+05,      /* I = 97 */
(PID.TID 0000.0001)                 3.016675528553907E+05,      /* I = 98 */
(PID.TID 0000.0001)                 3.025451404065074E+05,      /* I = 99 */
(PID.TID 0000.0001)      . . .
(PID.TID 0000.0001)                 3.025451404065074E+05,      /* I =190 */
(PID.TID 0000.0001)                 3.016675528553907E+05,      /* I =191 */
(PID.TID 0000.0001)                 3.012190981969055E+05,      /* I =192 */
(PID.TID 0000.0001)                 1.202082051331828E+05,      /* I =193 */
(PID.TID 0000.0001)                 1.572908084538706E+05,      /* I =194 */
(PID.TID 0000.0001)                 1.840412227747703E+05,      /* I =195 */
(PID.TID 0000.0001)      . . .
(PID.TID 0000.0001)                 1.840412227747703E+05,      /* I =286 */
(PID.TID 0000.0001)                 1.572908084538706E+05,      /* I =287 */
(PID.TID 0000.0001)                 1.202082051331828E+05,      /* I =288 */
(PID.TID 0000.0001)                 3.012190981969055E+05,      /* I =289 */
(PID.TID 0000.0001)                 3.016675528553907E+05,      /* I =290 */
(PID.TID 0000.0001)                 3.025451404065074E+05,      /* I =291 */
(PID.TID 0000.0001)      . . .
(PID.TID 0000.0001)                 3.025451404065074E+05,      /* I =382 */
(PID.TID 0000.0001)                 3.016675528553907E+05,      /* I =383 */
(PID.TID 0000.0001)                 3.012190981969055E+05       /* I =384 */
(PID.TID 0000.0001)     ;
(PID.TID 0000.0001) dyF =  /* dyF(1,:,1,:) ( units: m ) */
(PID.TID 0000.0001)                 1.202082051331828E+05,      /* J =  1 */
(PID.TID 0000.0001)                 1.563594089971120E+05,      /* J =  2 */
(PID.TID 0000.0001)                 1.835530058121492E+05,      /* J =  3 */
(PID.TID 0000.0001)                 2.045883481718707E+05,      /* J =  4 */
(PID.TID 0000.0001)                 2.218350349844185E+05,      /* J =  5 */
(PID.TID 0000.0001)                 2.364352994647058E+05,      /* J =  6 */
(PID.TID 0000.0001)                 2.490022710862746E+05,      /* J =  7 */
(PID.TID 0000.0001)                 2.598919724358304E+05,      /* J =  8 */
(PID.TID 0000.0001)                 2.693210245495156E+05,      /* J =  9 */
(PID.TID 0000.0001)                 2.774243179696503E+05,      /* J = 10 */
(PID.TID 0000.0001)                 2.842862532064524E+05,      /* J = 11 */
(PID.TID 0000.0001)                 2.899590699694043E+05,      /* J = 12 */
(PID.TID 0000.0001)                 2.944742915095688E+05,      /* J = 13 */
(PID.TID 0000.0001)                 2.978501920522794E+05,      /* J = 14 */
(PID.TID 0000.0001)                 3.000967749619962E+05,      /* J = 15 */
(PID.TID 0000.0001)                 3.012190981969055E+05       /* J = 16 */
(PID.TID 0000.0001)     ;
(PID.TID 0000.0001) dxG =  /* dxG(:,1,:,1) ( units: m ) */
(PID.TID 0000.0001)                 1.009837800879055E+05,      /* I =  1 */
(PID.TID 0000.0001)                 1.534505834330338E+05,      /* I =  2 */
(PID.TID 0000.0001)                 1.823321598773926E+05,      /* I =  3 */
(PID.TID 0000.0001)      . . .
(PID.TID 0000.0001)                 1.823321598773926E+05,      /* I = 94 */
(PID.TID 0000.0001)                 1.534505834330338E+05,      /* I = 95 */
(PID.TID 0000.0001)                 1.009837800879055E+05,      /* I = 96 */
(PID.TID 0000.0001)                 3.014246674484008E+05,      /* I = 97 */
(PID.TID 0000.0001)                 3.018694497480782E+05,      /* I = 98 */
(PID.TID 0000.0001)                 3.027399364062562E+05,      /* I = 99 */
(PID.TID 0000.0001)      . . .
(PID.TID 0000.0001)                 3.027399364062562E+05,      /* I =190 */
(PID.TID 0000.0001)                 3.018694497480782E+05,      /* I =191 */
(PID.TID 0000.0001)                 3.014246674484008E+05,      /* I =192 */
(PID.TID 0000.0001)                 1.009837800879055E+05,      /* I =193 */
(PID.TID 0000.0001)                 1.534505834330338E+05,      /* I =194 */
(PID.TID 0000.0001)                 1.823321598773926E+05,      /* I =195 */
(PID.TID 0000.0001)      . . .
(PID.TID 0000.0001)                 1.823321598773926E+05,      /* I =286 */
(PID.TID 0000.0001)                 1.534505834330338E+05,      /* I =287 */
(PID.TID 0000.0001)                 1.009837800879055E+05,      /* I =288 */
(PID.TID 0000.0001)                 3.014246674484008E+05,      /* I =289 */
(PID.TID 0000.0001)                 3.018694497480782E+05,      /* I =290 */
(PID.TID 0000.0001)                 3.027399364062562E+05,      /* I =291 */
(PID.TID 0000.0001)      . . .
(PID.TID 0000.0001)                 3.027399364062562E+05,      /* I =382 */
(PID.TID 0000.0001)                 3.018694497480782E+05,      /* I =383 */
(PID.TID 0000.0001)                 3.014246674484008E+05       /* I =384 */
(PID.TID 0000.0001)     ;
(PID.TID 0000.0001) dxG =  /* dxG(1,:,1,:) ( units: m ) */
(PID.TID 0000.0001)                 1.009837800879055E+05,      /* J =  1 */
(PID.TID 0000.0001)                 1.403701524205398E+05,      /* J =  2 */
(PID.TID 0000.0001)                 1.716197227386011E+05,      /* J =  3 */
(PID.TID 0000.0001)                 1.950254041626018E+05,      /* J =  4 */
(PID.TID 0000.0001)                 2.138410773065497E+05,      /* J =  5 */
(PID.TID 0000.0001)                 2.295958105911512E+05,      /* J =  6 */
(PID.TID 0000.0001)                 2.430829951739083E+05,      /* J =  7 */
(PID.TID 0000.0001)                 2.547526806712889E+05,      /* J =  8 */
(PID.TID 0000.0001)                 2.648750305193301E+05,      /* J =  9 */
(PID.TID 0000.0001)                 2.736173771018112E+05,      /* J = 10 */
(PID.TID 0000.0001)                 2.810845823202647E+05,      /* J = 11 */
(PID.TID 0000.0001)                 2.873420591008078E+05,      /* J = 12 */
(PID.TID 0000.0001)                 2.924298293668651E+05,      /* J = 13 */
(PID.TID 0000.0001)                 2.963715635865306E+05,      /* J = 14 */
(PID.TID 0000.0001)                 2.991805843171258E+05,      /* J = 15 */
(PID.TID 0000.0001)                 3.008638765647886E+05       /* J = 16 */
(PID.TID 0000.0001)     ;
(PID.TID 0000.0001) dyG =  /* dyG(:,1,:,1) ( units: m ) */
(PID.TID 0000.0001)                 1.009837800879055E+05,      /* I =  1 */
(PID.TID 0000.0001)                 1.403701524205398E+05,      /* I =  2 */
(PID.TID 0000.0001)                 1.716197227386011E+05,      /* I =  3 */
(PID.TID 0000.0001)      . . .
(PID.TID 0000.0001)                 1.950254041626018E+05,      /* I = 94 */
(PID.TID 0000.0001)                 1.716197227386011E+05,      /* I = 95 */
(PID.TID 0000.0001)                 1.403701524205398E+05,      /* I = 96 */
(PID.TID 0000.0001)                 3.011625828699101E+05,      /* I = 97 */
(PID.TID 0000.0001)                 3.013880313304323E+05,      /* I = 98 */
(PID.TID 0000.0001)                 3.020546438966793E+05,      /* I = 99 */
(PID.TID 0000.0001)      . . .
(PID.TID 0000.0001)                 3.031337933484788E+05,      /* I =190 */
(PID.TID 0000.0001)                 3.020546438966793E+05,      /* I =191 */
(PID.TID 0000.0001)                 3.013880313304323E+05,      /* I =192 */
(PID.TID 0000.0001)                 1.009837800879055E+05,      /* I =193 */
(PID.TID 0000.0001)                 1.403701524205398E+05,      /* I =194 */
(PID.TID 0000.0001)                 1.716197227386011E+05,      /* I =195 */
(PID.TID 0000.0001)      . . .
(PID.TID 0000.0001)                 1.950254041626018E+05,      /* I =286 */
(PID.TID 0000.0001)                 1.716197227386011E+05,      /* I =287 */
(PID.TID 0000.0001)                 1.403701524205398E+05,      /* I =288 */
(PID.TID 0000.0001)                 3.011625828699101E+05,      /* I =289 */
(PID.TID 0000.0001)                 3.013880313304323E+05,      /* I =290 */
(PID.TID 0000.0001)                 3.020546438966793E+05,      /* I =291 */
(PID.TID 0000.0001)      . . .
(PID.TID 0000.0001)                 3.031337933484788E+05,      /* I =382 */
(PID.TID 0000.0001)                 3.020546438966793E+05,      /* I =383 */
(PID.TID 0000.0001)                 3.013880313304323E+05       /* I =384 */
(PID.TID 0000.0001)     ;
(PID.TID 0000.0001) dyG =  /* dyG(1,:,1,:) ( units: m ) */
(PID.TID 0000.0001)                 1.009837800879055E+05,      /* J =  1 */
(PID.TID 0000.0001)                 1.534505834330338E+05,      /* J =  2 */
(PID.TID 0000.0001)                 1.823321598773926E+05,      /* J =  3 */
(PID.TID 0000.0001)                 2.038999045536999E+05,      /* J =  4 */
(PID.TID 0000.0001)                 2.213884732245467E+05,      /* J =  5 */
(PID.TID 0000.0001)                 2.361211699596122E+05,      /* J =  6 */
(PID.TID 0000.0001)                 2.487693460283865E+05,      /* J =  7 */
(PID.TID 0000.0001)                 2.597126963772147E+05,      /* J =  8 */
(PID.TID 0000.0001)                 2.691790288994575E+05,      /* J =  9 */
(PID.TID 0000.0001)                 2.773091043277394E+05,      /* J = 10 */
(PID.TID 0000.0001)                 2.841906470085516E+05,      /* J = 11 */
(PID.TID 0000.0001)                 2.898778860929753E+05,      /* J = 12 */
(PID.TID 0000.0001)                 2.944035815526416E+05,      /* J = 13 */
(PID.TID 0000.0001)                 2.977867909042096E+05,      /* J = 14 */
(PID.TID 0000.0001)                 3.000380090330854E+05,      /* J = 15 */
(PID.TID 0000.0001)                 3.011625828699101E+05       /* J = 16 */
(PID.TID 0000.0001)     ;
(PID.TID 0000.0001) dxC =  /* dxC(:,1,:,1) ( units: m ) */
(PID.TID 0000.0001)                 1.114203141013064E+05,      /* I =  1 */
(PID.TID 0000.0001)                 1.391343389937106E+05,      /* I =  2 */
(PID.TID 0000.0001)                 1.709574999026266E+05,      /* I =  3 */
(PID.TID 0000.0001)      . . .
(PID.TID 0000.0001)                 1.946503699269892E+05,      /* I = 94 */
(PID.TID 0000.0001)                 1.709574999026266E+05,      /* I = 95 */
(PID.TID 0000.0001)                 1.391343389937106E+05,      /* I = 96 */
(PID.TID 0000.0001)                 3.012281885409289E+05,      /* I = 97 */
(PID.TID 0000.0001)                 3.014528555318499E+05,      /* I = 98 */
(PID.TID 0000.0001)                 3.021172674809921E+05,      /* I = 99 */
(PID.TID 0000.0001)      . . .
(PID.TID 0000.0001)                 3.031928954490276E+05,      /* I =190 */
(PID.TID 0000.0001)                 3.021172674809921E+05,      /* I =191 */
(PID.TID 0000.0001)                 3.014528555318499E+05,      /* I =192 */
(PID.TID 0000.0001)                 1.114203141013064E+05,      /* I =193 */
(PID.TID 0000.0001)                 1.391343389937106E+05,      /* I =194 */
(PID.TID 0000.0001)                 1.709574999026266E+05,      /* I =195 */
(PID.TID 0000.0001)      . . .
(PID.TID 0000.0001)                 1.946503699269892E+05,      /* I =286 */
(PID.TID 0000.0001)                 1.709574999026266E+05,      /* I =287 */
(PID.TID 0000.0001)                 1.391343389937106E+05,      /* I =288 */
(PID.TID 0000.0001)                 3.012281885409289E+05,      /* I =289 */
(PID.TID 0000.0001)                 3.014528555318499E+05,      /* I =290 */
(PID.TID 0000.0001)                 3.021172674809921E+05,      /* I =291 */
(PID.TID 0000.0001)      . . .
(PID.TID 0000.0001)                 3.031928954490276E+05,      /* I =382 */
(PID.TID 0000.0001)                 3.021172674809921E+05,      /* I =383 */
(PID.TID 0000.0001)                 3.014528555318499E+05       /* I =384 */
(PID.TID 0000.0001)     ;
(PID.TID 0000.0001) dxC =  /* dxC(1,:,1,:) ( units: m ) */
(PID.TID 0000.0001)                 1.114203141013064E+05,      /* J =  1 */
(PID.TID 0000.0001)                 1.549545757850771E+05,      /* J =  2 */
(PID.TID 0000.0001)                 1.829777599966776E+05,      /* J =  3 */
(PID.TID 0000.0001)                 2.042717761866506E+05,      /* J =  4 */
(PID.TID 0000.0001)                 2.216367828252819E+05,      /* J =  5 */
(PID.TID 0000.0001)                 2.363029564123586E+05,      /* J =  6 */
(PID.TID 0000.0001)                 2.489113743322025E+05,      /* J =  7 */
(PID.TID 0000.0001)                 2.598293319150326E+05,      /* J =  8 */
(PID.TID 0000.0001)                 2.692787333338535E+05,      /* J =  9 */
(PID.TID 0000.0001)                 2.773972106720365E+05,      /* J = 10 */
(PID.TID 0000.0001)                 2.842706922224557E+05,      /* J = 11 */
(PID.TID 0000.0001)                 2.899523122489403E+05,      /* J = 12 */
(PID.TID 0000.0001)                 2.944741346384699E+05,      /* J = 13 */
(PID.TID 0000.0001)                 2.978547649292580E+05,      /* J = 14 */
(PID.TID 0000.0001)                 3.001044073506459E+05,      /* J = 15 */
(PID.TID 0000.0001)                 3.012281885409289E+05       /* J = 16 */
(PID.TID 0000.0001)     ;
(PID.TID 0000.0001) dyC =  /* dyC(:,1,:,1) ( units: m ) */
(PID.TID 0000.0001)                 1.114203141013064E+05,      /* I =  1 */
(PID.TID 0000.0001)                 1.549545757850771E+05,      /* I =  2 */
(PID.TID 0000.0001)                 1.829777599966776E+05,      /* I =  3 */
(PID.TID 0000.0001)      . . .
(PID.TID 0000.0001)                 1.829777599966776E+05,      /* I = 94 */
(PID.TID 0000.0001)                 1.549545757850771E+05,      /* I = 95 */
(PID.TID 0000.0001)                 1.114203141013064E+05,      /* I = 96 */
(PID.TID 0000.0001)                 3.013593857228136E+05,      /* I = 97 */
(PID.TID 0000.0001)                 3.018056440786431E+05,      /* I = 98 */
(PID.TID 0000.0001)                 3.026789946729719E+05,      /* I = 99 */
(PID.TID 0000.0001)      . . .
(PID.TID 0000.0001)                 3.026789946729719E+05,      /* I =190 */
(PID.TID 0000.0001)                 3.018056440786431E+05,      /* I =191 */
(PID.TID 0000.0001)                 3.013593857228136E+05,      /* I =192 */
(PID.TID 0000.0001)                 1.114203141013064E+05,      /* I =193 */
(PID.TID 0000.0001)                 1.549545757850771E+05,      /* I =194 */
(PID.TID 0000.0001)                 1.829777599966776E+05,      /* I =195 */
(PID.TID 0000.0001)      . . .
(PID.TID 0000.0001)                 1.829777599966776E+05,      /* I =286 */
(PID.TID 0000.0001)                 1.549545757850771E+05,      /* I =287 */
(PID.TID 0000.0001)                 1.114203141013064E+05,      /* I =288 */
(PID.TID 0000.0001)                 3.013593857228136E+05,      /* I =289 */
(PID.TID 0000.0001)                 3.018056440786431E+05,      /* I =290 */
(PID.TID 0000.0001)                 3.026789946729719E+05,      /* I =291 */
(PID.TID 0000.0001)      . . .
(PID.TID 0000.0001)                 3.026789946729719E+05,      /* I =382 */
(PID.TID 0000.0001)                 3.018056440786431E+05,      /* I =383 */
(PID.TID 0000.0001)                 3.013593857228136E+05       /* I =384 */
(PID.TID 0000.0001)     ;
(PID.TID 0000.0001) dyC =  /* dyC(1,:,1,:) ( units: m ) */
(PID.TID 0000.0001)                 1.114203141013064E+05,      /* J =  1 */
(PID.TID 0000.0001)                 1.391343389937106E+05,      /* J =  2 */
(PID.TID 0000.0001)                 1.709574999026266E+05,      /* J =  3 */
(PID.TID 0000.0001)                 1.946503699269892E+05,      /* J =  4 */
(PID.TID 0000.0001)                 2.135964483342134E+05,      /* J =  5 */
(PID.TID 0000.0001)                 2.294195678257306E+05,      /* J =  6 */
(PID.TID 0000.0001)                 2.429464709770498E+05,      /* J =  7 */
(PID.TID 0000.0001)                 2.546408290696998E+05,      /* J =  8 */
(PID.TID 0000.0001)                 2.647791839299727E+05,      /* J =  9 */
(PID.TID 0000.0001)                 2.735321911346108E+05,      /* J = 10 */
(PID.TID 0000.0001)                 2.810065951609633E+05,      /* J = 11 */
(PID.TID 0000.0001)                 2.872689479506990E+05,      /* J = 12 */
(PID.TID 0000.0001)                 2.923599955312932E+05,      /* J = 13 */
(PID.TID 0000.0001)                 2.963038832565530E+05,      /* J = 14 */
(PID.TID 0000.0001)                 2.991142470004740E+05,      /* J = 15 */
(PID.TID 0000.0001)                 3.007982711627968E+05       /* J = 16 */
(PID.TID 0000.0001)     ;
(PID.TID 0000.0001) dxV =  /* dxV(:,1,:,1) ( units: m ) */
(PID.TID 0000.0001)                 8.015229982413632E+04,      /* I =  1 */
(PID.TID 0000.0001)                 1.333130744933864E+05,      /* I =  2 */
(PID.TID 0000.0001)                 1.691744868129062E+05,      /* I =  3 */
(PID.TID 0000.0001)      . . .
(PID.TID 0000.0001)                 1.937548202849060E+05,      /* I = 94 */
(PID.TID 0000.0001)                 1.691744868129062E+05,      /* I = 95 */
(PID.TID 0000.0001)                 1.333130744933864E+05,      /* I = 96 */
(PID.TID 0000.0001)                 3.013686170436881E+05,      /* I = 97 */
(PID.TID 0000.0001)                 3.015922136961168E+05,      /* I = 98 */
(PID.TID 0000.0001)                 3.022533948177109E+05,      /* I = 99 */
(PID.TID 0000.0001)      . . .
(PID.TID 0000.0001)                 3.033238888442880E+05,      /* I =190 */
(PID.TID 0000.0001)                 3.022533948177109E+05,      /* I =191 */
(PID.TID 0000.0001)                 3.015922136961168E+05,      /* I =192 */
(PID.TID 0000.0001)                 8.015229982413632E+04,      /* I =193 */
(PID.TID 0000.0001)                 1.333130744933864E+05,      /* I =194 */
(PID.TID 0000.0001)                 1.691744868129062E+05,      /* I =195 */
(PID.TID 0000.0001)      . . .
(PID.TID 0000.0001)                 1.937548202849060E+05,      /* I =286 */
(PID.TID 0000.0001)                 1.691744868129062E+05,      /* I =287 */
(PID.TID 0000.0001)                 1.333130744933864E+05,      /* I =288 */
(PID.TID 0000.0001)                 3.013686170436881E+05,      /* I =289 */
(PID.TID 0000.0001)                 3.015922136961168E+05,      /* I =290 */
(PID.TID 0000.0001)                 3.022533948177109E+05,      /* I =291 */
(PID.TID 0000.0001)      . . .
(PID.TID 0000.0001)                 3.033238888442880E+05,      /* I =382 */
(PID.TID 0000.0001)                 3.022533948177109E+05,      /* I =383 */
(PID.TID 0000.0001)                 3.015922136961168E+05       /* I =384 */
(PID.TID 0000.0001)     ;
(PID.TID 0000.0001) dxV =  /* dxV(1,:,1,:) ( units: m ) */
(PID.TID 0000.0001)                 8.015229982413632E+04,      /* J =  1 */
(PID.TID 0000.0001)                 1.362652340208229E+05,      /* J =  2 */
(PID.TID 0000.0001)                 1.701080315742101E+05,      /* J =  3 */
(PID.TID 0000.0001)                 1.942331448101592E+05,      /* J =  4 */
(PID.TID 0000.0001)                 2.133486626971531E+05,      /* J =  5 */
(PID.TID 0000.0001)                 2.292584591272880E+05,      /* J =  6 */
(PID.TID 0000.0001)                 2.428369969078989E+05,      /* J =  7 */
(PID.TID 0000.0001)                 2.545652950875683E+05,      /* J =  8 */
(PID.TID 0000.0001)                 2.647274964828301E+05,      /* J =  9 */
(PID.TID 0000.0001)                 2.734980225206389E+05,      /* J = 10 */
(PID.TID 0000.0001)                 2.809856491525217E+05,      /* J = 11 */
(PID.TID 0000.0001)                 2.872580915202295E+05,      /* J = 12 */
(PID.TID 0000.0001)                 2.923567890694162E+05,      /* J = 13 */
(PID.TID 0000.0001)                 2.963063101754721E+05,      /* J = 14 */
(PID.TID 0000.0001)                 2.991205495886625E+05,      /* J = 15 */
(PID.TID 0000.0001)                 3.008068453676764E+05       /* J = 16 */
(PID.TID 0000.0001)     ;
(PID.TID 0000.0001) dyU =  /* dyU(:,1,:,1) ( units: m ) */
(PID.TID 0000.0001)                 8.015229982413632E+04,      /* I =  1 */
(PID.TID 0000.0001)                 1.362652340208229E+05,      /* I =  2 */
(PID.TID 0000.0001)                 1.701080315742101E+05,      /* I =  3 */
(PID.TID 0000.0001)      . . .
(PID.TID 0000.0001)                 1.942331448101592E+05,      /* I = 94 */
(PID.TID 0000.0001)                 1.701080315742101E+05,      /* I = 95 */
(PID.TID 0000.0001)                 1.362652340208229E+05,      /* I = 96 */
(PID.TID 0000.0001)                 3.013031486919771E+05,      /* I = 97 */
(PID.TID 0000.0001)                 3.015274890091515E+05,      /* I = 98 */
(PID.TID 0000.0001)                 3.021908563699420E+05,      /* I = 99 */
(PID.TID 0000.0001)      . . .
(PID.TID 0000.0001)                 3.032648502024415E+05,      /* I =190 */
(PID.TID 0000.0001)                 3.021908563699420E+05,      /* I =191 */
(PID.TID 0000.0001)                 3.015274890091515E+05,      /* I =192 */
(PID.TID 0000.0001)                 8.015229982413632E+04,      /* I =193 */
(PID.TID 0000.0001)                 1.362652340208229E+05,      /* I =194 */
(PID.TID 0000.0001)                 1.701080315742101E+05,      /* I =195 */
(PID.TID 0000.0001)      . . .
(PID.TID 0000.0001)                 1.942331448101592E+05,      /* I =286 */
(PID.TID 0000.0001)                 1.701080315742101E+05,      /* I =287 */
(PID.TID 0000.0001)                 1.362652340208229E+05,      /* I =288 */
(PID.TID 0000.0001)                 3.013031486919771E+05,      /* I =289 */
(PID.TID 0000.0001)                 3.015274890091515E+05,      /* I =290 */
(PID.TID 0000.0001)                 3.021908563699420E+05,      /* I =291 */
(PID.TID 0000.0001)      . . .
(PID.TID 0000.0001)                 3.032648502024415E+05,      /* I =382 */
(PID.TID 0000.0001)                 3.021908563699420E+05,      /* I =383 */
(PID.TID 0000.0001)                 3.015274890091515E+05       /* I =384 */
(PID.TID 0000.0001)     ;
(PID.TID 0000.0001) dyU =  /* dyU(1,:,1,:) ( units: m ) */
(PID.TID 0000.0001)                 8.015229982413632E+04,      /* J =  1 */
(PID.TID 0000.0001)                 1.333130744933864E+05,      /* J =  2 */
(PID.TID 0000.0001)                 1.691744868129062E+05,      /* J =  3 */
(PID.TID 0000.0001)                 1.937548202849060E+05,      /* J =  4 */
(PID.TID 0000.0001)                 2.130490056267208E+05,      /* J =  5 */
(PID.TID 0000.0001)                 2.290479919481738E+05,      /* J =  6 */
(PID.TID 0000.0001)                 2.426774358027003E+05,      /* J =  7 */
(PID.TID 0000.0001)                 2.544372984215561E+05,      /* J =  8 */
(PID.TID 0000.0001)                 2.646201463834826E+05,      /* J =  9 */
(PID.TID 0000.0001)                 2.734046499619031E+05,      /* J = 10 */
(PID.TID 0000.0001)                 2.809019351693761E+05,      /* J = 11 */
(PID.TID 0000.0001)                 2.871811105274442E+05,      /* J = 12 */
(PID.TID 0000.0001)                 2.922844849381675E+05,      /* J = 13 */
(PID.TID 0000.0001)                 2.962371870847826E+05,      /* J = 14 */
(PID.TID 0000.0001)                 2.990534755671296E+05,      /* J = 15 */
(PID.TID 0000.0001)                 3.007409169495504E+05       /* J = 16 */
(PID.TID 0000.0001)     ;
(PID.TID 0000.0001) rA  =  /* rA (:,1,:,1) ( units: m^2 ) */
(PID.TID 0000.0001)                 1.401900702255611E+10,      /* I =  1 */
(PID.TID 0000.0001)                 2.459906945574446E+10,      /* I =  2 */
(PID.TID 0000.0001)                 3.378518544307869E+10,      /* I =  3 */
(PID.TID 0000.0001)      . . .
(PID.TID 0000.0001)                 3.378518544304265E+10,      /* I = 94 */
(PID.TID 0000.0001)                 2.459906945574446E+10,      /* I = 95 */
(PID.TID 0000.0001)                 1.401900702259215E+10,      /* I = 96 */
(PID.TID 0000.0001)                 9.076111290422060E+10,      /* I = 97 */
(PID.TID 0000.0001)                 9.103111035233499E+10,      /* I = 98 */
(PID.TID 0000.0001)                 9.156064070993231E+10,      /* I = 99 */
(PID.TID 0000.0001)      . . .
(PID.TID 0000.0001)                 9.156064070993231E+10,      /* I =190 */
(PID.TID 0000.0001)                 9.103111035233499E+10,      /* I =191 */
(PID.TID 0000.0001)                 9.076111290418457E+10,      /* I =192 */
(PID.TID 0000.0001)                 1.401900702255611E+10,      /* I =193 */
(PID.TID 0000.0001)                 2.459906945574446E+10,      /* I =194 */
(PID.TID 0000.0001)                 3.378518544307869E+10,      /* I =195 */
(PID.TID 0000.0001)      . . .
(PID.TID 0000.0001)                 3.378518544304265E+10,      /* I =286 */
(PID.TID 0000.0001)                 2.459906945574446E+10,      /* I =287 */
(PID.TID 0000.0001)                 1.401900702259215E+10,      /* I =288 */
(PID.TID 0000.0001)                 9.076111290422060E+10,      /* I =289 */
(PID.TID 0000.0001)                 9.103111035233499E+10,      /* I =290 */
(PID.TID 0000.0001)                 9.156064070993231E+10,      /* I =291 */
(PID.TID 0000.0001)      . . .
(PID.TID 0000.0001)                 9.156064070993231E+10,      /* I =382 */
(PID.TID 0000.0001)                 9.103111035233499E+10,      /* I =383 */
(PID.TID 0000.0001)                 9.076111290418457E+10       /* I =384 */
(PID.TID 0000.0001)     ;
(PID.TID 0000.0001) rA  =  /* rA (1,:,1,:) ( units: m^2 ) */
(PID.TID 0000.0001)                 1.401900702255611E+10,      /* J =  1 */
(PID.TID 0000.0001)                 2.459906945574446E+10,      /* J =  2 */
(PID.TID 0000.0001)                 3.378518544307869E+10,      /* J =  3 */
(PID.TID 0000.0001)                 4.192037169898667E+10,      /* J =  4 */
(PID.TID 0000.0001)                 4.925938996118163E+10,      /* J =  5 */
(PID.TID 0000.0001)                 5.594154126607553E+10,      /* J =  6 */
(PID.TID 0000.0001)                 6.203683527776127E+10,      /* J =  7 */
(PID.TID 0000.0001)                 6.757541173817516E+10,      /* J =  8 */
(PID.TID 0000.0001)                 7.256353271748119E+10,      /* J =  9 */
(PID.TID 0000.0001)                 7.699293007098555E+10,      /* J = 10 */
(PID.TID 0000.0001)                 8.084683449728902E+10,      /* J = 11 */
(PID.TID 0000.0001)                 8.410423102799828E+10,      /* J = 12 */
(PID.TID 0000.0001)                 8.674306976737517E+10,      /* J = 13 */
(PID.TID 0000.0001)                 8.874277443041928E+10,      /* J = 14 */
(PID.TID 0000.0001)                 9.008620045350865E+10,      /* J = 15 */
(PID.TID 0000.0001)                 9.076111290418457E+10       /* J = 16 */
(PID.TID 0000.0001)     ;
(PID.TID 0000.0001) rAw =  /* rAw(:,1,:,1) ( units: m^2 ) */
(PID.TID 0000.0001)                 1.216690346714270E+10,      /* I =  1 */
(PID.TID 0000.0001)                 1.974052138506315E+10,      /* I =  2 */
(PID.TID 0000.0001)                 2.943712825252015E+10,      /* I =  3 */
(PID.TID 0000.0001)      . . .
(PID.TID 0000.0001)                 3.801790263325260E+10,      /* I = 94 */
(PID.TID 0000.0001)                 2.943712825251114E+10,      /* I = 95 */
(PID.TID 0000.0001)                 1.974052138509018E+10,      /* I = 96 */
(PID.TID 0000.0001)                 9.071447638299399E+10,      /* I = 97 */
(PID.TID 0000.0001)                 9.085012105610597E+10,      /* I = 98 */
(PID.TID 0000.0001)                 9.125179254955583E+10,      /* I = 99 */
(PID.TID 0000.0001)      . . .
(PID.TID 0000.0001)                 9.190392048045309E+10,      /* I =190 */
(PID.TID 0000.0001)                 9.125179254954683E+10,      /* I =191 */
(PID.TID 0000.0001)                 9.085012105606993E+10,      /* I =192 */
(PID.TID 0000.0001)                 1.216690346714270E+10,      /* I =193 */
(PID.TID 0000.0001)                 1.974052138506315E+10,      /* I =194 */
(PID.TID 0000.0001)                 2.943712825252015E+10,      /* I =195 */
(PID.TID 0000.0001)      . . .
(PID.TID 0000.0001)                 3.801790263325260E+10,      /* I =286 */
(PID.TID 0000.0001)                 2.943712825251114E+10,      /* I =287 */
(PID.TID 0000.0001)                 1.974052138509018E+10,      /* I =288 */
(PID.TID 0000.0001)                 9.071447638299399E+10,      /* I =289 */
(PID.TID 0000.0001)                 9.085012105610597E+10,      /* I =290 */
(PID.TID 0000.0001)                 9.125179254955583E+10,      /* I =291 */
(PID.TID 0000.0001)      . . .
(PID.TID 0000.0001)                 9.190392048045309E+10,      /* I =382 */
(PID.TID 0000.0001)                 9.125179254954683E+10,      /* I =383 */
(PID.TID 0000.0001)                 9.085012105606993E+10       /* I =384 */
(PID.TID 0000.0001)     ;
(PID.TID 0000.0001) rAw =  /* rAw(1,:,1,:) ( units: m^2 ) */
(PID.TID 0000.0001)                 1.216690346714270E+10,      /* J =  1 */
(PID.TID 0000.0001)                 2.390126200743558E+10,      /* J =  2 */
(PID.TID 0000.0001)                 3.341968103208270E+10,      /* J =  3 */
(PID.TID 0000.0001)                 4.168532893152940E+10,      /* J =  4 */
(PID.TID 0000.0001)                 4.909074590409593E+10,      /* J =  5 */
(PID.TID 0000.0001)                 5.581203765722643E+10,      /* J =  6 */
(PID.TID 0000.0001)                 6.193257577506788E+10,      /* J =  7 */
(PID.TID 0000.0001)                 6.748840226738273E+10,      /* J =  8 */
(PID.TID 0000.0001)                 7.248875782324815E+10,      /* J =  9 */
(PID.TID 0000.0001)                 7.692702995909871E+10,      /* J = 10 */
(PID.TID 0000.0001)                 8.078743937057304E+10,      /* J = 11 */
(PID.TID 0000.0001)                 8.404959656062837E+10,      /* J = 12 */
(PID.TID 0000.0001)                 8.669186205742538E+10,      /* J = 13 */
(PID.TID 0000.0001)                 8.869393350723613E+10,      /* J = 14 */
(PID.TID 0000.0001)                 9.003884657168852E+10,      /* J = 15 */
(PID.TID 0000.0001)                 9.071447638299399E+10       /* J = 16 */
(PID.TID 0000.0001)     ;
(PID.TID 0000.0001) rAs =  /* rAs(:,1,:,1) ( units: m^2 ) */
(PID.TID 0000.0001)                 1.216690346714270E+10,      /* I =  1 */
(PID.TID 0000.0001)                 2.390126200743558E+10,      /* I =  2 */
(PID.TID 0000.0001)                 3.341968103208270E+10,      /* I =  3 */
(PID.TID 0000.0001)      . . .
(PID.TID 0000.0001)                 3.341968103208270E+10,      /* I = 94 */
(PID.TID 0000.0001)                 2.390126200743558E+10,      /* I = 95 */
(PID.TID 0000.0001)                 1.216690346714270E+10,      /* I = 96 */
(PID.TID 0000.0001)                 9.083293515008307E+10,      /* I = 97 */
(PID.TID 0000.0001)                 9.110170898494536E+10,      /* I = 98 */
(PID.TID 0000.0001)                 9.162886297688426E+10,      /* I = 99 */
(PID.TID 0000.0001)      . . .
(PID.TID 0000.0001)                 9.162886297688426E+10,      /* I =190 */
(PID.TID 0000.0001)                 9.110170898494536E+10,      /* I =191 */
(PID.TID 0000.0001)                 9.083293515008307E+10,      /* I =192 */
(PID.TID 0000.0001)                 1.216690346714270E+10,      /* I =193 */
(PID.TID 0000.0001)                 2.390126200743558E+10,      /* I =194 */
(PID.TID 0000.0001)                 3.341968103208270E+10,      /* I =195 */
(PID.TID 0000.0001)      . . .
(PID.TID 0000.0001)                 3.341968103208270E+10,      /* I =286 */
(PID.TID 0000.0001)                 2.390126200743558E+10,      /* I =287 */
(PID.TID 0000.0001)                 1.216690346714270E+10,      /* I =288 */
(PID.TID 0000.0001)                 9.083293515008307E+10,      /* I =289 */
(PID.TID 0000.0001)                 9.110170898494536E+10,      /* I =290 */
(PID.TID 0000.0001)                 9.162886297688426E+10,      /* I =291 */
(PID.TID 0000.0001)      . . .
(PID.TID 0000.0001)                 9.162886297688426E+10,      /* I =382 */
(PID.TID 0000.0001)                 9.110170898494536E+10,      /* I =383 */
(PID.TID 0000.0001)                 9.083293515008307E+10       /* I =384 */
(PID.TID 0000.0001)     ;
(PID.TID 0000.0001) rAs =  /* rAs(1,:,1,:) ( units: m^2 ) */
(PID.TID 0000.0001)                 1.216690346714270E+10,      /* J =  1 */
(PID.TID 0000.0001)                 1.974052138506315E+10,      /* J =  2 */
(PID.TID 0000.0001)                 2.943712825252015E+10,      /* J =  3 */
(PID.TID 0000.0001)                 3.801790263324359E+10,      /* J =  4 */
(PID.TID 0000.0001)                 4.571243814189866E+10,      /* J =  5 */
(PID.TID 0000.0001)                 5.269930713599979E+10,      /* J =  6 */
(PID.TID 0000.0001)                 5.907428494299063E+10,      /* J =  7 */
(PID.TID 0000.0001)                 6.488320895111514E+10,      /* J =  8 */
(PID.TID 0000.0001)                 7.014205907741882E+10,      /* J =  9 */
(PID.TID 0000.0001)                 7.484854821847499E+10,      /* J = 10 */
(PID.TID 0000.0001)                 7.898934631431560E+10,      /* J = 11 */
(PID.TID 0000.0001)                 8.254500894894537E+10,      /* J = 12 */
(PID.TID 0000.0001)                 8.549360686473492E+10,      /* J = 13 */
(PID.TID 0000.0001)                 8.781353403175085E+10,      /* J = 14 */
(PID.TID 0000.0001)                 8.948571540392021E+10,      /* J = 15 */
(PID.TID 0000.0001)                 9.049530583086168E+10       /* J = 16 */
(PID.TID 0000.0001)     ;
(PID.TID 0000.0001) globalArea = /* Integrated horizontal Area (m^2) */
(PID.TID 0000.0001)                 3.638867375081599E+14
(PID.TID 0000.0001)     ;
(PID.TID 0000.0001) hasWetCSCorners = /* Domain contains CS corners (True/False) */
(PID.TID 0000.0001)                   T
(PID.TID 0000.0001)     ;
(PID.TID 0000.0001) // =======================================================
(PID.TID 0000.0001) // End of Model config. summary
(PID.TID 0000.0001) // =======================================================
(PID.TID 0000.0001) 
(PID.TID 0000.0001) == Packages configuration : Check & print summary ==
(PID.TID 0000.0001) 
(PID.TID 0000.0001) GMREDI_CHECK: #define GMREDI
(PID.TID 0000.0001) GM_AdvForm =     /* if FALSE => use SkewFlux Form */
(PID.TID 0000.0001)                   F
(PID.TID 0000.0001)     ;
(PID.TID 0000.0001) GM_InMomAsStress = /* if TRUE => apply as Eddy Stress */
(PID.TID 0000.0001)                   F
(PID.TID 0000.0001)     ;
(PID.TID 0000.0001) GM_AdvSeparate = /* Calc Bolus & Euler Adv. separately */
(PID.TID 0000.0001)                   F
(PID.TID 0000.0001)     ;
(PID.TID 0000.0001) GM_ExtraDiag =   /* Tensor Extra Diag (line 1&2) non 0 */
(PID.TID 0000.0001)                   F
(PID.TID 0000.0001)     ;
(PID.TID 0000.0001) GM_isopycK =    /* Background Isopyc. Diffusivity [m^2/s] */
(PID.TID 0000.0001)                 8.000000000000000E+02
(PID.TID 0000.0001)     ;
(PID.TID 0000.0001) GM_advec*K =    /* Backg. GM-Advec(=Bolus) Diffusivity [m^2/s] */
(PID.TID 0000.0001)                 0.000000000000000E+00
(PID.TID 0000.0001)     ;
(PID.TID 0000.0001) GM_skewflx*K =  /* Background GM_SkewFlx Diffusivity [m^2/s] */
(PID.TID 0000.0001)                 8.000000000000000E+02
(PID.TID 0000.0001)     ;
(PID.TID 0000.0001) GM_isoFac_calcK = /* Fraction of dynamic K added to Redi tensor */
(PID.TID 0000.0001)                 1.000000000000000E+00
(PID.TID 0000.0001)     ;
(PID.TID 0000.0001) GM_Kmin_horiz = /* Minimum Horizontal Diffusivity [m^2/s] */
(PID.TID 0000.0001)                 5.000000000000000E+01
(PID.TID 0000.0001)     ;
(PID.TID 0000.0001) GM_Visbeck_alpha = /* Visbeck alpha coeff. [-] */
(PID.TID 0000.0001)                 0.000000000000000E+00
(PID.TID 0000.0001)     ;
(PID.TID 0000.0001) GM_Small_Number =  /* epsilon used in slope calc */
(PID.TID 0000.0001)                 9.999999999999999E-21
(PID.TID 0000.0001)     ;
(PID.TID 0000.0001) GM_slopeSqCutoff = /* Slope^2 cut-off value */
(PID.TID 0000.0001)                 1.000000000000000E+48
(PID.TID 0000.0001)     ;
(PID.TID 0000.0001) GM_taper_scheme =  /* Type of Tapering/Clipping scheme */
(PID.TID 0000.0001)               'gkw91                                   '
(PID.TID 0000.0001)     ;
(PID.TID 0000.0001) GM_maxSlope =  /* Maximum Slope (Tapering/Clipping) */
(PID.TID 0000.0001)                 1.000000000000000E-02
(PID.TID 0000.0001)     ;
(PID.TID 0000.0001) GM_facTrL2dz = /* Minimum Trans.Layer Thick. (factor of dz) */
(PID.TID 0000.0001)                 1.000000000000000E+00
(PID.TID 0000.0001)     ;
(PID.TID 0000.0001) GM_facTrL2ML = /* Max.Trans.Layer Thick. (factor of MxL Depth)*/
(PID.TID 0000.0001)                 5.000000000000000E+00
(PID.TID 0000.0001)     ;
(PID.TID 0000.0001) GM_maxTransLay = /* Maximum Transition Layer Thickness [m] */
(PID.TID 0000.0001)                 5.000000000000000E+02
(PID.TID 0000.0001)     ;
(PID.TID 0000.0001) GM_UseBVP = /* if TRUE => use bvp a la Ferrari et al. (2010) */
(PID.TID 0000.0001)                   F
(PID.TID 0000.0001)     ;
(PID.TID 0000.0001) GM_BVP_ModeNumber = /* Vertical mode number for BVP wave speed */
(PID.TID 0000.0001)                       1
(PID.TID 0000.0001)     ;
(PID.TID 0000.0001) GM_BVP_cMin = /* Minimum wave speed for BVP [m/s] */
(PID.TID 0000.0001)                 1.000000000000000E-01
(PID.TID 0000.0001)     ;
(PID.TID 0000.0001) GM_useSubMeso = /* if TRUE => use Sub-Meso param. (B.Fox-Kemper) */
(PID.TID 0000.0001)                   F
(PID.TID 0000.0001)     ;
(PID.TID 0000.0001) subMeso_Ceff = /* efficiency coeff. of Mixed-Layer Eddies [-] */
(PID.TID 0000.0001)                 7.000000000000001E-02
(PID.TID 0000.0001)     ;
(PID.TID 0000.0001) subMeso_invTau = /* inverse of Sub-Meso mixing time-scale [/s] */
(PID.TID 0000.0001)                 2.000000000000000E-06
(PID.TID 0000.0001)     ;
(PID.TID 0000.0001) subMeso_LfMin = /* minimum length-scale "Lf" [m] */
(PID.TID 0000.0001)                 1.000000000000000E+03
(PID.TID 0000.0001)     ;
(PID.TID 0000.0001) subMeso_Lmax = /* maximum grid-scale length [m] */
(PID.TID 0000.0001)                 1.100000000000000E+05
(PID.TID 0000.0001)     ;
(PID.TID 0000.0001) GM_useLeithQG = /* if TRUE => add QG Leith viscosity to GMRedi tensor */
(PID.TID 0000.0001)                   F
(PID.TID 0000.0001)     ;
(PID.TID 0000.0001) GM_useGEOM = /* using GEOMETRIC */
(PID.TID 0000.0001)                   F
(PID.TID 0000.0001)     ;
(PID.TID 0000.0001) EXF_CHECK: #define ALLOW_EXF
(PID.TID 0000.0001) SEAICE_CHECK: #define ALLOW_SEAICE
(PID.TID 0000.0001) THSICE_CHECK: #define THSICE
(PID.TID 0000.0001) GAD_CHECK: #define ALLOW_GENERIC_ADVDIFF
(PID.TID 0000.0001) // =======================================================
(PID.TID 0000.0001) // Check Model config. (CONFIG_CHECK):
(PID.TID 0000.0001) // CONFIG_CHECK : Normal End
(PID.TID 0000.0001) // =======================================================
(PID.TID 0000.0001) 
(PID.TID 0000.0001)  MDS_READ_META: opening file: pickup.0000072000.meta
(PID.TID 0000.0001)  nRecords = 123 ; filePrec =  64 ; fileIter =     72000
(PID.TID 0000.0001)     nDims =   2 , dims:
(PID.TID 0000.0001)    1: 192   1 192
(PID.TID 0000.0001)    2:  32   1  32
(PID.TID 0000.0001)     nFlds =  11 , nFl3D =   8 , fields:
(PID.TID 0000.0001)  >Uvel    < >GuNm1   < >Vvel    < >GvNm1   < >Theta   < >GtNm1   < >Salt    < >GsNm1   < >EtaN    < >dEtaHdt < >EtaH    <
(PID.TID 0000.0001) missingVal=  1.00000000000000E+00 ; nTimRec =   0 , timeList:
(PID.TID 0000.0001) READ_MFLDS_3D_RL: read field: "Uvel    ", #   1 in fldList, rec=   1
(PID.TID 0000.0001)  MDS_READ_FIELD: opening global file: pickup.0000072000
(PID.TID 0000.0001) READ_MFLDS_3D_RL: read field: "Vvel    ", #   3 in fldList, rec=   3
(PID.TID 0000.0001)  MDS_READ_FIELD: opening global file: pickup.0000072000
(PID.TID 0000.0001) READ_MFLDS_3D_RL: read field: "Theta   ", #   5 in fldList, rec=   5
(PID.TID 0000.0001)  MDS_READ_FIELD: opening global file: pickup.0000072000
(PID.TID 0000.0001) READ_MFLDS_3D_RL: read field: "Salt    ", #   7 in fldList, rec=   7
(PID.TID 0000.0001)  MDS_READ_FIELD: opening global file: pickup.0000072000
(PID.TID 0000.0001) READ_MFLDS_3D_RL: read field: "GuNm1   ", #   2 in fldList, rec=   2
(PID.TID 0000.0001)  MDS_READ_FIELD: opening global file: pickup.0000072000
(PID.TID 0000.0001) READ_MFLDS_3D_RL: read field: "GvNm1   ", #   4 in fldList, rec=   4
(PID.TID 0000.0001)  MDS_READ_FIELD: opening global file: pickup.0000072000
(PID.TID 0000.0001) READ_MFLDS_3D_RL: read field: "GtNm1   ", #   6 in fldList, rec=   6
(PID.TID 0000.0001)  MDS_READ_FIELD: opening global file: pickup.0000072000
(PID.TID 0000.0001) READ_MFLDS_3D_RL: read field: "GsNm1   ", #   8 in fldList, rec=   8
(PID.TID 0000.0001)  MDS_READ_FIELD: opening global file: pickup.0000072000
(PID.TID 0000.0001) READ_MFLDS_3D_RL: read field: "EtaN    ", #   9 in fldList, rec= 121
(PID.TID 0000.0001)  MDS_READ_FIELD: opening global file: pickup.0000072000
(PID.TID 0000.0001) READ_MFLDS_3D_RL: read field: "dEtaHdt ", #  10 in fldList, rec= 122
(PID.TID 0000.0001)  MDS_READ_FIELD: opening global file: pickup.0000072000
(PID.TID 0000.0001) READ_MFLDS_3D_RL: read field: "EtaH    ", #  11 in fldList, rec= 123
(PID.TID 0000.0001)  MDS_READ_FIELD: opening global file: pickup.0000072000
(PID.TID 0000.0001) READ_MFLDS_CHECK: - normal end ; reset MFLDS file-name: pickup.0000072000
(PID.TID 0000.0001)  write diagnostics summary to file ioUnit:      6
Iter.Nb:     72000 ; Time(s):  6.2208000000000E+09
------------------------------------------------------------------------
2D/3D diagnostics: Number of lists:     1
------------------------------------------------------------------------
listId=    1 ; file name: surfDiag
 nFlds, nActive,       freq     &     phase        , nLev               
   12  |   12  |1555200000.000000         0.000000 |   1
 levels:   1
 diag# | name   |   ipt  |  iMate | kLev|   count |   mate.C|           
    23 |ETAN    |      1 |      0 |   1 |       0 |
    24 |ETANSQ  |      2 |      0 |   1 |       0 |
    25 |DETADT2 |      3 |      0 |   1 |       0 |
    73 |PHIBOT  |      4 |      0 |   1 |       0 |
    74 |PHIBOTSQ|      5 |      0 |   1 |       0 |
    81 |oceTAUX |      6 |      7 |   1 |       0 |       0 |
    82 |oceTAUY |      7 |      6 |   1 |       0 |       0 |
    87 |oceQnet |      8 |      0 |   1 |       0 |
    86 |oceSflux|      9 |      0 |   1 |       0 |
    85 |oceFWflx|     10 |      0 |   1 |       0 |
    90 |TRELAX  |     11 |      0 |   1 |       0 |
    91 |SRELAX  |     12 |      0 |   1 |       0 |
------------------------------------------------------------------------
Global & Regional Statistics diagnostics: Number of lists:     2
------------------------------------------------------------------------
listId=   1 ; file name: dynStDiag
 nFlds, nActive,       freq     &     phase        |                    
    8  |    8  |    864000.000000         0.000000 |
 Regions:   0
 diag# | name   |   ipt  |  iMate |    Volume   |   mate-Vol. |         
    23 |ETAN    |      1 |      0 | 0.00000E+00 |
    30 |UVEL    |      2 |      0 | 0.00000E+00 |
    31 |VVEL    |     17 |      0 | 0.00000E+00 |
    32 |WVEL    |     32 |      0 | 0.00000E+00 |
    26 |THETA   |     47 |      0 | 0.00000E+00 |
    27 |SALT    |     62 |      0 | 0.00000E+00 |
    80 |CONVADJ |     77 |      0 | 0.00000E+00 |
    25 |DETADT2 |     92 |      0 | 0.00000E+00 |
------------------------------------------------------------------------
listId=   2 ; file name: thSIceStDiag
 nFlds, nActive,       freq     &     phase        |                    
   16  |   16  |    864000.000000         0.000000 |
 Regions:   0  1  3
 diag# | name   |   ipt  |  iMate |    Volume   |   mate-Vol. |         
   324 |SI_Fract|     93 |      0 | 0.00000E+00 |
   325 |SI_Thick|     94 |     93 | 0.00000E+00 | 0.00000E+00 |
   326 |SI_SnowH|     95 |     93 | 0.00000E+00 | 0.00000E+00 |
   327 |SI_Tsrf |     96 |     93 | 0.00000E+00 | 0.00000E+00 |
   328 |SI_Tice1|     97 |     93 | 0.00000E+00 | 0.00000E+00 |
   329 |SI_Tice2|     98 |     93 | 0.00000E+00 | 0.00000E+00 |
   330 |SI_Qice1|     99 |     94 | 0.00000E+00 | 0.00000E+00 |
   331 |SI_Qice2|    100 |     94 | 0.00000E+00 | 0.00000E+00 |
   334 |SIsnwPrc|    101 |     93 | 0.00000E+00 | 0.00000E+00 |
   333 |SIalbedo|    102 |     93 | 0.00000E+00 | 0.00000E+00 |
   332 |SIsnwAge|    103 |      0 | 0.00000E+00 |
   337 |SIflx2oc|    104 |      0 | 0.00000E+00 |
   338 |SIfrw2oc|    105 |      0 | 0.00000E+00 |
   339 |SIsaltFx|    106 |      0 | 0.00000E+00 |
   335 |SIflxAtm|    107 |      0 | 0.00000E+00 |
   336 |SIfrwAtm|    108 |      0 | 0.00000E+00 |
------------------------------------------------------------------------
(PID.TID 0000.0001)  MDS_READ_META: opening file: pickup_seaice.0000072000.meta
(PID.TID 0000.0001)  nRecords =  15 ; filePrec =  64 ; fileIter =     72000
(PID.TID 0000.0001)     nDims =   2 , dims:
(PID.TID 0000.0001)    1: 192   1 192
(PID.TID 0000.0001)    2:  32   1  32
(PID.TID 0000.0001)     nFlds =  15 , nFl3D =   0 , fields:
(PID.TID 0000.0001)  >siTICE  < >siYNEG  < >siHSNOW < >siUICE  < >siUICE_2< >siUICE_3< >siVICE  < >siVICE_2< >siVICE_3< >siHEFF  < >siHEFF_2< >siHEFF_3< >siAREA  < >siAREA_2< >siAREA_3<
(PID.TID 0000.0001) missingVal=  1.00000000000000E+00 ; nTimRec =   0 , timeList:
(PID.TID 0000.0001) READ_MFLDS_3D_RL: read field: "siUICE  ", #   4 in fldList, rec=   4
(PID.TID 0000.0001)  MDS_READ_FIELD: opening global file: pickup_seaice.0000072000
(PID.TID 0000.0001) READ_MFLDS_3D_RL: read field: "siVICE  ", #   7 in fldList, rec=   7
(PID.TID 0000.0001)  MDS_READ_FIELD: opening global file: pickup_seaice.0000072000
(PID.TID 0000.0001) READ_MFLDS_CHECK: - normal end ; reset MFLDS file-name: pickup_seaice.0000072000
(PID.TID 0000.0001)  MDS_READ_FIELD: opening global file: pickup_ic.0000072000
(PID.TID 0000.0001)  MDS_READ_FIELD: opening global file: pickup_ic.0000072000
(PID.TID 0000.0001)  MDS_READ_FIELD: opening global file: pickup_ic.0000072000
(PID.TID 0000.0001)  MDS_READ_FIELD: opening global file: pickup_ic.0000072000
(PID.TID 0000.0001)  MDS_READ_FIELD: opening global file: pickup_ic.0000072000
(PID.TID 0000.0001)  MDS_READ_FIELD: opening global file: pickup_ic.0000072000
(PID.TID 0000.0001)  MDS_READ_FIELD: opening global file: pickup_ic.0000072000
(PID.TID 0000.0001)  MDS_READ_FIELD: opening global file: pickup_ic.0000072000
(PID.TID 0000.0001)  MDS_READ_FIELD: opening global file: pickup_ic.0000072000
(PID.TID 0000.0001) // =======================================================
(PID.TID 0000.0001) // Model current state
(PID.TID 0000.0001) // =======================================================
(PID.TID 0000.0001) 
(PID.TID 0000.0001) // =======================================================
(PID.TID 0000.0001) // Begin MONITOR dynamic field statistics
(PID.TID 0000.0001) // =======================================================
(PID.TID 0000.0001) %MON time_tsnumber                =                 72000
(PID.TID 0000.0001) %MON time_secondsf                =   6.2208000000000E+09
(PID.TID 0000.0001) %MON dynstat_eta_max              =  -2.2041664480788E+00
(PID.TID 0000.0001) %MON dynstat_eta_min              =  -8.3368186317242E+00
(PID.TID 0000.0001) %MON dynstat_eta_mean             =  -3.2999269019401E+00
(PID.TID 0000.0001) %MON dynstat_eta_sd               =   8.8289254437965E-01
(PID.TID 0000.0001) %MON dynstat_eta_del2             =   2.4546251501318E-03
(PID.TID 0000.0001) %MON dynstat_uvel_max             =   2.1289733821794E-01
(PID.TID 0000.0001) %MON dynstat_uvel_min             =  -2.9128750750933E-01
(PID.TID 0000.0001) %MON dynstat_uvel_mean            =  -5.2860218230237E-04
(PID.TID 0000.0001) %MON dynstat_uvel_sd              =   1.4790330813737E-02
(PID.TID 0000.0001) %MON dynstat_uvel_del2            =   6.8248145743958E-05
(PID.TID 0000.0001) %MON dynstat_vvel_max             =   2.2199184704564E-01
(PID.TID 0000.0001) %MON dynstat_vvel_min             =  -2.0062292421344E-01
(PID.TID 0000.0001) %MON dynstat_vvel_mean            =  -4.0113294365963E-04
(PID.TID 0000.0001) %MON dynstat_vvel_sd              =   1.5242443278796E-02
(PID.TID 0000.0001) %MON dynstat_vvel_del2            =   6.3300374611828E-05
(PID.TID 0000.0001) %MON dynstat_wvel_max             =   1.0124735215525E-04
(PID.TID 0000.0001) %MON dynstat_wvel_min             =  -2.1390867107236E-04
(PID.TID 0000.0001) %MON dynstat_wvel_mean            =  -2.2881662065410E-09
(PID.TID 0000.0001) %MON dynstat_wvel_sd              =   5.3718089817332E-06
(PID.TID 0000.0001) %MON dynstat_wvel_del2            =   4.9515844278522E-08
(PID.TID 0000.0001) %MON dynstat_theta_max            =   3.1190145162975E+01
(PID.TID 0000.0001) %MON dynstat_theta_min            =  -6.6438195213420E+00
(PID.TID 0000.0001) %MON dynstat_theta_mean           =   3.0527437088103E+00
(PID.TID 0000.0001) %MON dynstat_theta_sd             =   4.9948592183898E+00
(PID.TID 0000.0001) %MON dynstat_theta_del2           =   2.9607189733177E-03
(PID.TID 0000.0001) %MON dynstat_salt_max             =   5.9479941764493E+01
(PID.TID 0000.0001) %MON dynstat_salt_min             =   1.7775579847672E+01
(PID.TID 0000.0001) %MON dynstat_salt_mean            =   3.4752520111249E+01
(PID.TID 0000.0001) %MON dynstat_salt_sd              =   4.8912632150922E-01
(PID.TID 0000.0001) %MON dynstat_salt_del2            =   1.3623675537366E-03
(PID.TID 0000.0001) %MON forcing_qnet_max             =   0.0000000000000E+00
(PID.TID 0000.0001) %MON forcing_qnet_min             =   0.0000000000000E+00
(PID.TID 0000.0001) %MON forcing_qnet_mean            =   0.0000000000000E+00
(PID.TID 0000.0001) %MON forcing_qnet_sd              =   0.0000000000000E+00
(PID.TID 0000.0001) %MON forcing_qnet_del2            =   0.0000000000000E+00
(PID.TID 0000.0001) %MON forcing_qsw_max              =   0.0000000000000E+00
(PID.TID 0000.0001) %MON forcing_qsw_min              =   0.0000000000000E+00
(PID.TID 0000.0001) %MON forcing_qsw_mean             =   0.0000000000000E+00
(PID.TID 0000.0001) %MON forcing_qsw_sd               =   0.0000000000000E+00
(PID.TID 0000.0001) %MON forcing_qsw_del2             =   0.0000000000000E+00
(PID.TID 0000.0001) %MON forcing_empmr_max            =   0.0000000000000E+00
(PID.TID 0000.0001) %MON forcing_empmr_min            =   0.0000000000000E+00
(PID.TID 0000.0001) %MON forcing_empmr_mean           =   0.0000000000000E+00
(PID.TID 0000.0001) %MON forcing_empmr_sd             =   0.0000000000000E+00
(PID.TID 0000.0001) %MON forcing_empmr_del2           =   0.0000000000000E+00
(PID.TID 0000.0001) %MON forcing_fu_max               =   0.0000000000000E+00
(PID.TID 0000.0001) %MON forcing_fu_min               =   0.0000000000000E+00
(PID.TID 0000.0001) %MON forcing_fu_mean              =   0.0000000000000E+00
(PID.TID 0000.0001) %MON forcing_fu_sd                =   0.0000000000000E+00
(PID.TID 0000.0001) %MON forcing_fu_del2              =   0.0000000000000E+00
(PID.TID 0000.0001) %MON forcing_fv_max               =   0.0000000000000E+00
(PID.TID 0000.0001) %MON forcing_fv_min               =   0.0000000000000E+00
(PID.TID 0000.0001) %MON forcing_fv_mean              =   0.0000000000000E+00
(PID.TID 0000.0001) %MON forcing_fv_sd                =   0.0000000000000E+00
(PID.TID 0000.0001) %MON forcing_fv_del2              =   0.0000000000000E+00
(PID.TID 0000.0001) %MON trAdv_CFL_u_max              =   0.0000000000000E+00
(PID.TID 0000.0001) %MON trAdv_CFL_v_max              =   0.0000000000000E+00
(PID.TID 0000.0001) %MON trAdv_CFL_w_max              =   0.0000000000000E+00
(PID.TID 0000.0001) %MON advcfl_uvel_max              =   8.3923803824552E-02
(PID.TID 0000.0001) %MON advcfl_vvel_max              =   8.3304632405312E-02
(PID.TID 0000.0001) %MON advcfl_wvel_max              =   6.9742298794914E-02
(PID.TID 0000.0001) %MON advcfl_W_hf_max              =   7.7160082019468E-02
(PID.TID 0000.0001) %MON pe_b_mean                    =   1.5559232407148E-02
(PID.TID 0000.0001) %MON ke_max                       =   4.1915507392132E-02
(PID.TID 0000.0001) %MON ke_mean                      =   2.0848176851410E-04
(PID.TID 0000.0001) %MON ke_vol                       =   1.3386015893205E+18
(PID.TID 0000.0001) %MON vort_r_min                   =  -1.2262915518822E-06
(PID.TID 0000.0001) %MON vort_r_max                   =   1.3011966935743E-06
(PID.TID 0000.0001) %MON vort_a_mean                  =  -2.0549865324846E-05
(PID.TID 0000.0001) %MON vort_a_sd                    =   7.5259723723248E-05
(PID.TID 0000.0001) %MON vort_p_mean                  =  -2.4806340990730E-05
(PID.TID 0000.0001) %MON vort_p_sd                    =   1.2827605093522E-04
(PID.TID 0000.0001) %MON surfExpan_theta_mean         =   4.0484606368574E-08
(PID.TID 0000.0001) %MON surfExpan_salt_mean          =   2.1717823146781E-08
(PID.TID 0000.0001) // =======================================================
(PID.TID 0000.0001) // End MONITOR dynamic field statistics
(PID.TID 0000.0001) // =======================================================
(PID.TID 0000.0001) // =======================================================
(PID.TID 0000.0001) // Begin MONITOR SEAICE statistics
(PID.TID 0000.0001) // =======================================================
(PID.TID 0000.0001) %MON seaice_tsnumber              =                 72000
(PID.TID 0000.0001) %MON seaice_time_sec              =   6.2208000000000E+09
(PID.TID 0000.0001) %MON seaice_uice_max              =   4.0000000000000E-01
(PID.TID 0000.0001) %MON seaice_uice_min              =  -4.0000000000000E-01
(PID.TID 0000.0001) %MON seaice_uice_mean             =  -1.4584960473672E-02
(PID.TID 0000.0001) %MON seaice_uice_sd               =   1.4252324186947E-01
(PID.TID 0000.0001) %MON seaice_uice_del2             =   7.2720843677207E-04
(PID.TID 0000.0001) %MON seaice_vice_max              =   3.7441285697502E-01
(PID.TID 0000.0001) %MON seaice_vice_min              =  -4.0000000000000E-01
(PID.TID 0000.0001) %MON seaice_vice_mean             =  -3.7542841261047E-02
(PID.TID 0000.0001) %MON seaice_vice_sd               =   1.5635165386930E-01
(PID.TID 0000.0001) %MON seaice_vice_del2             =   7.0861834440520E-04
(PID.TID 0000.0001) // =======================================================
(PID.TID 0000.0001) // End MONITOR SEAICE statistics
(PID.TID 0000.0001) // =======================================================
(PID.TID 0000.0001) // =======================================================
(PID.TID 0000.0001) // Begin MONITOR Therm.SeaIce statistics
(PID.TID 0000.0001) // =======================================================
(PID.TID 0000.0001) %MON thSI_time_sec                =   6.2208000000000E+09
(PID.TID 0000.0001) %MON thSI_Ice_Area_G              =   1.7206271940734E+13
(PID.TID 0000.0001) %MON thSI_Ice_Area_S              =   5.1016066833079E+12
(PID.TID 0000.0001) %MON thSI_Ice_Area_N              =   1.2104665257426E+13
(PID.TID 0000.0001) %MON thSI_IceH_ave_G              =   1.7800858094400E+00
(PID.TID 0000.0001) %MON thSI_IceH_ave_S              =   1.1728590647515E+00
(PID.TID 0000.0001) %MON thSI_IceH_ave_N              =   2.0360063122466E+00
(PID.TID 0000.0001) %MON thSI_IceH_max_S              =   2.1255881149091E+00
(PID.TID 0000.0001) %MON thSI_IceH_max_N              =   5.2011996894964E+00
(PID.TID 0000.0001) %MON thSI_SnwH_ave_G              =   2.1269949323472E-01
(PID.TID 0000.0001) %MON thSI_SnwH_ave_S              =   1.9888283136179E-01
(PID.TID 0000.0001) %MON thSI_SnwH_ave_N              =   2.1852263439996E-01
(PID.TID 0000.0001) %MON thSI_SnwH_max_S              =   5.9283040406778E-01
(PID.TID 0000.0001) %MON thSI_SnwH_max_N              =   4.1790381367362E-01
(PID.TID 0000.0001) %MON thSI_Tsrf_ave_G              =  -1.8445854447864E+01
(PID.TID 0000.0001) %MON thSI_Tsrf_ave_S              =  -3.8760911421441E-02
(PID.TID 0000.0001) %MON thSI_Tsrf_ave_N              =  -2.6203669258000E+01
(PID.TID 0000.0001) %MON thSI_Tsrf_min_S              =  -5.2845038213976E+00
(PID.TID 0000.0001) %MON thSI_Tsrf_min_N              =  -3.2727398211857E+01
(PID.TID 0000.0001) %MON thSI_Tsrf_max_S              =   0.0000000000000E+00
(PID.TID 0000.0001) %MON thSI_Tsrf_max_N              =  -4.8044712786252E+00
(PID.TID 0000.0001) %MON thSI_Tic1_ave_G              =  -1.0584109855350E+01
(PID.TID 0000.0001) %MON thSI_Tic1_ave_S              =  -1.4295367171650E+00
(PID.TID 0000.0001) %MON thSI_Tic1_ave_N              =  -1.2806698014557E+01
(PID.TID 0000.0001) %MON thSI_Tic1_min_S              =  -2.5949045859691E+00
(PID.TID 0000.0001) %MON thSI_Tic1_min_N              =  -1.8478200386422E+01
(PID.TID 0000.0001) %MON thSI_Tic1_max_S              =  -1.4464428426653E-01
(PID.TID 0000.0001) %MON thSI_Tic1_max_N              =  -3.0301966761158E+00
(PID.TID 0000.0001) %MON thSI_Tic2_ave_G              =  -4.5788968374079E+00
(PID.TID 0000.0001) %MON thSI_Tic2_ave_S              =  -1.6694991036604E+00
(PID.TID 0000.0001) %MON thSI_Tic2_ave_N              =  -5.2852534152454E+00
(PID.TID 0000.0001) %MON thSI_Tic2_min_S              =  -2.1090282405800E+00
(PID.TID 0000.0001) %MON thSI_Tic2_min_N              =  -7.7121049316683E+00
(PID.TID 0000.0001) %MON thSI_Tic2_max_S              =  -9.8260428530282E-01
(PID.TID 0000.0001) %MON thSI_Tic2_max_N              =  -2.2118503675029E+00
(PID.TID 0000.0001) %MON thSI_TotEnerg_G              =  -9.9886623916783E+21
(PID.TID 0000.0001) // =======================================================
(PID.TID 0000.0001) // End MONITOR Therm.SeaIce statistics
(PID.TID 0000.0001) // =======================================================
(PID.TID 0000.0001)  MDS_READ_FIELD: opening global file: lev_surfT_cs_12m.bin
(PID.TID 0000.0001)  MDS_READ_FIELD: opening global file: lev_surfT_cs_12m.bin
(PID.TID 0000.0001)  MDS_READ_FIELD: opening global file: lev_surfS_cs_12m.bin
(PID.TID 0000.0001)  MDS_READ_FIELD: opening global file: lev_surfS_cs_12m.bin
(PID.TID 0000.0001)  MDS_READ_FIELD: opening global file: trenberth_taux.bin
(PID.TID 0000.0001)  MDS_READ_FIELD: opening global file: trenberth_taux.bin
(PID.TID 0000.0001)  MDS_READ_FIELD: opening global file: trenberth_tauy.bin
(PID.TID 0000.0001)  MDS_READ_FIELD: opening global file: trenberth_tauy.bin
(PID.TID 0000.0001)  MDS_READ_FIELD: opening global file: core_wndSpd_cs32.bin
(PID.TID 0000.0001)  MDS_READ_FIELD: opening global file: core_wndSpd_cs32.bin
(PID.TID 0000.0001)  MDS_READ_FIELD: opening global file: core_t_Air_cs32.bin
(PID.TID 0000.0001)  MDS_READ_FIELD: opening global file: core_t_Air_cs32.bin
(PID.TID 0000.0001)  MDS_READ_FIELD: opening global file: core_q_air_cs32.bin
(PID.TID 0000.0001)  MDS_READ_FIELD: opening global file: core_q_air_cs32.bin
(PID.TID 0000.0001)  MDS_READ_FIELD: opening global file: core_prec_1_cs32.bin
(PID.TID 0000.0001)  MDS_READ_FIELD: opening global file: core_prec_1_cs32.bin
(PID.TID 0000.0001)  MDS_READ_FIELD: opening global file: core_snwP_1_cs32.bin
(PID.TID 0000.0001)  MDS_READ_FIELD: opening global file: core_snwP_1_cs32.bin
(PID.TID 0000.0001)  MDS_READ_FIELD: opening global file: core_dwnSw_cs32.bin
(PID.TID 0000.0001)  MDS_READ_FIELD: opening global file: core_dwnSw_cs32.bin
(PID.TID 0000.0001)  MDS_READ_FIELD: opening global file: core_dwnLw_cs32.bin
(PID.TID 0000.0001)  MDS_READ_FIELD: opening global file: core_dwnLw_cs32.bin
(PID.TID 0000.0001)  MDS_READ_FIELD: opening global file: core_rnof_1_cs32.bin
(PID.TID 0000.0001)  MDS_READ_FIELD: opening global file: core_rnof_1_cs32.bin
 EXTERNAL_FIELDS_LOAD,     72000 : iP,iLd,i0,i1=   12    0   12    1 ; Wght=  0.5000000000  0.5000000000
 EXTERNAL_FIELDS_LOAD, it=     72000 : Reading new data, i0,i1=   12    1 (prev=   12    0 )
 SEAICE_LSR: Residual Initial ipass,Uice,Vice=         1  1.34675028E-01  1.54273279E-01
 SEAICE_LSR (ipass=        1) iters,dU,Resid=       54  2.22044605E-15  2.63685090E-16
 SEAICE_LSR (ipass=        1) iters,dV,Resid=       54  4.99045250E-13  7.93518972E-14
 SEAICE_LSR: Residual Initial ipass,Uice,Vice=         2  6.72422173E-02  7.71142407E-02
 SEAICE_LSR (ipass=        2) iters,dU,Resid=       62  9.24260668E-15  1.24817834E-15
 SEAICE_LSR (ipass=        2) iters,dV,Resid=       62  5.24497112E-13  9.49010614E-14
(PID.TID 0000.0001) SOLVE_FOR_PRESSURE: putPmEinXvector =    F
(PID.TID 0000.0001) SOLVE_FOR_PRESSURE: zeroPsNH=    F , zeroMeanPnh=    F
(PID.TID 0000.0001) SOLVE_FOR_PRESSURE: oldFreeSurfTerm =    F
 cg2d: Sum(rhs),rhsMax =   2.21842196051176E+03  2.11069044740565E+01
(PID.TID 0000.0001)      cg2d_init_res =   3.55118031435976E+00
(PID.TID 0000.0001)      cg2d_iters(min,last) =      -1      71
(PID.TID 0000.0001)      cg2d_last_res =   5.03663907619168E-07
(PID.TID 0000.0001) // =======================================================
(PID.TID 0000.0001) // Begin MONITOR dynamic field statistics
(PID.TID 0000.0001) // =======================================================
(PID.TID 0000.0001) %MON time_tsnumber                =                 72001
(PID.TID 0000.0001) %MON time_secondsf                =   6.2208864000000E+09
(PID.TID 0000.0001) %MON dynstat_eta_max              =  -2.2055251911909E+00
(PID.TID 0000.0001) %MON dynstat_eta_min              =  -8.3420719713170E+00
(PID.TID 0000.0001) %MON dynstat_eta_mean             =  -3.2995544426808E+00
(PID.TID 0000.0001) %MON dynstat_eta_sd               =   8.8139491138551E-01
(PID.TID 0000.0001) %MON dynstat_eta_del2             =   2.4116194900059E-03
(PID.TID 0000.0001) %MON dynstat_uvel_max             =   2.1326441752745E-01
(PID.TID 0000.0001) %MON dynstat_uvel_min             =  -2.9097531042519E-01
(PID.TID 0000.0001) %MON dynstat_uvel_mean            =  -5.2807176633116E-04
(PID.TID 0000.0001) %MON dynstat_uvel_sd              =   1.4786870730182E-02
(PID.TID 0000.0001) %MON dynstat_uvel_del2            =   6.8195768939886E-05
(PID.TID 0000.0001) %MON dynstat_vvel_max             =   2.2153987652058E-01
(PID.TID 0000.0001) %MON dynstat_vvel_min             =  -2.0069995188862E-01
(PID.TID 0000.0001) %MON dynstat_vvel_mean            =  -4.0065455638341E-04
(PID.TID 0000.0001) %MON dynstat_vvel_sd              =   1.5243532101780E-02
(PID.TID 0000.0001) %MON dynstat_vvel_del2            =   6.3232907119447E-05
(PID.TID 0000.0001) %MON dynstat_wvel_max             =   1.0161554548449E-04
(PID.TID 0000.0001) %MON dynstat_wvel_min             =  -2.1402120534107E-04
(PID.TID 0000.0001) %MON dynstat_wvel_mean            =  -3.5938765324579E-09
(PID.TID 0000.0001) %MON dynstat_wvel_sd              =   5.3689837664703E-06
(PID.TID 0000.0001) %MON dynstat_wvel_del2            =   4.9483278028445E-08
(PID.TID 0000.0001) %MON dynstat_theta_max            =   3.1201881307938E+01
(PID.TID 0000.0001) %MON dynstat_theta_min            =  -6.6457713522052E+00
(PID.TID 0000.0001) %MON dynstat_theta_mean           =   3.0528141550677E+00
(PID.TID 0000.0001) %MON dynstat_theta_sd             =   4.9949131292826E+00
(PID.TID 0000.0001) %MON dynstat_theta_del2           =   2.9641376472093E-03
(PID.TID 0000.0001) %MON dynstat_salt_max             =   5.9498509543968E+01
(PID.TID 0000.0001) %MON dynstat_salt_min             =   1.7775652958476E+01
(PID.TID 0000.0001) %MON dynstat_salt_mean            =   3.4752516943601E+01
(PID.TID 0000.0001) %MON dynstat_salt_sd              =   4.8912678142321E-01
(PID.TID 0000.0001) %MON dynstat_salt_del2            =   1.3626722571713E-03
(PID.TID 0000.0001) %MON forcing_qnet_max             =   6.5323623045347E+02
(PID.TID 0000.0001) %MON forcing_qnet_min             =  -2.5382123855603E+02
(PID.TID 0000.0001) %MON forcing_qnet_mean            =  -1.2387737023766E+01
(PID.TID 0000.0001) %MON forcing_qnet_sd              =   1.2431770589594E+02
(PID.TID 0000.0001) %MON forcing_qnet_del2            =   1.0643578954547E+00
(PID.TID 0000.0001) %MON forcing_qsw_max              =  -0.0000000000000E+00
(PID.TID 0000.0001) %MON forcing_qsw_min              =  -3.0191527312954E+02
(PID.TID 0000.0001) %MON forcing_qsw_mean             =  -1.8251285745053E+02
(PID.TID 0000.0001) %MON forcing_qsw_sd               =   7.9876440302799E+01
(PID.TID 0000.0001) %MON forcing_qsw_del2             =   3.2607942429601E-01
(PID.TID 0000.0001) %MON forcing_empmr_max            =   6.7568231637012E-04
(PID.TID 0000.0001) %MON forcing_empmr_min            =  -8.1908868150146E-04
(PID.TID 0000.0001) %MON forcing_empmr_mean           =  -4.4617515438915E-06
(PID.TID 0000.0001) %MON forcing_empmr_sd             =   7.7840064386667E-05
(PID.TID 0000.0001) %MON forcing_empmr_del2           =   1.6322634619728E-06
(PID.TID 0000.0001) %MON forcing_fu_max               =   2.4760613571392E-01
(PID.TID 0000.0001) %MON forcing_fu_min               =  -2.0293190974520E-01
(PID.TID 0000.0001) %MON forcing_fu_mean              =  -4.3535028093619E-03
(PID.TID 0000.0001) %MON forcing_fu_sd                =   6.3834684763480E-02
(PID.TID 0000.0001) %MON forcing_fu_del2              =   2.1400348779238E-04
(PID.TID 0000.0001) %MON forcing_fv_max               =   2.5281098043587E-01
(PID.TID 0000.0001) %MON forcing_fv_min               =  -3.2691992401999E-01
(PID.TID 0000.0001) %MON forcing_fv_mean              =  -1.3917429579853E-02
(PID.TID 0000.0001) %MON forcing_fv_sd                =   7.4826834345010E-02
(PID.TID 0000.0001) %MON forcing_fv_del2              =   2.3510515514825E-04
(PID.TID 0000.0001) %MON trAdv_CFL_u_max              =   8.2063343333462E-02
(PID.TID 0000.0001) %MON trAdv_CFL_v_max              =   8.8689214635706E-02
(PID.TID 0000.0001) %MON trAdv_CFL_w_max              =   7.7200674316731E-02
(PID.TID 0000.0001) %MON advcfl_uvel_max              =   8.4056273668804E-02
(PID.TID 0000.0001) %MON advcfl_vvel_max              =   8.3467981244409E-02
(PID.TID 0000.0001) %MON advcfl_wvel_max              =   6.9778989213087E-02
(PID.TID 0000.0001) %MON advcfl_W_hf_max              =   7.7200674316731E-02
(PID.TID 0000.0001) %MON pe_b_mean                    =   1.4346629816800E-02
(PID.TID 0000.0001) %MON ke_max                       =   4.1803193983091E-02
(PID.TID 0000.0001) %MON ke_mean                      =   2.0844970873518E-04
(PID.TID 0000.0001) %MON ke_vol                       =   1.3386016457284E+18
(PID.TID 0000.0001) %MON vort_r_min                   =  -1.2305263399510E-06
(PID.TID 0000.0001) %MON vort_r_max                   =   1.2981523732389E-06
(PID.TID 0000.0001) %MON vort_a_mean                  =  -2.0549865324846E-05
(PID.TID 0000.0001) %MON vort_a_sd                    =   7.5259723579314E-05
(PID.TID 0000.0001) %MON vort_p_mean                  =  -2.4806339598239E-05
(PID.TID 0000.0001) %MON vort_p_sd                    =   1.2827603777621E-04
(PID.TID 0000.0001) %MON surfExpan_theta_mean         =   3.7963518499393E-08
(PID.TID 0000.0001) %MON surfExpan_salt_mean          =   2.4671872752515E-08
(PID.TID 0000.0001) // =======================================================
(PID.TID 0000.0001) // End MONITOR dynamic field statistics
(PID.TID 0000.0001) // =======================================================
(PID.TID 0000.0001) // =======================================================
(PID.TID 0000.0001) // Begin MONITOR SEAICE statistics
(PID.TID 0000.0001) // =======================================================
(PID.TID 0000.0001) %MON seaice_tsnumber              =                 72001
(PID.TID 0000.0001) %MON seaice_time_sec              =   6.2208864000000E+09
(PID.TID 0000.0001) %MON seaice_uice_max              =   2.4094897607758E-01
(PID.TID 0000.0001) %MON seaice_uice_min              =  -2.9684807673271E-01
(PID.TID 0000.0001) %MON seaice_uice_mean             =  -4.1693702445482E-04
(PID.TID 0000.0001) %MON seaice_uice_sd               =   2.8394015926715E-02
(PID.TID 0000.0001) %MON seaice_uice_del2             =   5.3623971821662E-04
(PID.TID 0000.0001) %MON seaice_vice_max              =   2.6395307029844E-01
(PID.TID 0000.0001) %MON seaice_vice_min              =  -2.4871889727548E-01
(PID.TID 0000.0001) %MON seaice_vice_mean             =   9.5596995334302E-04
(PID.TID 0000.0001) %MON seaice_vice_sd               =   2.3908881006491E-02
(PID.TID 0000.0001) %MON seaice_vice_del2             =   4.6267328195582E-04
(PID.TID 0000.0001) // =======================================================
(PID.TID 0000.0001) // End MONITOR SEAICE statistics
(PID.TID 0000.0001) // =======================================================
(PID.TID 0000.0001) // =======================================================
(PID.TID 0000.0001) // Begin MONITOR Therm.SeaIce statistics
(PID.TID 0000.0001) // =======================================================
(PID.TID 0000.0001) %MON thSI_time_sec                =   6.2208864000000E+09
(PID.TID 0000.0001) %MON thSI_Ice_Area_G              =   1.7149695766555E+13
(PID.TID 0000.0001) %MON thSI_Ice_Area_S              =   4.9129753754325E+12
(PID.TID 0000.0001) %MON thSI_Ice_Area_N              =   1.2236720391123E+13
(PID.TID 0000.0001) %MON thSI_IceH_ave_G              =   1.7772148369606E+00
(PID.TID 0000.0001) %MON thSI_IceH_ave_S              =   1.1589018500360E+00
(PID.TID 0000.0001) %MON thSI_IceH_ave_N              =   2.0254640722112E+00
(PID.TID 0000.0001) %MON thSI_IceH_max_S              =   2.1240872539275E+00
(PID.TID 0000.0001) %MON thSI_IceH_max_N              =   5.2020449077750E+00
(PID.TID 0000.0001) %MON thSI_SnwH_ave_G              =   2.1044836261105E-01
(PID.TID 0000.0001) %MON thSI_SnwH_ave_S              =   1.8995220021223E-01
(PID.TID 0000.0001) %MON thSI_SnwH_ave_N              =   2.1867745814789E-01
(PID.TID 0000.0001) %MON thSI_SnwH_max_S              =   5.8538116688509E-01
(PID.TID 0000.0001) %MON thSI_SnwH_max_N              =   4.1990601485463E-01
(PID.TID 0000.0001) %MON thSI_Tsrf_ave_G              =  -1.8579946129230E+01
(PID.TID 0000.0001) %MON thSI_Tsrf_ave_S              =  -2.0239926003941E-02
(PID.TID 0000.0001) %MON thSI_Tsrf_ave_N              =  -2.6031565242622E+01
(PID.TID 0000.0001) %MON thSI_Tsrf_min_S              =  -5.2847701519931E+00
(PID.TID 0000.0001) %MON thSI_Tsrf_min_N              =  -3.2730169957740E+01
(PID.TID 0000.0001) %MON thSI_Tsrf_max_S              =   2.8690230356111E+00
(PID.TID 0000.0001) %MON thSI_Tsrf_max_N              =   6.9349678876526E+00
(PID.TID 0000.0001) %MON thSI_Tic1_ave_G              =  -1.0671433894338E+01
(PID.TID 0000.0001) %MON thSI_Tic1_ave_S              =  -1.3896309071578E+00
(PID.TID 0000.0001) %MON thSI_Tic1_ave_N              =  -1.2803663695322E+01
(PID.TID 0000.0001) %MON thSI_Tic1_min_S              =  -2.5874611765829E+00
(PID.TID 0000.0001) %MON thSI_Tic1_min_N              =  -1.8466911534478E+01
(PID.TID 0000.0001) %MON thSI_Tic1_max_S              =   0.0000000000000E+00
(PID.TID 0000.0001) %MON thSI_Tic1_max_N              =   0.0000000000000E+00
(PID.TID 0000.0001) %MON thSI_Tic2_ave_G              =  -4.6098312906443E+00
(PID.TID 0000.0001) %MON thSI_Tic2_ave_S              =  -1.6554973625903E+00
(PID.TID 0000.0001) %MON thSI_Tic2_ave_N              =  -5.2885053426743E+00
(PID.TID 0000.0001) %MON thSI_Tic2_min_S              =  -2.0938379652885E+00
(PID.TID 0000.0001) %MON thSI_Tic2_min_N              =  -7.7415578478584E+00
(PID.TID 0000.0001) %MON thSI_Tic2_max_S              =   0.0000000000000E+00
(PID.TID 0000.0001) %MON thSI_Tic2_max_N              =   0.0000000000000E+00
(PID.TID 0000.0001) %MON thSI_TotEnerg_G              =  -9.9396558060614E+21
(PID.TID 0000.0001) // =======================================================
(PID.TID 0000.0001) // End MONITOR Therm.SeaIce statistics
(PID.TID 0000.0001) // =======================================================
 EXTERNAL_FIELDS_LOAD,     72001 : iP,iLd,i0,i1=   12    1   12    1 ; Wght=  0.4666666667  0.5333333333
 SEAICE_LSR: Residual Initial ipass,Uice,Vice=         1  2.67874121E-03  2.11810734E-03
 SEAICE_LSR (ipass=        1) iters,dU,Resid=       76  1.87905247E-14  3.41233098E-15
 SEAICE_LSR (ipass=        1) iters,dV,Resid=       76  8.67542149E-13  2.12635826E-13
 SEAICE_LSR: Residual Initial ipass,Uice,Vice=         2  1.74621035E-03  1.82375382E-03
 SEAICE_LSR (ipass=        2) iters,dU,Resid=       78  9.17321774E-15  1.83010276E-15
 SEAICE_LSR (ipass=        2) iters,dV,Resid=       78  8.62254712E-13  2.33123426E-13
 cg2d: Sum(rhs),rhsMax =   2.21834613536272E+03  2.11632245217283E+01
(PID.TID 0000.0001)      cg2d_init_res =   2.69443551829357E+00
(PID.TID 0000.0001)      cg2d_iters(min,last) =      -1      68
(PID.TID 0000.0001)      cg2d_last_res =   5.77790508104170E-07
(PID.TID 0000.0001) // =======================================================
(PID.TID 0000.0001) // Begin MONITOR dynamic field statistics
(PID.TID 0000.0001) // =======================================================
(PID.TID 0000.0001) %MON time_tsnumber                =                 72002
(PID.TID 0000.0001) %MON time_secondsf                =   6.2209728000000E+09
(PID.TID 0000.0001) %MON dynstat_eta_max              =  -2.2069344259253E+00
(PID.TID 0000.0001) %MON dynstat_eta_min              =  -8.3466201453817E+00
(PID.TID 0000.0001) %MON dynstat_eta_mean             =  -3.2994416646738E+00
(PID.TID 0000.0001) %MON dynstat_eta_sd               =   8.8048414066388E-01
(PID.TID 0000.0001) %MON dynstat_eta_del2             =   2.3808220973572E-03
(PID.TID 0000.0001) %MON dynstat_uvel_max             =   2.1356927640728E-01
(PID.TID 0000.0001) %MON dynstat_uvel_min             =  -2.9064674951779E-01
(PID.TID 0000.0001) %MON dynstat_uvel_mean            =  -5.2754361882034E-04
(PID.TID 0000.0001) %MON dynstat_uvel_sd              =   1.4783083131385E-02
(PID.TID 0000.0001) %MON dynstat_uvel_del2            =   6.8144485008980E-05
(PID.TID 0000.0001) %MON dynstat_vvel_max             =   2.2102867251853E-01
(PID.TID 0000.0001) %MON dynstat_vvel_min             =  -2.0077069455825E-01
(PID.TID 0000.0001) %MON dynstat_vvel_mean            =  -4.0011645388244E-04
(PID.TID 0000.0001) %MON dynstat_vvel_sd              =   1.5244473647682E-02
(PID.TID 0000.0001) %MON dynstat_vvel_del2            =   6.3167855615669E-05
(PID.TID 0000.0001) %MON dynstat_wvel_max             =   1.0204576242022E-04
(PID.TID 0000.0001) %MON dynstat_wvel_min             =  -2.1400939514627E-04
(PID.TID 0000.0001) %MON dynstat_wvel_mean            =  -1.9784325407313E-09
(PID.TID 0000.0001) %MON dynstat_wvel_sd              =   5.3659880013429E-06
(PID.TID 0000.0001) %MON dynstat_wvel_del2            =   4.9442059450270E-08
(PID.TID 0000.0001) %MON dynstat_theta_max            =   3.1212998931253E+01
(PID.TID 0000.0001) %MON dynstat_theta_min            =  -6.6476141738977E+00
(PID.TID 0000.0001) %MON dynstat_theta_mean           =   3.0528902092895E+00
(PID.TID 0000.0001) %MON dynstat_theta_sd             =   4.9949652591845E+00
(PID.TID 0000.0001) %MON dynstat_theta_del2           =   2.9649685457281E-03
(PID.TID 0000.0001) %MON dynstat_salt_max             =   5.9515528612720E+01
(PID.TID 0000.0001) %MON dynstat_salt_min             =   1.7775713926784E+01
(PID.TID 0000.0001) %MON dynstat_salt_mean            =   3.4752516035050E+01
(PID.TID 0000.0001) %MON dynstat_salt_sd              =   4.8912185146756E-01
(PID.TID 0000.0001) %MON dynstat_salt_del2            =   1.3625696022375E-03
(PID.TID 0000.0001) %MON forcing_qnet_max             =   6.5640620625445E+02
(PID.TID 0000.0001) %MON forcing_qnet_min             =  -2.5387839776390E+02
(PID.TID 0000.0001) %MON forcing_qnet_mean            =  -1.3446717892490E+01
(PID.TID 0000.0001) %MON forcing_qnet_sd              =   1.2428270626357E+02
(PID.TID 0000.0001) %MON forcing_qnet_del2            =   1.0029505463051E+00
(PID.TID 0000.0001) %MON forcing_qsw_max              =  -0.0000000000000E+00
(PID.TID 0000.0001) %MON forcing_qsw_min              =  -3.0190327619373E+02
(PID.TID 0000.0001) %MON forcing_qsw_mean             =  -1.8266289954696E+02
(PID.TID 0000.0001) %MON forcing_qsw_sd               =   7.9780418582677E+01
(PID.TID 0000.0001) %MON forcing_qsw_del2             =   3.1183196931340E-01
(PID.TID 0000.0001) %MON forcing_empmr_max            =   7.1006553315453E-04
(PID.TID 0000.0001) %MON forcing_empmr_min            =  -5.2559676215354E-04
(PID.TID 0000.0001) %MON forcing_empmr_mean           =  -1.3509865421679E-06
(PID.TID 0000.0001) %MON forcing_empmr_sd             =   6.3386426521856E-05
(PID.TID 0000.0001) %MON forcing_empmr_del2           =   1.1658830531868E-06
(PID.TID 0000.0001) %MON forcing_fu_max               =   2.4755808644372E-01
(PID.TID 0000.0001) %MON forcing_fu_min               =  -2.0607770640355E-01
(PID.TID 0000.0001) %MON forcing_fu_mean              =  -4.3632061556395E-03
(PID.TID 0000.0001) %MON forcing_fu_sd                =   6.3777443442967E-02
(PID.TID 0000.0001) %MON forcing_fu_del2              =   2.1140805391316E-04
(PID.TID 0000.0001) %MON forcing_fv_max               =   2.5549422200851E-01
(PID.TID 0000.0001) %MON forcing_fv_min               =  -3.2770782795392E-01
(PID.TID 0000.0001) %MON forcing_fv_mean              =  -1.3946750697852E-02
(PID.TID 0000.0001) %MON forcing_fv_sd                =   7.4772222159967E-02
(PID.TID 0000.0001) %MON forcing_fv_del2              =   2.3116970323692E-04
(PID.TID 0000.0001) %MON trAdv_CFL_u_max              =   8.1970680898327E-02
(PID.TID 0000.0001) %MON trAdv_CFL_v_max              =   8.8846508421323E-02
(PID.TID 0000.0001) %MON trAdv_CFL_w_max              =   7.7196489216406E-02
(PID.TID 0000.0001) %MON advcfl_uvel_max              =   8.4193127371043E-02
(PID.TID 0000.0001) %MON advcfl_vvel_max              =   8.3616092405049E-02
(PID.TID 0000.0001) %MON advcfl_wvel_max              =   6.9775138643915E-02
(PID.TID 0000.0001) %MON advcfl_W_hf_max              =   7.7196489216406E-02
(PID.TID 0000.0001) %MON pe_b_mean                    =   1.4346146766945E-02
(PID.TID 0000.0001) %MON ke_max                       =   4.1687274748477E-02
(PID.TID 0000.0001) %MON ke_mean                      =   2.0841111120212E-04
(PID.TID 0000.0001) %MON ke_vol                       =   1.3386017812614E+18
(PID.TID 0000.0001) %MON vort_r_min                   =  -1.2350938689119E-06
(PID.TID 0000.0001) %MON vort_r_max                   =   1.2951568465891E-06
(PID.TID 0000.0001) %MON vort_a_mean                  =  -2.0549865324846E-05
(PID.TID 0000.0001) %MON vort_a_sd                    =   7.5259723449513E-05
(PID.TID 0000.0001) %MON vort_p_mean                  =  -2.4806336715083E-05
(PID.TID 0000.0001) %MON vort_p_sd                    =   1.2827601046343E-04
(PID.TID 0000.0001) %MON surfExpan_theta_mean         =   3.8135773857430E-08
(PID.TID 0000.0001) %MON surfExpan_salt_mean          =   2.2029125349666E-08
(PID.TID 0000.0001) // =======================================================
(PID.TID 0000.0001) // End MONITOR dynamic field statistics
(PID.TID 0000.0001) // =======================================================
(PID.TID 0000.0001) // =======================================================
(PID.TID 0000.0001) // Begin MONITOR SEAICE statistics
(PID.TID 0000.0001) // =======================================================
(PID.TID 0000.0001) %MON seaice_tsnumber              =                 72002
(PID.TID 0000.0001) %MON seaice_time_sec              =   6.2209728000000E+09
(PID.TID 0000.0001) %MON seaice_uice_max              =   2.5354072017595E-01
(PID.TID 0000.0001) %MON seaice_uice_min              =  -3.0512489222843E-01
(PID.TID 0000.0001) %MON seaice_uice_mean             =  -5.4780556951900E-04
(PID.TID 0000.0001) %MON seaice_uice_sd               =   2.9577626185750E-02
(PID.TID 0000.0001) %MON seaice_uice_del2             =   5.6656293688682E-04
(PID.TID 0000.0001) %MON seaice_vice_max              =   5.4007740073199E-01
(PID.TID 0000.0001) %MON seaice_vice_min              =  -1.9392342346655E-01
(PID.TID 0000.0001) %MON seaice_vice_mean             =   1.4412809969472E-03
(PID.TID 0000.0001) %MON seaice_vice_sd               =   2.7163182064677E-02
(PID.TID 0000.0001) %MON seaice_vice_del2             =   5.8708366522525E-04
(PID.TID 0000.0001) // =======================================================
(PID.TID 0000.0001) // End MONITOR SEAICE statistics
(PID.TID 0000.0001) // =======================================================
(PID.TID 0000.0001) // =======================================================
(PID.TID 0000.0001) // Begin MONITOR Therm.SeaIce statistics
(PID.TID 0000.0001) // =======================================================
(PID.TID 0000.0001) %MON thSI_time_sec                =   6.2209728000000E+09
(PID.TID 0000.0001) %MON thSI_Ice_Area_G              =   1.7038275368907E+13
(PID.TID 0000.0001) %MON thSI_Ice_Area_S              =   4.7369482928886E+12
(PID.TID 0000.0001) %MON thSI_Ice_Area_N              =   1.2301327076018E+13
(PID.TID 0000.0001) %MON thSI_IceH_ave_G              =   1.7860039099717E+00
(PID.TID 0000.0001) %MON thSI_IceH_ave_S              =   1.1614625599441E+00
(PID.TID 0000.0001) %MON thSI_IceH_ave_N              =   2.0264999201639E+00
(PID.TID 0000.0001) %MON thSI_IceH_max_S              =   2.1225609797961E+00
(PID.TID 0000.0001) %MON thSI_IceH_max_N              =   5.2030349644037E+00
(PID.TID 0000.0001) %MON thSI_SnwH_ave_G              =   2.0975628228967E-01
(PID.TID 0000.0001) %MON thSI_SnwH_ave_S              =   1.8299070289494E-01
(PID.TID 0000.0001) %MON thSI_SnwH_ave_N              =   2.2006306991010E-01
(PID.TID 0000.0001) %MON thSI_SnwH_max_S              =   5.8120617417536E-01
(PID.TID 0000.0001) %MON thSI_SnwH_max_N              =   4.2207770189243E-01
(PID.TID 0000.0001) %MON thSI_Tsrf_ave_G              =  -1.8828109496821E+01
(PID.TID 0000.0001) %MON thSI_Tsrf_ave_S              =  -1.9697714249353E-02
(PID.TID 0000.0001) %MON thSI_Tsrf_ave_N              =  -2.6070781245554E+01
(PID.TID 0000.0001) %MON thSI_Tsrf_min_S              =  -5.3436176963953E+00
(PID.TID 0000.0001) %MON thSI_Tsrf_min_N              =  -3.2727506435042E+01
(PID.TID 0000.0001) %MON thSI_Tsrf_max_S              =   3.3208738416106E+00
(PID.TID 0000.0001) %MON thSI_Tsrf_max_N              =   6.9262464173248E+00
(PID.TID 0000.0001) %MON thSI_Tic1_ave_G              =  -1.0746499908921E+01
(PID.TID 0000.0001) %MON thSI_Tic1_ave_S              =  -1.3426834873575E+00
(PID.TID 0000.0001) %MON thSI_Tic1_ave_N              =  -1.2821936380572E+01
(PID.TID 0000.0001) %MON thSI_Tic1_min_S              =  -2.5735223724707E+00
(PID.TID 0000.0001) %MON thSI_Tic1_min_N              =  -1.8510084528511E+01
(PID.TID 0000.0001) %MON thSI_Tic1_max_S              =   0.0000000000000E+00
(PID.TID 0000.0001) %MON thSI_Tic1_max_N              =   0.0000000000000E+00
(PID.TID 0000.0001) %MON thSI_Tic2_ave_G              =  -4.6385259175726E+00
(PID.TID 0000.0001) %MON thSI_Tic2_ave_S              =  -1.6214884588119E+00
(PID.TID 0000.0001) %MON thSI_Tic2_ave_N              =  -5.3043906364851E+00
(PID.TID 0000.0001) %MON thSI_Tic2_min_S              =  -2.0788475023763E+00
(PID.TID 0000.0001) %MON thSI_Tic2_min_N              =  -7.7685318105367E+00
(PID.TID 0000.0001) %MON thSI_Tic2_max_S              =   0.0000000000000E+00
(PID.TID 0000.0001) %MON thSI_Tic2_max_N              =   0.0000000000000E+00
(PID.TID 0000.0001) %MON thSI_TotEnerg_G              =  -9.9225565339444E+21
(PID.TID 0000.0001) // =======================================================
(PID.TID 0000.0001) // End MONITOR Therm.SeaIce statistics
(PID.TID 0000.0001) // =======================================================
 EXTERNAL_FIELDS_LOAD,     72002 : iP,iLd,i0,i1=   12    1   12    1 ; Wght=  0.4333333333  0.5666666667
 SEAICE_LSR: Residual Initial ipass,Uice,Vice=         1  3.16022308E-03  2.92508584E-03
 SEAICE_LSR (ipass=        1) iters,dU,Resid=       82  3.26128013E-15  7.34030859E-16
 SEAICE_LSR (ipass=        1) iters,dV,Resid=       82  7.24031946E-13  2.24994270E-13
 SEAICE_LSR: Residual Initial ipass,Uice,Vice=         2  1.78467006E-03  1.69287716E-03
 SEAICE_LSR (ipass=        2) iters,dU,Resid=       80  3.67761377E-15  8.55402221E-16
 SEAICE_LSR (ipass=        2) iters,dV,Resid=       80  9.63562563E-13  3.12207117E-13
 cg2d: Sum(rhs),rhsMax =   2.21826384556351E+03  2.12085264725525E+01
(PID.TID 0000.0001)      cg2d_init_res =   2.68883855490923E+00
(PID.TID 0000.0001)      cg2d_iters(min,last) =      -1      69
(PID.TID 0000.0001)      cg2d_last_res =   5.05876149989085E-07
(PID.TID 0000.0001) // =======================================================
(PID.TID 0000.0001) // Begin MONITOR dynamic field statistics
(PID.TID 0000.0001) // =======================================================
(PID.TID 0000.0001) %MON time_tsnumber                =                 72003
(PID.TID 0000.0001) %MON time_secondsf                =   6.2210592000000E+09
(PID.TID 0000.0001) %MON dynstat_eta_max              =  -2.2083820299451E+00
(PID.TID 0000.0001) %MON dynstat_eta_min              =  -8.3490268817810E+00
(PID.TID 0000.0001) %MON dynstat_eta_mean             =  -3.2993192715144E+00
(PID.TID 0000.0001) %MON dynstat_eta_sd               =   8.7953505608990E-01
(PID.TID 0000.0001) %MON dynstat_eta_del2             =   2.3558419267116E-03
(PID.TID 0000.0001) %MON dynstat_uvel_max             =   2.1380739732249E-01
(PID.TID 0000.0001) %MON dynstat_uvel_min             =  -2.9030213511844E-01
(PID.TID 0000.0001) %MON dynstat_uvel_mean            =  -5.2704297202322E-04
(PID.TID 0000.0001) %MON dynstat_uvel_sd              =   1.4779045925904E-02
(PID.TID 0000.0001) %MON dynstat_uvel_del2            =   6.8094166208255E-05
(PID.TID 0000.0001) %MON dynstat_vvel_max             =   2.2046015245688E-01
(PID.TID 0000.0001) %MON dynstat_vvel_min             =  -2.0083549093960E-01
(PID.TID 0000.0001) %MON dynstat_vvel_mean            =  -3.9944403771436E-04
(PID.TID 0000.0001) %MON dynstat_vvel_sd              =   1.5245325461274E-02
(PID.TID 0000.0001) %MON dynstat_vvel_del2            =   6.3106311770795E-05
(PID.TID 0000.0001) %MON dynstat_wvel_max             =   1.0252237236601E-04
(PID.TID 0000.0001) %MON dynstat_wvel_min             =  -2.1414828798106E-04
(PID.TID 0000.0001) %MON dynstat_wvel_mean            =  -1.8789449903966E-09
(PID.TID 0000.0001) %MON dynstat_wvel_sd              =   5.3637356951936E-06
(PID.TID 0000.0001) %MON dynstat_wvel_del2            =   4.9402728939972E-08
(PID.TID 0000.0001) %MON dynstat_theta_max            =   3.1223505467645E+01
(PID.TID 0000.0001) %MON dynstat_theta_min            =  -6.6492397646490E+00
(PID.TID 0000.0001) %MON dynstat_theta_mean           =   3.0529659298139E+00
(PID.TID 0000.0001) %MON dynstat_theta_sd             =   4.9950219285701E+00
(PID.TID 0000.0001) %MON dynstat_theta_del2           =   2.9687380293574E-03
(PID.TID 0000.0001) %MON dynstat_salt_max             =   5.9526772009340E+01
(PID.TID 0000.0001) %MON dynstat_salt_min             =   1.7775763062461E+01
(PID.TID 0000.0001) %MON dynstat_salt_mean            =   3.4752514996149E+01
(PID.TID 0000.0001) %MON dynstat_salt_sd              =   4.8911734525508E-01
(PID.TID 0000.0001) %MON dynstat_salt_del2            =   1.3634574383365E-03
(PID.TID 0000.0001) %MON forcing_qnet_max             =   6.5821258814303E+02
(PID.TID 0000.0001) %MON forcing_qnet_min             =  -2.5393069866180E+02
(PID.TID 0000.0001) %MON forcing_qnet_mean            =  -1.3347626687259E+01
(PID.TID 0000.0001) %MON forcing_qnet_sd              =   1.2427348123582E+02
(PID.TID 0000.0001) %MON forcing_qnet_del2            =   9.9630143025298E-01
(PID.TID 0000.0001) %MON forcing_qsw_max              =  -0.0000000000000E+00
(PID.TID 0000.0001) %MON forcing_qsw_min              =  -3.0189127925792E+02
(PID.TID 0000.0001) %MON forcing_qsw_mean             =  -1.8279913498316E+02
(PID.TID 0000.0001) %MON forcing_qsw_sd               =   7.9703713111315E+01
(PID.TID 0000.0001) %MON forcing_qsw_del2             =   3.0447070366294E-01
(PID.TID 0000.0001) %MON forcing_empmr_max            =   7.1607482706294E-04
(PID.TID 0000.0001) %MON forcing_empmr_min            =  -4.6142770859543E-04
(PID.TID 0000.0001) %MON forcing_empmr_mean           =  -1.4661680549743E-06
(PID.TID 0000.0001) %MON forcing_empmr_sd             =   6.2873968783975E-05
(PID.TID 0000.0001) %MON forcing_empmr_del2           =   1.1592610976663E-06
(PID.TID 0000.0001) %MON forcing_fu_max               =   2.4751003717351E-01
(PID.TID 0000.0001) %MON forcing_fu_min               =  -2.0922350306190E-01
(PID.TID 0000.0001) %MON forcing_fu_mean              =  -4.3327420340928E-03
(PID.TID 0000.0001) %MON forcing_fu_sd                =   6.3803769489114E-02
(PID.TID 0000.0001) %MON forcing_fu_del2              =   2.1207152190626E-04
(PID.TID 0000.0001) %MON forcing_fv_max               =   2.5817746358114E-01
(PID.TID 0000.0001) %MON forcing_fv_min               =  -3.2849573188785E-01
(PID.TID 0000.0001) %MON forcing_fv_mean              =  -1.3951654808774E-02
(PID.TID 0000.0001) %MON forcing_fv_sd                =   7.4811416215794E-02
(PID.TID 0000.0001) %MON forcing_fv_del2              =   2.3135754002243E-04
(PID.TID 0000.0001) %MON trAdv_CFL_u_max              =   8.1873490819758E-02
(PID.TID 0000.0001) %MON trAdv_CFL_v_max              =   8.8985587811669E-02
(PID.TID 0000.0001) %MON trAdv_CFL_w_max              =   7.7247366958392E-02
(PID.TID 0000.0001) %MON advcfl_uvel_max              =   8.4332226386957E-02
(PID.TID 0000.0001) %MON advcfl_vvel_max              =   8.3747062543463E-02
(PID.TID 0000.0001) %MON advcfl_wvel_max              =   6.9820422949296E-02
(PID.TID 0000.0001) %MON advcfl_W_hf_max              =   7.7247366958392E-02
(PID.TID 0000.0001) %MON pe_b_mean                    =   1.4345626187491E-02
(PID.TID 0000.0001) %MON ke_max                       =   4.1567874013830E-02
(PID.TID 0000.0001) %MON ke_mean                      =   2.0836783551667E-04
(PID.TID 0000.0001) %MON ke_vol                       =   1.3386018222998E+18
(PID.TID 0000.0001) %MON vort_r_min                   =  -1.2399691172085E-06
(PID.TID 0000.0001) %MON vort_r_max                   =   1.2922172760941E-06
(PID.TID 0000.0001) %MON vort_a_mean                  =  -2.0549865324846E-05
(PID.TID 0000.0001) %MON vort_a_sd                    =   7.5259723328940E-05
(PID.TID 0000.0001) %MON vort_p_mean                  =  -2.4806335583726E-05
(PID.TID 0000.0001) %MON vort_p_sd                    =   1.2827600269557E-04
(PID.TID 0000.0001) %MON surfExpan_theta_mean         =   3.9292654970660E-08
(PID.TID 0000.0001) %MON surfExpan_salt_mean          =   2.1763750062588E-08
(PID.TID 0000.0001) // =======================================================
(PID.TID 0000.0001) // End MONITOR dynamic field statistics
(PID.TID 0000.0001) // =======================================================
(PID.TID 0000.0001) // =======================================================
(PID.TID 0000.0001) // Begin MONITOR SEAICE statistics
(PID.TID 0000.0001) // =======================================================
(PID.TID 0000.0001) %MON seaice_tsnumber              =                 72003
(PID.TID 0000.0001) %MON seaice_time_sec              =   6.2210592000000E+09
(PID.TID 0000.0001) %MON seaice_uice_max              =   2.5538623359560E-01
(PID.TID 0000.0001) %MON seaice_uice_min              =  -3.0715439800434E-01
(PID.TID 0000.0001) %MON seaice_uice_mean             =  -4.3581742375778E-04
(PID.TID 0000.0001) %MON seaice_uice_sd               =   2.9209524743318E-02
(PID.TID 0000.0001) %MON seaice_uice_del2             =   5.6528669778729E-04
(PID.TID 0000.0001) %MON seaice_vice_max              =   3.5742451558568E-01
(PID.TID 0000.0001) %MON seaice_vice_min              =  -2.5673137511760E-01
(PID.TID 0000.0001) %MON seaice_vice_mean             =   1.2858611100438E-03
(PID.TID 0000.0001) %MON seaice_vice_sd               =   2.6326267131867E-02
(PID.TID 0000.0001) %MON seaice_vice_del2             =   5.0988693818127E-04
(PID.TID 0000.0001) // =======================================================
(PID.TID 0000.0001) // End MONITOR SEAICE statistics
(PID.TID 0000.0001) // =======================================================
(PID.TID 0000.0001) // =======================================================
(PID.TID 0000.0001) // Begin MONITOR Therm.SeaIce statistics
(PID.TID 0000.0001) // =======================================================
(PID.TID 0000.0001) %MON thSI_time_sec                =   6.2210592000000E+09
(PID.TID 0000.0001) %MON thSI_Ice_Area_G              =   1.6928120772135E+13
(PID.TID 0000.0001) %MON thSI_Ice_Area_S              =   4.5555883002308E+12
(PID.TID 0000.0001) %MON thSI_Ice_Area_N              =   1.2372532471905E+13
(PID.TID 0000.0001) %MON thSI_IceH_ave_G              =   1.7943566284549E+00
(PID.TID 0000.0001) %MON thSI_IceH_ave_S              =   1.1656860235497E+00
(PID.TID 0000.0001) %MON thSI_IceH_ave_N              =   2.0258342551178E+00
(PID.TID 0000.0001) %MON thSI_IceH_max_S              =   2.1210044387875E+00
(PID.TID 0000.0001) %MON thSI_IceH_max_N              =   5.2040941879529E+00
(PID.TID 0000.0001) %MON thSI_SnwH_ave_G              =   2.0926531482937E-01
(PID.TID 0000.0001) %MON thSI_SnwH_ave_S              =   1.7662649260112E-01
(PID.TID 0000.0001) %MON thSI_SnwH_ave_N              =   2.2128298679863E-01
(PID.TID 0000.0001) %MON thSI_SnwH_max_S              =   5.7689672164407E-01
(PID.TID 0000.0001) %MON thSI_SnwH_max_N              =   4.2463581107567E-01
(PID.TID 0000.0001) %MON thSI_Tsrf_ave_G              =  -1.9057488707636E+01
(PID.TID 0000.0001) %MON thSI_Tsrf_ave_S              =  -1.8142850707288E-02
(PID.TID 0000.0001) %MON thSI_Tsrf_ave_N              =  -2.6067809466691E+01
(PID.TID 0000.0001) %MON thSI_Tsrf_min_S              =  -5.4034677553678E+00
(PID.TID 0000.0001) %MON thSI_Tsrf_min_N              =  -3.2726120209843E+01
(PID.TID 0000.0001) %MON thSI_Tsrf_max_S              =   3.3685374632837E+00
(PID.TID 0000.0001) %MON thSI_Tsrf_max_N              =   6.9035175038418E+00
(PID.TID 0000.0001) %MON thSI_Tic1_ave_G              =  -1.0818431547342E+01
(PID.TID 0000.0001) %MON thSI_Tic1_ave_S              =  -1.2939355060602E+00
(PID.TID 0000.0001) %MON thSI_Tic1_ave_N              =  -1.2836359011701E+01
(PID.TID 0000.0001) %MON thSI_Tic1_min_S              =  -2.5610966302446E+00
(PID.TID 0000.0001) %MON thSI_Tic1_min_N              =  -1.8541759959399E+01
(PID.TID 0000.0001) %MON thSI_Tic1_max_S              =   0.0000000000000E+00
(PID.TID 0000.0001) %MON thSI_Tic1_max_N              =   0.0000000000000E+00
(PID.TID 0000.0001) %MON thSI_Tic2_ave_G              =  -4.6681651573646E+00
(PID.TID 0000.0001) %MON thSI_Tic2_ave_S              =  -1.6115486551354E+00
(PID.TID 0000.0001) %MON thSI_Tic2_ave_N              =  -5.3157616665268E+00
(PID.TID 0000.0001) %MON thSI_Tic2_min_S              =  -2.0642433726665E+00
(PID.TID 0000.0001) %MON thSI_Tic2_min_N              =  -7.7967301008565E+00
(PID.TID 0000.0001) %MON thSI_Tic2_max_S              =   0.0000000000000E+00
(PID.TID 0000.0001) %MON thSI_Tic2_max_N              =   0.0000000000000E+00
(PID.TID 0000.0001) %MON thSI_TotEnerg_G              =  -9.9034989824380E+21
(PID.TID 0000.0001) // =======================================================
(PID.TID 0000.0001) // End MONITOR Therm.SeaIce statistics
(PID.TID 0000.0001) // =======================================================
 EXTERNAL_FIELDS_LOAD,     72003 : iP,iLd,i0,i1=   12    1   12    1 ; Wght=  0.4000000000  0.6000000000
 SEAICE_LSR: Residual Initial ipass,Uice,Vice=         1  6.29667421E-03  9.49009606E-03
 SEAICE_LSR (ipass=        1) iters,dU,Resid=       86  6.07847106E-15  1.50697759E-15
 SEAICE_LSR (ipass=        1) iters,dV,Resid=       86  7.36327666E-13  2.57996524E-13
 SEAICE_LSR: Residual Initial ipass,Uice,Vice=         2  3.22103877E-03  4.79331078E-03
 SEAICE_LSR (ipass=        2) iters,dU,Resid=       84  1.22679644E-14  3.10850401E-15
 SEAICE_LSR (ipass=        2) iters,dV,Resid=       84  9.35945765E-13  3.38210751E-13
 cg2d: Sum(rhs),rhsMax =   2.21819508599675E+03  2.12443795147714E+01
(PID.TID 0000.0001)      cg2d_init_res =   2.64786935540007E+00
(PID.TID 0000.0001)      cg2d_iters(min,last) =      -1      69
(PID.TID 0000.0001)      cg2d_last_res =   5.32965586676471E-07
(PID.TID 0000.0001) // =======================================================
(PID.TID 0000.0001) // Begin MONITOR dynamic field statistics
(PID.TID 0000.0001) // =======================================================
(PID.TID 0000.0001) %MON time_tsnumber                =                 72004
(PID.TID 0000.0001) %MON time_secondsf                =   6.2211456000000E+09
(PID.TID 0000.0001) %MON dynstat_eta_max              =  -2.2098435519733E+00
(PID.TID 0000.0001) %MON dynstat_eta_min              =  -8.3494003581672E+00
(PID.TID 0000.0001) %MON dynstat_eta_mean             =  -3.2992170024520E+00
(PID.TID 0000.0001) %MON dynstat_eta_sd               =   8.7860295097182E-01
(PID.TID 0000.0001) %MON dynstat_eta_del2             =   2.3342948051388E-03
(PID.TID 0000.0001) %MON dynstat_uvel_max             =   2.1397618044556E-01
(PID.TID 0000.0001) %MON dynstat_uvel_min             =  -2.8994156086608E-01
(PID.TID 0000.0001) %MON dynstat_uvel_mean            =  -5.2657316040114E-04
(PID.TID 0000.0001) %MON dynstat_uvel_sd              =   1.4774815559948E-02
(PID.TID 0000.0001) %MON dynstat_uvel_del2            =   6.8044039538710E-05
(PID.TID 0000.0001) %MON dynstat_vvel_max             =   2.1983955650062E-01
(PID.TID 0000.0001) %MON dynstat_vvel_min             =  -2.0089467165481E-01
(PID.TID 0000.0001) %MON dynstat_vvel_mean            =  -3.9862912462382E-04
(PID.TID 0000.0001) %MON dynstat_vvel_sd              =   1.5246041637811E-02
(PID.TID 0000.0001) %MON dynstat_vvel_del2            =   6.3047007496031E-05
(PID.TID 0000.0001) %MON dynstat_wvel_max             =   1.0304875761686E-04
(PID.TID 0000.0001) %MON dynstat_wvel_min             =  -2.1405013217218E-04
(PID.TID 0000.0001) %MON dynstat_wvel_mean            =  -1.7379543425372E-09
(PID.TID 0000.0001) %MON dynstat_wvel_sd              =   5.3610527966894E-06
(PID.TID 0000.0001) %MON dynstat_wvel_del2            =   4.9351747150164E-08
(PID.TID 0000.0001) %MON dynstat_theta_max            =   3.1233409943471E+01
(PID.TID 0000.0001) %MON dynstat_theta_min            =  -6.6508699331127E+00
(PID.TID 0000.0001) %MON dynstat_theta_mean           =   3.0530418676653E+00
(PID.TID 0000.0001) %MON dynstat_theta_sd             =   4.9950813764643E+00
(PID.TID 0000.0001) %MON dynstat_theta_del2           =   2.9720877981291E-03
(PID.TID 0000.0001) %MON dynstat_salt_max             =   5.9534313484592E+01
(PID.TID 0000.0001) %MON dynstat_salt_min             =   1.7775800621165E+01
(PID.TID 0000.0001) %MON dynstat_salt_mean            =   3.4752514180173E+01
(PID.TID 0000.0001) %MON dynstat_salt_sd              =   4.8911155076379E-01
(PID.TID 0000.0001) %MON dynstat_salt_del2            =   1.3641450797610E-03
(PID.TID 0000.0001) %MON forcing_qnet_max             =   6.5998082101210E+02
(PID.TID 0000.0001) %MON forcing_qnet_min             =  -2.5397712532846E+02
(PID.TID 0000.0001) %MON forcing_qnet_mean            =  -1.3383696338848E+01
(PID.TID 0000.0001) %MON forcing_qnet_sd              =   1.2417863447541E+02
(PID.TID 0000.0001) %MON forcing_qnet_del2            =   9.9370285690664E-01
(PID.TID 0000.0001) %MON forcing_qsw_max              =  -0.0000000000000E+00
(PID.TID 0000.0001) %MON forcing_qsw_min              =  -3.0187928232211E+02
(PID.TID 0000.0001) %MON forcing_qsw_mean             =  -1.8293930154756E+02
(PID.TID 0000.0001) %MON forcing_qsw_sd               =   7.9639198664684E+01
(PID.TID 0000.0001) %MON forcing_qsw_del2             =   2.9910303418043E-01
(PID.TID 0000.0001) %MON forcing_empmr_max            =   7.1199601255618E-04
(PID.TID 0000.0001) %MON forcing_empmr_min            =  -4.3134767803052E-04
(PID.TID 0000.0001) %MON forcing_empmr_mean           =  -1.2250981436581E-06
(PID.TID 0000.0001) %MON forcing_empmr_sd             =   6.1684698989412E-05
(PID.TID 0000.0001) %MON forcing_empmr_del2           =   1.1264482794491E-06
(PID.TID 0000.0001) %MON forcing_fu_max               =   2.4746198790331E-01
(PID.TID 0000.0001) %MON forcing_fu_min               =  -2.1236929972025E-01
(PID.TID 0000.0001) %MON forcing_fu_mean              =  -4.2974409771841E-03
(PID.TID 0000.0001) %MON forcing_fu_sd                =   6.3837534649199E-02
(PID.TID 0000.0001) %MON forcing_fu_del2              =   2.1283095223491E-04
(PID.TID 0000.0001) %MON forcing_fv_max               =   2.6086070515377E-01
(PID.TID 0000.0001) %MON forcing_fv_min               =  -3.2928363582178E-01
(PID.TID 0000.0001) %MON forcing_fv_mean              =  -1.3964519630612E-02
(PID.TID 0000.0001) %MON forcing_fv_sd                =   7.4858184251331E-02
(PID.TID 0000.0001) %MON forcing_fv_del2              =   2.3148594701578E-04
(PID.TID 0000.0001) %MON trAdv_CFL_u_max              =   8.1771799477370E-02
(PID.TID 0000.0001) %MON trAdv_CFL_v_max              =   8.9104676043303E-02
(PID.TID 0000.0001) %MON trAdv_CFL_w_max              =   7.7211783885172E-02
(PID.TID 0000.0001) %MON advcfl_uvel_max              =   8.4471715068877E-02
(PID.TID 0000.0001) %MON advcfl_vvel_max              =   8.3859219365610E-02
(PID.TID 0000.0001) %MON advcfl_wvel_max              =   6.9788420451608E-02
(PID.TID 0000.0001) %MON advcfl_W_hf_max              =   7.7211783885172E-02
(PID.TID 0000.0001) %MON pe_b_mean                    =   1.4345087459037E-02
(PID.TID 0000.0001) %MON ke_max                       =   4.1445032200868E-02
(PID.TID 0000.0001) %MON ke_mean                      =   2.0831999995094E-04
(PID.TID 0000.0001) %MON ke_vol                       =   1.3386018668370E+18
(PID.TID 0000.0001) %MON vort_r_min                   =  -1.2451218730384E-06
(PID.TID 0000.0001) %MON vort_r_max                   =   1.2893368263216E-06
(PID.TID 0000.0001) %MON vort_a_mean                  =  -2.0549865324846E-05
(PID.TID 0000.0001) %MON vort_a_sd                    =   7.5259723204040E-05
(PID.TID 0000.0001) %MON vort_p_mean                  =  -2.4806334387310E-05
(PID.TID 0000.0001) %MON vort_p_sd                    =   1.2827598814243E-04
(PID.TID 0000.0001) %MON surfExpan_theta_mean         =   3.9808493326108E-08
(PID.TID 0000.0001) %MON surfExpan_salt_mean          =   2.0836865185813E-08
(PID.TID 0000.0001) // =======================================================
(PID.TID 0000.0001) // End MONITOR dynamic field statistics
(PID.TID 0000.0001) // =======================================================
(PID.TID 0000.0001) // =======================================================
(PID.TID 0000.0001) // Begin MONITOR SEAICE statistics
(PID.TID 0000.0001) // =======================================================
(PID.TID 0000.0001) %MON seaice_tsnumber              =                 72004
(PID.TID 0000.0001) %MON seaice_time_sec              =   6.2211456000000E+09
(PID.TID 0000.0001) %MON seaice_uice_max              =   2.5860334845925E-01
(PID.TID 0000.0001) %MON seaice_uice_min              =  -3.0140036950615E-01
(PID.TID 0000.0001) %MON seaice_uice_mean             =  -4.0863856699503E-04
(PID.TID 0000.0001) %MON seaice_uice_sd               =   2.8506416697641E-02
(PID.TID 0000.0001) %MON seaice_uice_del2             =   5.4667030879779E-04
(PID.TID 0000.0001) %MON seaice_vice_max              =   3.3876907834118E-01
(PID.TID 0000.0001) %MON seaice_vice_min              =  -1.9477791039840E-01
(PID.TID 0000.0001) %MON seaice_vice_mean             =   1.3239184026851E-03
(PID.TID 0000.0001) %MON seaice_vice_sd               =   2.4257257422573E-02
(PID.TID 0000.0001) %MON seaice_vice_del2             =   4.6996140608983E-04
(PID.TID 0000.0001) // =======================================================
(PID.TID 0000.0001) // End MONITOR SEAICE statistics
(PID.TID 0000.0001) // =======================================================
(PID.TID 0000.0001) // =======================================================
(PID.TID 0000.0001) // Begin MONITOR Therm.SeaIce statistics
(PID.TID 0000.0001) // =======================================================
(PID.TID 0000.0001) %MON thSI_time_sec                =   6.2211456000000E+09
(PID.TID 0000.0001) %MON thSI_Ice_Area_G              =   1.6805625931063E+13
(PID.TID 0000.0001) %MON thSI_Ice_Area_S              =   4.3636090283611E+12
(PID.TID 0000.0001) %MON thSI_Ice_Area_N              =   1.2442016902701E+13
(PID.TID 0000.0001) %MON thSI_IceH_ave_G              =   1.8043918886782E+00
(PID.TID 0000.0001) %MON thSI_IceH_ave_S              =   1.1744136136568E+00
(PID.TID 0000.0001) %MON thSI_IceH_ave_N              =   2.0253350773952E+00
(PID.TID 0000.0001) %MON thSI_IceH_max_S              =   2.1194152580337E+00
(PID.TID 0000.0001) %MON thSI_IceH_max_N              =   5.2051757096556E+00
(PID.TID 0000.0001) %MON thSI_SnwH_ave_G              =   2.0936382833474E-01
(PID.TID 0000.0001) %MON thSI_SnwH_ave_S              =   1.7174494752927E-01
(PID.TID 0000.0001) %MON thSI_SnwH_ave_N              =   2.2255735549382E-01
(PID.TID 0000.0001) %MON thSI_SnwH_max_S              =   5.7260138505181E-01
(PID.TID 0000.0001) %MON thSI_SnwH_max_N              =   4.2749265387836E-01
(PID.TID 0000.0001) %MON thSI_Tsrf_ave_G              =  -1.9307731818935E+01
(PID.TID 0000.0001) %MON thSI_Tsrf_ave_S              =  -2.1728927355468E-02
(PID.TID 0000.0001) %MON thSI_Tsrf_ave_N              =  -2.6071633282565E+01
(PID.TID 0000.0001) %MON thSI_Tsrf_min_S              =  -5.4282118122502E+00
(PID.TID 0000.0001) %MON thSI_Tsrf_min_N              =  -3.2724708165245E+01
(PID.TID 0000.0001) %MON thSI_Tsrf_max_S              =   3.4153533304598E+00
(PID.TID 0000.0001) %MON thSI_Tsrf_max_N              =   6.8589773415616E+00
(PID.TID 0000.0001) %MON thSI_Tic1_ave_G              =  -1.0887039187492E+01
(PID.TID 0000.0001) %MON thSI_Tic1_ave_S              =  -1.2444128884651E+00
(PID.TID 0000.0001) %MON thSI_Tic1_ave_N              =  -1.2848025548274E+01
(PID.TID 0000.0001) %MON thSI_Tic1_min_S              =  -2.5522923103745E+00
(PID.TID 0000.0001) %MON thSI_Tic1_min_N              =  -1.8567069251075E+01
(PID.TID 0000.0001) %MON thSI_Tic1_max_S              =   0.0000000000000E+00
(PID.TID 0000.0001) %MON thSI_Tic1_max_N              =   0.0000000000000E+00
(PID.TID 0000.0001) %MON thSI_Tic2_ave_G              =  -4.6954580401929E+00
(PID.TID 0000.0001) %MON thSI_Tic2_ave_S              =  -1.5978137271758E+00
(PID.TID 0000.0001) %MON thSI_Tic2_ave_N              =  -5.3254148652325E+00
(PID.TID 0000.0001) %MON thSI_Tic2_min_S              =  -2.0499942576547E+00
(PID.TID 0000.0001) %MON thSI_Tic2_min_N              =  -7.8251131700636E+00
(PID.TID 0000.0001) %MON thSI_Tic2_max_S              =   0.0000000000000E+00
(PID.TID 0000.0001) %MON thSI_Tic2_max_N              =   0.0000000000000E+00
(PID.TID 0000.0001) %MON thSI_TotEnerg_G              =  -9.8862064201400E+21
(PID.TID 0000.0001) // =======================================================
(PID.TID 0000.0001) // End MONITOR Therm.SeaIce statistics
(PID.TID 0000.0001) // =======================================================
 EXTERNAL_FIELDS_LOAD,     72004 : iP,iLd,i0,i1=   12    1   12    1 ; Wght=  0.3666666667  0.6333333333
 SEAICE_LSR: Residual Initial ipass,Uice,Vice=         1  2.02048617E-03  5.63655234E-03
 SEAICE_LSR (ipass=        1) iters,dU,Resid=       88  5.62050406E-15  1.48103174E-15
 SEAICE_LSR (ipass=        1) iters,dV,Resid=       88  8.36608560E-13  3.19171864E-13
 SEAICE_LSR: Residual Initial ipass,Uice,Vice=         2  1.15933725E-03  2.87781448E-03
 SEAICE_LSR (ipass=        2) iters,dU,Resid=       86  1.03389519E-14  2.76293149E-15
 SEAICE_LSR (ipass=        2) iters,dV,Resid=       86  9.54361590E-13  3.72123249E-13
 cg2d: Sum(rhs),rhsMax =   2.21814849269864E+03  2.12627066102719E+01
(PID.TID 0000.0001)      cg2d_init_res =   2.58762259005549E+00
(PID.TID 0000.0001)      cg2d_iters(min,last) =      -1      69
(PID.TID 0000.0001)      cg2d_last_res =   5.40215339305501E-07
(PID.TID 0000.0001) // =======================================================
(PID.TID 0000.0001) // Begin MONITOR dynamic field statistics
(PID.TID 0000.0001) // =======================================================
(PID.TID 0000.0001) %MON time_tsnumber                =                 72005
(PID.TID 0000.0001) %MON time_secondsf                =   6.2212320000000E+09
(PID.TID 0000.0001) %MON dynstat_eta_max              =  -2.2112930990978E+00
(PID.TID 0000.0001) %MON dynstat_eta_min              =  -8.3487722302457E+00
(PID.TID 0000.0001) %MON dynstat_eta_mean             =  -3.2991477022347E+00
(PID.TID 0000.0001) %MON dynstat_eta_sd               =   8.7774026241961E-01
(PID.TID 0000.0001) %MON dynstat_eta_del2             =   2.3136014053505E-03
(PID.TID 0000.0001) %MON dynstat_uvel_max             =   2.1407406145547E-01
(PID.TID 0000.0001) %MON dynstat_uvel_min             =  -2.8956481761547E-01
(PID.TID 0000.0001) %MON dynstat_uvel_mean            =  -5.2611967368590E-04
(PID.TID 0000.0001) %MON dynstat_uvel_sd              =   1.4770467266209E-02
(PID.TID 0000.0001) %MON dynstat_uvel_del2            =   6.7994831295520E-05
(PID.TID 0000.0001) %MON dynstat_vvel_max             =   2.1917259429670E-01
(PID.TID 0000.0001) %MON dynstat_vvel_min             =  -2.0094855441219E-01
(PID.TID 0000.0001) %MON dynstat_vvel_mean            =  -3.9771729470456E-04
(PID.TID 0000.0001) %MON dynstat_vvel_sd              =   1.5246564161078E-02
(PID.TID 0000.0001) %MON dynstat_vvel_del2            =   6.2990602683822E-05
(PID.TID 0000.0001) %MON dynstat_wvel_max             =   1.0361350464611E-04
(PID.TID 0000.0001) %MON dynstat_wvel_min             =  -2.1390083770595E-04
(PID.TID 0000.0001) %MON dynstat_wvel_mean            =  -1.5029341539079E-09
(PID.TID 0000.0001) %MON dynstat_wvel_sd              =   5.3590036251988E-06
(PID.TID 0000.0001) %MON dynstat_wvel_del2            =   4.9305742048704E-08
(PID.TID 0000.0001) %MON dynstat_theta_max            =   3.1242721817903E+01
(PID.TID 0000.0001) %MON dynstat_theta_min            =  -6.6523302137027E+00
(PID.TID 0000.0001) %MON dynstat_theta_mean           =   3.0531182345314E+00
(PID.TID 0000.0001) %MON dynstat_theta_sd             =   4.9951430003127E+00
(PID.TID 0000.0001) %MON dynstat_theta_del2           =   2.9757928836668E-03
(PID.TID 0000.0001) %MON dynstat_salt_max             =   5.9540041291526E+01
(PID.TID 0000.0001) %MON dynstat_salt_min             =   1.7775826886311E+01
(PID.TID 0000.0001) %MON dynstat_salt_mean            =   3.4752513665853E+01
(PID.TID 0000.0001) %MON dynstat_salt_sd              =   4.8910480763036E-01
(PID.TID 0000.0001) %MON dynstat_salt_del2            =   1.3648703319191E-03
(PID.TID 0000.0001) %MON forcing_qnet_max             =   6.6172791760617E+02
(PID.TID 0000.0001) %MON forcing_qnet_min             =  -2.5401668908255E+02
(PID.TID 0000.0001) %MON forcing_qnet_mean            =  -1.3461547465069E+01
(PID.TID 0000.0001) %MON forcing_qnet_sd              =   1.2423099425588E+02
(PID.TID 0000.0001) %MON forcing_qnet_del2            =   9.9244800353234E-01
(PID.TID 0000.0001) %MON forcing_qsw_max              =  -0.0000000000000E+00
(PID.TID 0000.0001) %MON forcing_qsw_min              =  -3.0186728538630E+02
(PID.TID 0000.0001) %MON forcing_qsw_mean             =  -1.8308073072196E+02
(PID.TID 0000.0001) %MON forcing_qsw_sd               =   7.9576136209762E+01
(PID.TID 0000.0001) %MON forcing_qsw_del2             =   2.9661742875474E-01
(PID.TID 0000.0001) %MON forcing_empmr_max            =   7.0029611645827E-04
(PID.TID 0000.0001) %MON forcing_empmr_min            =  -4.3351451955754E-04
(PID.TID 0000.0001) %MON forcing_empmr_mean           =  -8.3015885227164E-07
(PID.TID 0000.0001) %MON forcing_empmr_sd             =   5.9471418977338E-05
(PID.TID 0000.0001) %MON forcing_empmr_del2           =   1.0771579881331E-06
(PID.TID 0000.0001) %MON forcing_fu_max               =   2.4741393863310E-01
(PID.TID 0000.0001) %MON forcing_fu_min               =  -2.1551509637860E-01
(PID.TID 0000.0001) %MON forcing_fu_mean              =  -4.2638363880027E-03
(PID.TID 0000.0001) %MON forcing_fu_sd                =   6.3888365170237E-02
(PID.TID 0000.0001) %MON forcing_fu_del2              =   2.1378597567054E-04
(PID.TID 0000.0001) %MON forcing_fv_max               =   2.6354394672640E-01
(PID.TID 0000.0001) %MON forcing_fv_min               =  -3.3007153975572E-01
(PID.TID 0000.0001) %MON forcing_fv_mean              =  -1.3974464909383E-02
(PID.TID 0000.0001) %MON forcing_fv_sd                =   7.4919888621450E-02
(PID.TID 0000.0001) %MON forcing_fv_del2              =   2.3216241967885E-04
(PID.TID 0000.0001) %MON trAdv_CFL_u_max              =   8.1665547946315E-02
(PID.TID 0000.0001) %MON trAdv_CFL_v_max              =   8.9202566440505E-02
(PID.TID 0000.0001) %MON trAdv_CFL_w_max              =   7.7158055041165E-02
(PID.TID 0000.0001) %MON advcfl_uvel_max              =   8.4609743364774E-02
(PID.TID 0000.0001) %MON advcfl_vvel_max              =   8.3951426362514E-02
(PID.TID 0000.0001) %MON advcfl_wvel_max              =   6.9739744821865E-02
(PID.TID 0000.0001) %MON advcfl_W_hf_max              =   7.7158055041165E-02
(PID.TID 0000.0001) %MON pe_b_mean                    =   1.4344548899129E-02
(PID.TID 0000.0001) %MON ke_max                       =   4.1318683303007E-02
(PID.TID 0000.0001) %MON ke_mean                      =   2.0826781702631E-04
(PID.TID 0000.0001) %MON ke_vol                       =   1.3386019040514E+18
(PID.TID 0000.0001) %MON vort_r_min                   =  -1.2505216152030E-06
(PID.TID 0000.0001) %MON vort_r_max                   =   1.2865220224227E-06
(PID.TID 0000.0001) %MON vort_a_mean                  =  -2.0549865324846E-05
(PID.TID 0000.0001) %MON vort_a_sd                    =   7.5259723066249E-05
(PID.TID 0000.0001) %MON vort_p_mean                  =  -2.4806333292741E-05
(PID.TID 0000.0001) %MON vort_p_sd                    =   1.2827597513283E-04
(PID.TID 0000.0001) %MON surfExpan_theta_mean         =   4.1197041669592E-08
(PID.TID 0000.0001) %MON surfExpan_salt_mean          =   1.9758144167023E-08
(PID.TID 0000.0001) // =======================================================
(PID.TID 0000.0001) // End MONITOR dynamic field statistics
(PID.TID 0000.0001) // =======================================================
(PID.TID 0000.0001) // =======================================================
(PID.TID 0000.0001) // Begin MONITOR SEAICE statistics
(PID.TID 0000.0001) // =======================================================
(PID.TID 0000.0001) %MON seaice_tsnumber              =                 72005
(PID.TID 0000.0001) %MON seaice_time_sec              =   6.2212320000000E+09
(PID.TID 0000.0001) %MON seaice_uice_max              =   2.6153084106018E-01
(PID.TID 0000.0001) %MON seaice_uice_min              =  -3.0282054660985E-01
(PID.TID 0000.0001) %MON seaice_uice_mean             =  -3.7596021198085E-04
(PID.TID 0000.0001) %MON seaice_uice_sd               =   2.8325695277343E-02
(PID.TID 0000.0001) %MON seaice_uice_del2             =   5.3134072724770E-04
(PID.TID 0000.0001) %MON seaice_vice_max              =   3.3663126628816E-01
(PID.TID 0000.0001) %MON seaice_vice_min              =  -2.5715325375181E-01
(PID.TID 0000.0001) %MON seaice_vice_mean             =   1.2885950019448E-03
(PID.TID 0000.0001) %MON seaice_vice_sd               =   2.4546561639425E-02
(PID.TID 0000.0001) %MON seaice_vice_del2             =   4.5750747908006E-04
(PID.TID 0000.0001) // =======================================================
(PID.TID 0000.0001) // End MONITOR SEAICE statistics
(PID.TID 0000.0001) // =======================================================
(PID.TID 0000.0001) // =======================================================
(PID.TID 0000.0001) // Begin MONITOR Therm.SeaIce statistics
(PID.TID 0000.0001) // =======================================================
(PID.TID 0000.0001) %MON thSI_time_sec                =   6.2212320000000E+09
(PID.TID 0000.0001) %MON thSI_Ice_Area_G              =   1.6712664240495E+13
(PID.TID 0000.0001) %MON thSI_Ice_Area_S              =   4.2039196679811E+12
(PID.TID 0000.0001) %MON thSI_Ice_Area_N              =   1.2508744572514E+13
(PID.TID 0000.0001) %MON thSI_IceH_ave_G              =   1.8120144228134E+00
(PID.TID 0000.0001) %MON thSI_IceH_ave_S              =   1.1790031303616E+00
(PID.TID 0000.0001) %MON thSI_IceH_ave_N              =   2.0247558859527E+00
(PID.TID 0000.0001) %MON thSI_IceH_max_S              =   2.1177917053319E+00
(PID.TID 0000.0001) %MON thSI_IceH_max_N              =   5.2062816266209E+00
(PID.TID 0000.0001) %MON thSI_SnwH_ave_G              =   2.0933321529464E-01
(PID.TID 0000.0001) %MON thSI_SnwH_ave_S              =   1.6605793764414E-01
(PID.TID 0000.0001) %MON thSI_SnwH_ave_N              =   2.2387710415556E-01
(PID.TID 0000.0001) %MON thSI_SnwH_max_S              =   5.6793730595415E-01
(PID.TID 0000.0001) %MON thSI_SnwH_max_N              =   4.3059549267277E-01
(PID.TID 0000.0001) %MON thSI_Tsrf_ave_G              =  -1.9512044907759E+01
(PID.TID 0000.0001) %MON thSI_Tsrf_ave_S              =  -2.0105414798986E-02
(PID.TID 0000.0001) %MON thSI_Tsrf_ave_N              =  -2.6062866001476E+01
(PID.TID 0000.0001) %MON thSI_Tsrf_min_S              =  -5.4460491260557E+00
(PID.TID 0000.0001) %MON thSI_Tsrf_min_N              =  -3.2723444320308E+01
(PID.TID 0000.0001) %MON thSI_Tsrf_max_S              =   3.4614889236443E+00
(PID.TID 0000.0001) %MON thSI_Tsrf_max_N              =   6.8301750033618E+00
(PID.TID 0000.0001) %MON thSI_Tic1_ave_G              =  -1.0950149896574E+01
(PID.TID 0000.0001) %MON thSI_Tic1_ave_S              =  -1.1967201384918E+00
(PID.TID 0000.0001) %MON thSI_Tic1_ave_N              =  -1.2858861584528E+01
(PID.TID 0000.0001) %MON thSI_Tic1_min_S              =  -2.5444843721851E+00
(PID.TID 0000.0001) %MON thSI_Tic1_min_N              =  -1.8585139715157E+01
(PID.TID 0000.0001) %MON thSI_Tic1_max_S              =   0.0000000000000E+00
(PID.TID 0000.0001) %MON thSI_Tic1_max_N              =   0.0000000000000E+00
(PID.TID 0000.0001) %MON thSI_Tic2_ave_G              =  -4.7201068393084E+00
(PID.TID 0000.0001) %MON thSI_Tic2_ave_S              =  -1.5814716902928E+00
(PID.TID 0000.0001) %MON thSI_Tic2_ave_N              =  -5.3343266308835E+00
(PID.TID 0000.0001) %MON thSI_Tic2_min_S              =  -2.0360731860122E+00
(PID.TID 0000.0001) %MON thSI_Tic2_min_N              =  -7.8519916237819E+00
(PID.TID 0000.0001) %MON thSI_Tic2_max_S              =   0.0000000000000E+00
(PID.TID 0000.0001) %MON thSI_Tic2_max_N              =   0.0000000000000E+00
(PID.TID 0000.0001) %MON thSI_TotEnerg_G              =  -9.8722728928385E+21
(PID.TID 0000.0001) // =======================================================
(PID.TID 0000.0001) // End MONITOR Therm.SeaIce statistics
(PID.TID 0000.0001) // =======================================================
 EXTERNAL_FIELDS_LOAD,     72005 : iP,iLd,i0,i1=   12    1   12    1 ; Wght=  0.3333333333  0.6666666667
 SEAICE_LSR: Residual Initial ipass,Uice,Vice=         1  1.89271599E-03  7.52223474E-03
 SEAICE_LSR (ipass=        1) iters,dU,Resid=       90  3.86496390E-15  1.06035459E-15
 SEAICE_LSR (ipass=        1) iters,dV,Resid=       90  6.93348157E-13  2.80533884E-13
 SEAICE_LSR: Residual Initial ipass,Uice,Vice=         2  1.06231344E-03  3.79297115E-03
 SEAICE_LSR (ipass=        2) iters,dU,Resid=       88  6.34214903E-15  1.75034212E-15
 SEAICE_LSR (ipass=        2) iters,dV,Resid=       88  7.50607909E-13  3.08305053E-13
 cg2d: Sum(rhs),rhsMax =   2.21811173716012E+03  2.12763613162806E+01
(PID.TID 0000.0001)      cg2d_init_res =   2.52848736439337E+00
(PID.TID 0000.0001)      cg2d_iters(min,last) =      -1      69
(PID.TID 0000.0001)      cg2d_last_res =   5.69582165995673E-07
(PID.TID 0000.0001) // =======================================================
(PID.TID 0000.0001) // Begin MONITOR dynamic field statistics
(PID.TID 0000.0001) // =======================================================
(PID.TID 0000.0001) %MON time_tsnumber                =                 72006
(PID.TID 0000.0001) %MON time_secondsf                =   6.2213184000000E+09
(PID.TID 0000.0001) %MON dynstat_eta_max              =  -2.2127313534196E+00
(PID.TID 0000.0001) %MON dynstat_eta_min              =  -8.3481649622483E+00
(PID.TID 0000.0001) %MON dynstat_eta_mean             =  -3.2990930341407E+00
(PID.TID 0000.0001) %MON dynstat_eta_sd               =   8.7690801506776E-01
(PID.TID 0000.0001) %MON dynstat_eta_del2             =   2.2943884330111E-03
(PID.TID 0000.0001) %MON dynstat_uvel_max             =   2.1410069783610E-01
(PID.TID 0000.0001) %MON dynstat_uvel_min             =  -2.8917150139709E-01
(PID.TID 0000.0001) %MON dynstat_uvel_mean            =  -5.2567488089400E-04
(PID.TID 0000.0001) %MON dynstat_uvel_sd              =   1.4766055139040E-02
(PID.TID 0000.0001) %MON dynstat_uvel_del2            =   6.7946720646086E-05
(PID.TID 0000.0001) %MON dynstat_vvel_max             =   2.1846574753535E-01
(PID.TID 0000.0001) %MON dynstat_vvel_min             =  -2.0099743636464E-01
(PID.TID 0000.0001) %MON dynstat_vvel_mean            =  -3.9675982819579E-04
(PID.TID 0000.0001) %MON dynstat_vvel_sd              =   1.5246844594164E-02
(PID.TID 0000.0001) %MON dynstat_vvel_del2            =   6.2936803641737E-05
(PID.TID 0000.0001) %MON dynstat_wvel_max             =   1.0421009039050E-04
(PID.TID 0000.0001) %MON dynstat_wvel_min             =  -2.1382888079581E-04
(PID.TID 0000.0001) %MON dynstat_wvel_mean            =  -1.4062350545467E-09
(PID.TID 0000.0001) %MON dynstat_wvel_sd              =   5.3572471797672E-06
(PID.TID 0000.0001) %MON dynstat_wvel_del2            =   4.9254682337973E-08
(PID.TID 0000.0001) %MON dynstat_theta_max            =   3.1251450437462E+01
(PID.TID 0000.0001) %MON dynstat_theta_min            =  -6.6536584443932E+00
(PID.TID 0000.0001) %MON dynstat_theta_mean           =   3.0531944833695E+00
(PID.TID 0000.0001) %MON dynstat_theta_sd             =   4.9952072375101E+00
(PID.TID 0000.0001) %MON dynstat_theta_del2           =   2.9791046708102E-03
(PID.TID 0000.0001) %MON dynstat_salt_max             =   5.9544960680608E+01
(PID.TID 0000.0001) %MON dynstat_salt_min             =   1.7775842157009E+01
(PID.TID 0000.0001) %MON dynstat_salt_mean            =   3.4752513276845E+01
(PID.TID 0000.0001) %MON dynstat_salt_sd              =   4.8909774730177E-01
(PID.TID 0000.0001) %MON dynstat_salt_del2            =   1.3655954946109E-03
(PID.TID 0000.0001) %MON forcing_qnet_max             =   6.6345367296625E+02
(PID.TID 0000.0001) %MON forcing_qnet_min             =  -2.5404850903795E+02
(PID.TID 0000.0001) %MON forcing_qnet_mean            =  -1.3435367587029E+01
(PID.TID 0000.0001) %MON forcing_qnet_sd              =   1.2420057489665E+02
(PID.TID 0000.0001) %MON forcing_qnet_del2            =   9.8968484791508E-01
(PID.TID 0000.0001) %MON forcing_qsw_max              =  -0.0000000000000E+00
(PID.TID 0000.0001) %MON forcing_qsw_min              =  -3.0185528845048E+02
(PID.TID 0000.0001) %MON forcing_qsw_mean             =  -1.8320150213480E+02
(PID.TID 0000.0001) %MON forcing_qsw_sd               =   7.9507429210830E+01
(PID.TID 0000.0001) %MON forcing_qsw_del2             =   2.9216076672959E-01
(PID.TID 0000.0001) %MON forcing_empmr_max            =   6.8273696538675E-04
(PID.TID 0000.0001) %MON forcing_empmr_min            =  -4.3568502234138E-04
(PID.TID 0000.0001) %MON forcing_empmr_mean           =  -6.5487821019645E-07
(PID.TID 0000.0001) %MON forcing_empmr_sd             =   5.8043874369363E-05
(PID.TID 0000.0001) %MON forcing_empmr_del2           =   1.0409007339266E-06
(PID.TID 0000.0001) %MON forcing_fu_max               =   2.4736588936290E-01
(PID.TID 0000.0001) %MON forcing_fu_min               =  -2.1866089303695E-01
(PID.TID 0000.0001) %MON forcing_fu_mean              =  -4.2268930655186E-03
(PID.TID 0000.0001) %MON forcing_fu_sd                =   6.3949643757939E-02
(PID.TID 0000.0001) %MON forcing_fu_del2              =   2.1487871634855E-04
(PID.TID 0000.0001) %MON forcing_fv_max               =   2.6622718829904E-01
(PID.TID 0000.0001) %MON forcing_fv_min               =  -3.3085944368965E-01
(PID.TID 0000.0001) %MON forcing_fv_mean              =  -1.3985575350035E-02
(PID.TID 0000.0001) %MON forcing_fv_sd                =   7.4989931551588E-02
(PID.TID 0000.0001) %MON forcing_fv_del2              =   2.3273061195618E-04
(PID.TID 0000.0001) %MON trAdv_CFL_u_max              =   8.1554622401399E-02
(PID.TID 0000.0001) %MON trAdv_CFL_v_max              =   8.9278401311672E-02
(PID.TID 0000.0001) %MON trAdv_CFL_w_max              =   7.7132353459478E-02
(PID.TID 0000.0001) %MON advcfl_uvel_max              =   8.4744703039326E-02
(PID.TID 0000.0001) %MON advcfl_vvel_max              =   8.4022875576260E-02
(PID.TID 0000.0001) %MON advcfl_wvel_max              =   6.9716284153802E-02
(PID.TID 0000.0001) %MON advcfl_W_hf_max              =   7.7132353459478E-02
(PID.TID 0000.0001) %MON pe_b_mean                    =   1.4344049369991E-02
(PID.TID 0000.0001) %MON ke_max                       =   4.1188693076147E-02
(PID.TID 0000.0001) %MON ke_mean                      =   2.0821135134520E-04
(PID.TID 0000.0001) %MON ke_vol                       =   1.3386019292688E+18
(PID.TID 0000.0001) %MON vort_r_min                   =  -1.2561364076215E-06
(PID.TID 0000.0001) %MON vort_r_max                   =   1.2837799639220E-06
(PID.TID 0000.0001) %MON vort_a_mean                  =  -2.0549865324846E-05
(PID.TID 0000.0001) %MON vort_a_sd                    =   7.5259722911836E-05
(PID.TID 0000.0001) %MON vort_p_mean                  =  -2.4806332443143E-05
(PID.TID 0000.0001) %MON vort_p_sd                    =   1.2827596652711E-04
(PID.TID 0000.0001) %MON surfExpan_theta_mean         =   4.2514051530111E-08
(PID.TID 0000.0001) %MON surfExpan_salt_mean          =   1.8886157673351E-08
(PID.TID 0000.0001) // =======================================================
(PID.TID 0000.0001) // End MONITOR dynamic field statistics
(PID.TID 0000.0001) // =======================================================
(PID.TID 0000.0001) // =======================================================
(PID.TID 0000.0001) // Begin MONITOR SEAICE statistics
(PID.TID 0000.0001) // =======================================================
(PID.TID 0000.0001) %MON seaice_tsnumber              =                 72006
(PID.TID 0000.0001) %MON seaice_time_sec              =   6.2213184000000E+09
(PID.TID 0000.0001) %MON seaice_uice_max              =   2.6419195932396E-01
(PID.TID 0000.0001) %MON seaice_uice_min              =  -2.9671189851266E-01
(PID.TID 0000.0001) %MON seaice_uice_mean             =  -3.7235248640082E-04
(PID.TID 0000.0001) %MON seaice_uice_sd               =   2.8138231485781E-02
(PID.TID 0000.0001) %MON seaice_uice_del2             =   5.2653041223919E-04
(PID.TID 0000.0001) %MON seaice_vice_max              =   3.2715070394381E-01
(PID.TID 0000.0001) %MON seaice_vice_min              =  -1.9963207582081E-01
(PID.TID 0000.0001) %MON seaice_vice_mean             =   1.2326974450998E-03
(PID.TID 0000.0001) %MON seaice_vice_sd               =   2.3066652973365E-02
(PID.TID 0000.0001) %MON seaice_vice_del2             =   4.5198337099332E-04
(PID.TID 0000.0001) // =======================================================
(PID.TID 0000.0001) // End MONITOR SEAICE statistics
(PID.TID 0000.0001) // =======================================================
(PID.TID 0000.0001) // =======================================================
(PID.TID 0000.0001) // Begin MONITOR Therm.SeaIce statistics
(PID.TID 0000.0001) // =======================================================
(PID.TID 0000.0001) %MON thSI_time_sec                =   6.2213184000000E+09
(PID.TID 0000.0001) %MON thSI_Ice_Area_G              =   1.6613516985381E+13
(PID.TID 0000.0001) %MON thSI_Ice_Area_S              =   4.0511043049875E+12
(PID.TID 0000.0001) %MON thSI_Ice_Area_N              =   1.2562412680394E+13
(PID.TID 0000.0001) %MON thSI_IceH_ave_G              =   1.8205639723224E+00
(PID.TID 0000.0001) %MON thSI_IceH_ave_S              =   1.1839447571400E+00
(PID.TID 0000.0001) %MON thSI_IceH_ave_N              =   2.0258597947792E+00
(PID.TID 0000.0001) %MON thSI_IceH_max_S              =   2.1161325323931E+00
(PID.TID 0000.0001) %MON thSI_IceH_max_N              =   5.2074093471424E+00
(PID.TID 0000.0001) %MON thSI_SnwH_ave_G              =   2.0966225628436E-01
(PID.TID 0000.0001) %MON thSI_SnwH_ave_S              =   1.6084463602138E-01
(PID.TID 0000.0001) %MON thSI_SnwH_ave_N              =   2.2540487489100E-01
(PID.TID 0000.0001) %MON thSI_SnwH_max_S              =   5.6286936298630E-01
(PID.TID 0000.0001) %MON thSI_SnwH_max_N              =   4.3389298594975E-01
(PID.TID 0000.0001) %MON thSI_Tsrf_ave_G              =  -1.9731426338078E+01
(PID.TID 0000.0001) %MON thSI_Tsrf_ave_S              =  -2.4893194226894E-02
(PID.TID 0000.0001) %MON thSI_Tsrf_ave_N              =  -2.6086353794015E+01
(PID.TID 0000.0001) %MON thSI_Tsrf_min_S              =  -5.4578245273155E+00
(PID.TID 0000.0001) %MON thSI_Tsrf_min_N              =  -3.2722278138439E+01
(PID.TID 0000.0001) %MON thSI_Tsrf_max_S              =   3.5071638349941E+00
(PID.TID 0000.0001) %MON thSI_Tsrf_max_N              =   6.8208849998199E+00
(PID.TID 0000.0001) %MON thSI_Tic1_ave_G              =  -1.1010111620973E+01
(PID.TID 0000.0001) %MON thSI_Tic1_ave_S              =  -1.1504410942169E+00
(PID.TID 0000.0001) %MON thSI_Tic1_ave_N              =  -1.2868278972047E+01
(PID.TID 0000.0001) %MON thSI_Tic1_min_S              =  -2.5376228818381E+00
(PID.TID 0000.0001) %MON thSI_Tic1_min_N              =  -1.8595908994204E+01
(PID.TID 0000.0001) %MON thSI_Tic1_max_S              =   0.0000000000000E+00
(PID.TID 0000.0001) %MON thSI_Tic1_max_N              =   0.0000000000000E+00
(PID.TID 0000.0001) %MON thSI_Tic2_ave_G              =  -4.7433102383997E+00
(PID.TID 0000.0001) %MON thSI_Tic2_ave_S              =  -1.5653667908040E+00
(PID.TID 0000.0001) %MON thSI_Tic2_ave_N              =  -5.3422299225671E+00
(PID.TID 0000.0001) %MON thSI_Tic2_min_S              =  -2.0224552177020E+00
(PID.TID 0000.0001) %MON thSI_Tic2_min_N              =  -7.8771192572946E+00
(PID.TID 0000.0001) %MON thSI_Tic2_max_S              =   0.0000000000000E+00
(PID.TID 0000.0001) %MON thSI_Tic2_max_N              =   0.0000000000000E+00
(PID.TID 0000.0001) %MON thSI_TotEnerg_G              =  -9.8593806536459E+21
(PID.TID 0000.0001) // =======================================================
(PID.TID 0000.0001) // End MONITOR Therm.SeaIce statistics
(PID.TID 0000.0001) // =======================================================
 EXTERNAL_FIELDS_LOAD,     72006 : iP,iLd,i0,i1=   12    1   12    1 ; Wght=  0.3000000000  0.7000000000
 SEAICE_LSR: Residual Initial ipass,Uice,Vice=         1  2.43086481E-03  2.89327045E-03
 SEAICE_LSR (ipass=        1) iters,dU,Resid=       90  3.56659147E-15  9.96481340E-16
 SEAICE_LSR (ipass=        1) iters,dV,Resid=       90  7.43155537E-13  3.12573425E-13
 SEAICE_LSR: Residual Initial ipass,Uice,Vice=         2  1.28803173E-03  1.51809600E-03
 SEAICE_LSR (ipass=        2) iters,dU,Resid=       88  5.72458747E-15  1.61183165E-15
 SEAICE_LSR (ipass=        2) iters,dV,Resid=       88  7.73006659E-13  3.28235971E-13
 cg2d: Sum(rhs),rhsMax =   2.21808155004668E+03  2.12913339504904E+01
(PID.TID 0000.0001)      cg2d_init_res =   2.41748112084666E+00
(PID.TID 0000.0001)      cg2d_iters(min,last) =      -1      70
(PID.TID 0000.0001)      cg2d_last_res =   4.59723188048093E-07
(PID.TID 0000.0001) // =======================================================
(PID.TID 0000.0001) // Begin MONITOR dynamic field statistics
(PID.TID 0000.0001) // =======================================================
(PID.TID 0000.0001) %MON time_tsnumber                =                 72007
(PID.TID 0000.0001) %MON time_secondsf                =   6.2214048000000E+09
(PID.TID 0000.0001) %MON dynstat_eta_max              =  -2.2137557222596E+00
(PID.TID 0000.0001) %MON dynstat_eta_min              =  -8.3480902397457E+00
(PID.TID 0000.0001) %MON dynstat_eta_mean             =  -3.2990481355479E+00
(PID.TID 0000.0001) %MON dynstat_eta_sd               =   8.7609895749945E-01
(PID.TID 0000.0001) %MON dynstat_eta_del2             =   2.2779262230310E-03
(PID.TID 0000.0001) %MON dynstat_uvel_max             =   2.1405677828149E-01
(PID.TID 0000.0001) %MON dynstat_uvel_min             =  -2.8876119409532E-01
(PID.TID 0000.0001) %MON dynstat_uvel_mean            =  -5.2523419189142E-04
(PID.TID 0000.0001) %MON dynstat_uvel_sd              =   1.4761643248127E-02
(PID.TID 0000.0001) %MON dynstat_uvel_del2            =   6.7900557011295E-05
(PID.TID 0000.0001) %MON dynstat_vvel_max             =   2.1772609748401E-01
(PID.TID 0000.0001) %MON dynstat_vvel_min             =  -2.0104160422457E-01
(PID.TID 0000.0001) %MON dynstat_vvel_mean            =  -3.9580961051446E-04
(PID.TID 0000.0001) %MON dynstat_vvel_sd              =   1.5246838345466E-02
(PID.TID 0000.0001) %MON dynstat_vvel_del2            =   6.2886010748392E-05
(PID.TID 0000.0001) %MON dynstat_wvel_max             =   1.0482808754107E-04
(PID.TID 0000.0001) %MON dynstat_wvel_min             =  -2.1349910330862E-04
(PID.TID 0000.0001) %MON dynstat_wvel_mean            =  -1.2824994565601E-09
(PID.TID 0000.0001) %MON dynstat_wvel_sd              =   5.3553019981571E-06
(PID.TID 0000.0001) %MON dynstat_wvel_del2            =   4.9196270246697E-08
(PID.TID 0000.0001) %MON dynstat_theta_max            =   3.1259604744554E+01
(PID.TID 0000.0001) %MON dynstat_theta_min            =  -6.6548569949143E+00
(PID.TID 0000.0001) %MON dynstat_theta_mean           =   3.0532703501747E+00
(PID.TID 0000.0001) %MON dynstat_theta_sd             =   4.9952741141185E+00
(PID.TID 0000.0001) %MON dynstat_theta_del2           =   2.9817744247802E-03
(PID.TID 0000.0001) %MON dynstat_salt_max             =   5.9549318899662E+01
(PID.TID 0000.0001) %MON dynstat_salt_min             =   1.7775846766870E+01
(PID.TID 0000.0001) %MON dynstat_salt_mean            =   3.4752512967414E+01
(PID.TID 0000.0001) %MON dynstat_salt_sd              =   4.8909130394803E-01
(PID.TID 0000.0001) %MON dynstat_salt_del2            =   1.3663042588929E-03
(PID.TID 0000.0001) %MON forcing_qnet_max             =   6.6515909531797E+02
(PID.TID 0000.0001) %MON forcing_qnet_min             =  -2.5407181831547E+02
(PID.TID 0000.0001) %MON forcing_qnet_mean            =  -1.3364909959612E+01
(PID.TID 0000.0001) %MON forcing_qnet_sd              =   1.2421589511726E+02
(PID.TID 0000.0001) %MON forcing_qnet_del2            =   9.9156292110889E-01
(PID.TID 0000.0001) %MON forcing_qsw_max              =  -0.0000000000000E+00
(PID.TID 0000.0001) %MON forcing_qsw_min              =  -3.0184329151467E+02
(PID.TID 0000.0001) %MON forcing_qsw_mean             =  -1.8331560635009E+02
(PID.TID 0000.0001) %MON forcing_qsw_sd               =   7.9441268108406E+01
(PID.TID 0000.0001) %MON forcing_qsw_del2             =   2.8814448877341E-01
(PID.TID 0000.0001) %MON forcing_empmr_max            =   6.6085707851348E-04
(PID.TID 0000.0001) %MON forcing_empmr_min            =  -4.3785911671188E-04
(PID.TID 0000.0001) %MON forcing_empmr_mean           =  -5.3784772615267E-07
(PID.TID 0000.0001) %MON forcing_empmr_sd             =   5.7048506438342E-05
(PID.TID 0000.0001) %MON forcing_empmr_del2           =   1.0191815203960E-06
(PID.TID 0000.0001) %MON forcing_fu_max               =   2.4731784009269E-01
(PID.TID 0000.0001) %MON forcing_fu_min               =  -2.2180668969530E-01
(PID.TID 0000.0001) %MON forcing_fu_mean              =  -4.1902765347817E-03
(PID.TID 0000.0001) %MON forcing_fu_sd                =   6.4026624251593E-02
(PID.TID 0000.0001) %MON forcing_fu_del2              =   2.1614626280534E-04
(PID.TID 0000.0001) %MON forcing_fv_max               =   2.6891042987167E-01
(PID.TID 0000.0001) %MON forcing_fv_min               =  -3.3164734762358E-01
(PID.TID 0000.0001) %MON forcing_fv_mean              =  -1.3996170681927E-02
(PID.TID 0000.0001) %MON forcing_fv_sd                =   7.5073121229532E-02
(PID.TID 0000.0001) %MON forcing_fv_del2              =   2.3379997478336E-04
(PID.TID 0000.0001) %MON trAdv_CFL_u_max              =   8.1438905004655E-02
(PID.TID 0000.0001) %MON trAdv_CFL_v_max              =   8.9331708368838E-02
(PID.TID 0000.0001) %MON trAdv_CFL_w_max              =   7.7013258299252E-02
(PID.TID 0000.0001) %MON advcfl_uvel_max              =   8.4875100277369E-02
(PID.TID 0000.0001) %MON advcfl_vvel_max              =   8.4073122931405E-02
(PID.TID 0000.0001) %MON advcfl_wvel_max              =   6.9608764248546E-02
(PID.TID 0000.0001) %MON advcfl_W_hf_max              =   7.7013258299252E-02
(PID.TID 0000.0001) %MON pe_b_mean                    =   1.4343600084781E-02
(PID.TID 0000.0001) %MON ke_max                       =   4.1054918538618E-02
(PID.TID 0000.0001) %MON ke_mean                      =   2.0815085900681E-04
(PID.TID 0000.0001) %MON ke_vol                       =   1.3386019491618E+18
(PID.TID 0000.0001) %MON vort_r_min                   =  -1.2619337886974E-06
(PID.TID 0000.0001) %MON vort_r_max                   =   1.2811175001659E-06
(PID.TID 0000.0001) %MON vort_a_mean                  =  -2.0549865324846E-05
(PID.TID 0000.0001) %MON vort_a_sd                    =   7.5259722743356E-05
(PID.TID 0000.0001) %MON vort_p_mean                  =  -2.4806331686225E-05
(PID.TID 0000.0001) %MON vort_p_sd                    =   1.2827596001144E-04
(PID.TID 0000.0001) %MON surfExpan_theta_mean         =   4.3666302180166E-08
(PID.TID 0000.0001) %MON surfExpan_salt_mean          =   1.8437492223129E-08
(PID.TID 0000.0001) // =======================================================
(PID.TID 0000.0001) // End MONITOR dynamic field statistics
(PID.TID 0000.0001) // =======================================================
(PID.TID 0000.0001) // =======================================================
(PID.TID 0000.0001) // Begin MONITOR SEAICE statistics
(PID.TID 0000.0001) // =======================================================
(PID.TID 0000.0001) %MON seaice_tsnumber              =                 72007
(PID.TID 0000.0001) %MON seaice_time_sec              =   6.2214048000000E+09
(PID.TID 0000.0001) %MON seaice_uice_max              =   2.6655356587867E-01
(PID.TID 0000.0001) %MON seaice_uice_min              =  -2.9406220802855E-01
(PID.TID 0000.0001) %MON seaice_uice_mean             =  -2.9755199975378E-04
(PID.TID 0000.0001) %MON seaice_uice_sd               =   2.7969345586857E-02
(PID.TID 0000.0001) %MON seaice_uice_del2             =   5.2065436695167E-04
(PID.TID 0000.0001) %MON seaice_vice_max              =   3.2389414598418E-01
(PID.TID 0000.0001) %MON seaice_vice_min              =  -2.5530057552710E-01
(PID.TID 0000.0001) %MON seaice_vice_mean             =   1.2791802289932E-03
(PID.TID 0000.0001) %MON seaice_vice_sd               =   2.3847140189332E-02
(PID.TID 0000.0001) %MON seaice_vice_del2             =   4.5289996980376E-04
(PID.TID 0000.0001) // =======================================================
(PID.TID 0000.0001) // End MONITOR SEAICE statistics
(PID.TID 0000.0001) // =======================================================
(PID.TID 0000.0001) // =======================================================
(PID.TID 0000.0001) // Begin MONITOR Therm.SeaIce statistics
(PID.TID 0000.0001) // =======================================================
(PID.TID 0000.0001) %MON thSI_time_sec                =   6.2214048000000E+09
(PID.TID 0000.0001) %MON thSI_Ice_Area_G              =   1.6537734750897E+13
(PID.TID 0000.0001) %MON thSI_Ice_Area_S              =   3.9197994399551E+12
(PID.TID 0000.0001) %MON thSI_Ice_Area_N              =   1.2617935310942E+13
(PID.TID 0000.0001) %MON thSI_IceH_ave_G              =   1.8267070515689E+00
(PID.TID 0000.0001) %MON thSI_IceH_ave_S              =   1.1841100839579E+00
(PID.TID 0000.0001) %MON thSI_IceH_ave_N              =   2.0263317264216E+00
(PID.TID 0000.0001) %MON thSI_IceH_max_S              =   2.1144368172202E+00
(PID.TID 0000.0001) %MON thSI_IceH_max_N              =   5.2085578980884E+00
(PID.TID 0000.0001) %MON thSI_SnwH_ave_G              =   2.0986261951572E-01
(PID.TID 0000.0001) %MON thSI_SnwH_ave_S              =   1.5487615616497E-01
(PID.TID 0000.0001) %MON thSI_SnwH_ave_N              =   2.2694432923573E-01
(PID.TID 0000.0001) %MON thSI_SnwH_max_S              =   5.5740647794264E-01
(PID.TID 0000.0001) %MON thSI_SnwH_max_N              =   4.3734333272473E-01
(PID.TID 0000.0001) %MON thSI_Tsrf_ave_G              =  -1.9914843520399E+01
(PID.TID 0000.0001) %MON thSI_Tsrf_ave_S              =  -2.0853030473971E-02
(PID.TID 0000.0001) %MON thSI_Tsrf_ave_N              =  -2.6094971319379E+01
(PID.TID 0000.0001) %MON thSI_Tsrf_min_S              =  -5.4625394838330E+00
(PID.TID 0000.0001) %MON thSI_Tsrf_min_N              =  -3.2721192570412E+01
(PID.TID 0000.0001) %MON thSI_Tsrf_max_S              =   3.5525673122427E+00
(PID.TID 0000.0001) %MON thSI_Tsrf_max_N              =   6.8098070585222E+00
(PID.TID 0000.0001) %MON thSI_Tic1_ave_G              =  -1.1069115266929E+01
(PID.TID 0000.0001) %MON thSI_Tic1_ave_S              =  -1.1100623707038E+00
(PID.TID 0000.0001) %MON thSI_Tic1_ave_N              =  -1.2877018262641E+01
(PID.TID 0000.0001) %MON thSI_Tic1_min_S              =  -2.5316193265852E+00
(PID.TID 0000.0001) %MON thSI_Tic1_min_N              =  -1.8598575665556E+01
(PID.TID 0000.0001) %MON thSI_Tic1_max_S              =   0.0000000000000E+00
(PID.TID 0000.0001) %MON thSI_Tic1_max_N              =   0.0000000000000E+00
(PID.TID 0000.0001) %MON thSI_Tic2_ave_G              =  -4.7663817264120E+00
(PID.TID 0000.0001) %MON thSI_Tic2_ave_S              =  -1.5514443328461E+00
(PID.TID 0000.0001) %MON thSI_Tic2_ave_N              =  -5.3500009726814E+00
(PID.TID 0000.0001) %MON thSI_Tic2_min_S              =  -2.0091163535740E+00
(PID.TID 0000.0001) %MON thSI_Tic2_min_N              =  -7.9003337377884E+00
(PID.TID 0000.0001) %MON thSI_Tic2_max_S              =   0.0000000000000E+00
(PID.TID 0000.0001) %MON thSI_Tic2_max_N              =   0.0000000000000E+00
(PID.TID 0000.0001) %MON thSI_TotEnerg_G              =  -9.8469884240434E+21
(PID.TID 0000.0001) // =======================================================
(PID.TID 0000.0001) // End MONITOR Therm.SeaIce statistics
(PID.TID 0000.0001) // =======================================================
 EXTERNAL_FIELDS_LOAD,     72007 : iP,iLd,i0,i1=   12    1   12    1 ; Wght=  0.2666666667  0.7333333333
 SEAICE_LSR: Residual Initial ipass,Uice,Vice=         1  6.43293869E-03  5.66048648E-03
 SEAICE_LSR (ipass=        1) iters,dU,Resid=       90  3.24740235E-15  9.23215148E-16
 SEAICE_LSR (ipass=        1) iters,dV,Resid=       90  7.05893677E-13  3.03867497E-13
 SEAICE_LSR: Residual Initial ipass,Uice,Vice=         2  3.24470600E-03  2.85837251E-03
 SEAICE_LSR (ipass=        2) iters,dU,Resid=       88  4.89885910E-15  1.38094876E-15
 SEAICE_LSR (ipass=        2) iters,dV,Resid=       88  7.21075977E-13  3.12099125E-13
 cg2d: Sum(rhs),rhsMax =   2.21805884667120E+03  2.13032661142924E+01
(PID.TID 0000.0001)      cg2d_init_res =   2.41281254247742E+00
(PID.TID 0000.0001)      cg2d_iters(min,last) =      -1      69
(PID.TID 0000.0001)      cg2d_last_res =   5.36411598354183E-07
(PID.TID 0000.0001) // =======================================================
(PID.TID 0000.0001) // Begin MONITOR dynamic field statistics
(PID.TID 0000.0001) // =======================================================
(PID.TID 0000.0001) %MON time_tsnumber                =                 72008
(PID.TID 0000.0001) %MON time_secondsf                =   6.2214912000000E+09
(PID.TID 0000.0001) %MON dynstat_eta_max              =  -2.2135488551769E+00
(PID.TID 0000.0001) %MON dynstat_eta_min              =  -8.3485380319403E+00
(PID.TID 0000.0001) %MON dynstat_eta_mean             =  -3.2990143678406E+00
(PID.TID 0000.0001) %MON dynstat_eta_sd               =   8.7532098155528E-01
(PID.TID 0000.0001) %MON dynstat_eta_del2             =   2.2616551474328E-03
(PID.TID 0000.0001) %MON dynstat_uvel_max             =   2.1419727861842E-01
(PID.TID 0000.0001) %MON dynstat_uvel_min             =  -2.8833360658301E-01
(PID.TID 0000.0001) %MON dynstat_uvel_mean            =  -5.2479456845020E-04
(PID.TID 0000.0001) %MON dynstat_uvel_sd              =   1.4757287428901E-02
(PID.TID 0000.0001) %MON dynstat_uvel_del2            =   6.7856335197315E-05
(PID.TID 0000.0001) %MON dynstat_vvel_max             =   2.1696113372018E-01
(PID.TID 0000.0001) %MON dynstat_vvel_min             =  -2.0108132940366E-01
(PID.TID 0000.0001) %MON dynstat_vvel_mean            =  -3.9490272292259E-04
(PID.TID 0000.0001) %MON dynstat_vvel_sd              =   1.5246502899927E-02
(PID.TID 0000.0001) %MON dynstat_vvel_del2            =   6.2838089642536E-05
(PID.TID 0000.0001) %MON dynstat_wvel_max             =   1.0545532246471E-04
(PID.TID 0000.0001) %MON dynstat_wvel_min             =  -2.1330176675846E-04
(PID.TID 0000.0001) %MON dynstat_wvel_mean            =  -1.2269755030266E-09
(PID.TID 0000.0001) %MON dynstat_wvel_sd              =   5.3538394465998E-06
(PID.TID 0000.0001) %MON dynstat_wvel_del2            =   4.9135836747029E-08
(PID.TID 0000.0001) %MON dynstat_theta_max            =   3.1267193320845E+01
(PID.TID 0000.0001) %MON dynstat_theta_min            =  -6.6559266584296E+00
(PID.TID 0000.0001) %MON dynstat_theta_mean           =   3.0533458369260E+00
(PID.TID 0000.0001) %MON dynstat_theta_sd             =   4.9953427463730E+00
(PID.TID 0000.0001) %MON dynstat_theta_del2           =   2.9839622687884E-03
(PID.TID 0000.0001) %MON dynstat_salt_max             =   5.9552928662082E+01
(PID.TID 0000.0001) %MON dynstat_salt_min             =   1.7775841107004E+01
(PID.TID 0000.0001) %MON dynstat_salt_mean            =   3.4752512744072E+01
(PID.TID 0000.0001) %MON dynstat_salt_sd              =   4.8908439566005E-01
(PID.TID 0000.0001) %MON dynstat_salt_del2            =   1.3669198412209E-03
(PID.TID 0000.0001) %MON forcing_qnet_max             =   6.6684568708115E+02
(PID.TID 0000.0001) %MON forcing_qnet_min             =  -2.5408597157232E+02
(PID.TID 0000.0001) %MON forcing_qnet_mean            =  -1.3297403796762E+01
(PID.TID 0000.0001) %MON forcing_qnet_sd              =   1.2426177098519E+02
(PID.TID 0000.0001) %MON forcing_qnet_del2            =   9.9382843077231E-01
(PID.TID 0000.0001) %MON forcing_qsw_max              =  -0.0000000000000E+00
(PID.TID 0000.0001) %MON forcing_qsw_min              =  -3.0183129457886E+02
(PID.TID 0000.0001) %MON forcing_qsw_mean             =  -1.8341700004932E+02
(PID.TID 0000.0001) %MON forcing_qsw_sd               =   7.9369834798756E+01
(PID.TID 0000.0001) %MON forcing_qsw_del2             =   2.8367660732019E-01
(PID.TID 0000.0001) %MON forcing_empmr_max            =   6.3591218086272E-04
(PID.TID 0000.0001) %MON forcing_empmr_min            =  -4.4003672803271E-04
(PID.TID 0000.0001) %MON forcing_empmr_mean           =  -4.0450899382492E-07
(PID.TID 0000.0001) %MON forcing_empmr_sd             =   5.6232345640581E-05
(PID.TID 0000.0001) %MON forcing_empmr_del2           =   9.9970344274623E-07
(PID.TID 0000.0001) %MON forcing_fu_max               =   2.4726979082249E-01
(PID.TID 0000.0001) %MON forcing_fu_min               =  -2.2495248635365E-01
(PID.TID 0000.0001) %MON forcing_fu_mean              =  -4.1519582772777E-03
(PID.TID 0000.0001) %MON forcing_fu_sd                =   6.4114115337404E-02
(PID.TID 0000.0001) %MON forcing_fu_del2              =   2.1764356276642E-04
(PID.TID 0000.0001) %MON forcing_fv_max               =   2.7159367144430E-01
(PID.TID 0000.0001) %MON forcing_fv_min               =  -3.3243525155752E-01
(PID.TID 0000.0001) %MON forcing_fv_mean              =  -1.4006963014204E-02
(PID.TID 0000.0001) %MON forcing_fv_sd                =   7.5164975890007E-02
(PID.TID 0000.0001) %MON forcing_fv_del2              =   2.3470983580463E-04
(PID.TID 0000.0001) %MON trAdv_CFL_u_max              =   8.1318314238610E-02
(PID.TID 0000.0001) %MON trAdv_CFL_v_max              =   8.9362321747584E-02
(PID.TID 0000.0001) %MON trAdv_CFL_w_max              =   7.6942636366393E-02
(PID.TID 0000.0001) %MON advcfl_uvel_max              =   8.4999645734491E-02
(PID.TID 0000.0001) %MON advcfl_vvel_max              =   8.4102012836772E-02
(PID.TID 0000.0001) %MON advcfl_wvel_max              =   6.9544425086531E-02
(PID.TID 0000.0001) %MON advcfl_W_hf_max              =   7.6942636366393E-02
(PID.TID 0000.0001) %MON pe_b_mean                    =   1.4343202804489E-02
(PID.TID 0000.0001) %MON ke_max                       =   4.0917253385329E-02
(PID.TID 0000.0001) %MON ke_mean                      =   2.0808650698493E-04
(PID.TID 0000.0001) %MON ke_vol                       =   1.3386019654998E+18
(PID.TID 0000.0001) %MON vort_r_min                   =  -1.2678804088340E-06
(PID.TID 0000.0001) %MON vort_r_max                   =   1.2785399030353E-06
(PID.TID 0000.0001) %MON vort_a_mean                  =  -2.0549865324846E-05
(PID.TID 0000.0001) %MON vort_a_sd                    =   7.5259722566304E-05
(PID.TID 0000.0001) %MON vort_p_mean                  =  -2.4806331008932E-05
(PID.TID 0000.0001) %MON vort_p_sd                    =   1.2827595593637E-04
(PID.TID 0000.0001) %MON surfExpan_theta_mean         =   4.4918246621575E-08
(PID.TID 0000.0001) %MON surfExpan_salt_mean          =   1.8177337741906E-08
(PID.TID 0000.0001) // =======================================================
(PID.TID 0000.0001) // End MONITOR dynamic field statistics
(PID.TID 0000.0001) // =======================================================
(PID.TID 0000.0001) // =======================================================
(PID.TID 0000.0001) // Begin MONITOR SEAICE statistics
(PID.TID 0000.0001) // =======================================================
(PID.TID 0000.0001) %MON seaice_tsnumber              =                 72008
(PID.TID 0000.0001) %MON seaice_time_sec              =   6.2214912000000E+09
(PID.TID 0000.0001) %MON seaice_uice_max              =   2.7135606459453E-01
(PID.TID 0000.0001) %MON seaice_uice_min              =  -2.9153765890475E-01
(PID.TID 0000.0001) %MON seaice_uice_mean             =  -1.0220758641561E-04
(PID.TID 0000.0001) %MON seaice_uice_sd               =   2.7811739781493E-02
(PID.TID 0000.0001) %MON seaice_uice_del2             =   5.3024350701855E-04
(PID.TID 0000.0001) %MON seaice_vice_max              =   2.8956790769038E-01
(PID.TID 0000.0001) %MON seaice_vice_min              =  -2.0200437736350E-01
(PID.TID 0000.0001) %MON seaice_vice_mean             =   1.2296964848777E-03
(PID.TID 0000.0001) %MON seaice_vice_sd               =   2.2523155863991E-02
(PID.TID 0000.0001) %MON seaice_vice_del2             =   4.4421262311911E-04
(PID.TID 0000.0001) // =======================================================
(PID.TID 0000.0001) // End MONITOR SEAICE statistics
(PID.TID 0000.0001) // =======================================================
(PID.TID 0000.0001) // =======================================================
(PID.TID 0000.0001) // Begin MONITOR Therm.SeaIce statistics
(PID.TID 0000.0001) // =======================================================
(PID.TID 0000.0001) %MON thSI_time_sec                =   6.2214912000000E+09
(PID.TID 0000.0001) %MON thSI_Ice_Area_G              =   1.6432151075540E+13
(PID.TID 0000.0001) %MON thSI_Ice_Area_S              =   3.7678272632050E+12
(PID.TID 0000.0001) %MON thSI_Ice_Area_N              =   1.2664323812335E+13
(PID.TID 0000.0001) %MON thSI_IceH_ave_G              =   1.8363687454933E+00
(PID.TID 0000.0001) %MON thSI_IceH_ave_S              =   1.1926119537695E+00
(PID.TID 0000.0001) %MON thSI_IceH_ave_N              =   2.0278960963944E+00
(PID.TID 0000.0001) %MON thSI_IceH_max_S              =   2.1127038918244E+00
(PID.TID 0000.0001) %MON thSI_IceH_max_N              =   5.2097270178372E+00
(PID.TID 0000.0001) %MON thSI_SnwH_ave_G              =   2.1052523118138E-01
(PID.TID 0000.0001) %MON thSI_SnwH_ave_S              =   1.4977371671596E-01
(PID.TID 0000.0001) %MON thSI_SnwH_ave_N              =   2.2859972263278E-01
(PID.TID 0000.0001) %MON thSI_SnwH_max_S              =   5.5155962481481E-01
(PID.TID 0000.0001) %MON thSI_SnwH_max_N              =   4.4092001824365E-01
(PID.TID 0000.0001) %MON thSI_Tsrf_ave_G              =  -2.0134965897168E+01
(PID.TID 0000.0001) %MON thSI_Tsrf_ave_S              =  -2.7342500766470E-02
(PID.TID 0000.0001) %MON thSI_Tsrf_ave_N              =  -2.6117287002810E+01
(PID.TID 0000.0001) %MON thSI_Tsrf_min_S              =  -5.4590400083558E+00
(PID.TID 0000.0001) %MON thSI_Tsrf_min_N              =  -3.2720177049130E+01
(PID.TID 0000.0001) %MON thSI_Tsrf_max_S              =   3.5978755155451E+00
(PID.TID 0000.0001) %MON thSI_Tsrf_max_N              =   6.7993016607368E+00
(PID.TID 0000.0001) %MON thSI_Tic1_ave_G              =  -1.1125010807171E+01
(PID.TID 0000.0001) %MON thSI_Tic1_ave_S              =  -1.0747126633442E+00
(PID.TID 0000.0001) %MON thSI_Tic1_ave_N              =  -1.2883506796088E+01
(PID.TID 0000.0001) %MON thSI_Tic1_min_S              =  -2.5262695664930E+00
(PID.TID 0000.0001) %MON thSI_Tic1_min_N              =  -1.8592333876985E+01
(PID.TID 0000.0001) %MON thSI_Tic1_max_S              =   0.0000000000000E+00
(PID.TID 0000.0001) %MON thSI_Tic1_max_N              =   0.0000000000000E+00
(PID.TID 0000.0001) %MON thSI_Tic2_ave_G              =  -4.7870147937013E+00
(PID.TID 0000.0001) %MON thSI_Tic2_ave_S              =  -1.5334894004106E+00
(PID.TID 0000.0001) %MON thSI_Tic2_ave_N              =  -5.3562826176069E+00
(PID.TID 0000.0001) %MON thSI_Tic2_min_S              =  -2.0046300768587E+00
(PID.TID 0000.0001) %MON thSI_Tic2_min_N              =  -7.9213779261696E+00
(PID.TID 0000.0001) %MON thSI_Tic2_max_S              =   0.0000000000000E+00
(PID.TID 0000.0001) %MON thSI_Tic2_max_N              =   0.0000000000000E+00
(PID.TID 0000.0001) %MON thSI_TotEnerg_G              =  -9.8355028379105E+21
(PID.TID 0000.0001) // =======================================================
(PID.TID 0000.0001) // End MONITOR Therm.SeaIce statistics
(PID.TID 0000.0001) // =======================================================
 EXTERNAL_FIELDS_LOAD,     72008 : iP,iLd,i0,i1=   12    1   12    1 ; Wght=  0.2333333333  0.7666666667
 SEAICE_LSR: Residual Initial ipass,Uice,Vice=         1  6.38050879E-03  2.48896315E-03
 SEAICE_LSR (ipass=        1) iters,dU,Resid=       88  5.03069808E-15  1.41800725E-15
 SEAICE_LSR (ipass=        1) iters,dV,Resid=       88  9.76330128E-13  4.25370058E-13
 SEAICE_LSR: Residual Initial ipass,Uice,Vice=         2  3.23179398E-03  1.30231971E-03
 SEAICE_LSR (ipass=        2) iters,dU,Resid=       86  7.14706072E-15  2.02367783E-15
 SEAICE_LSR (ipass=        2) iters,dV,Resid=       86  9.89347493E-13  4.32142894E-13
 cg2d: Sum(rhs),rhsMax =   2.21807157157926E+03  2.13112053291891E+01
(PID.TID 0000.0001)      cg2d_init_res =   2.44494094103670E+00
(PID.TID 0000.0001)      cg2d_iters(min,last) =      -1      70
(PID.TID 0000.0001)      cg2d_last_res =   4.57651809260419E-07
(PID.TID 0000.0001) // =======================================================
(PID.TID 0000.0001) // Begin MONITOR dynamic field statistics
(PID.TID 0000.0001) // =======================================================
(PID.TID 0000.0001) %MON time_tsnumber                =                 72009
(PID.TID 0000.0001) %MON time_secondsf                =   6.2215776000000E+09
(PID.TID 0000.0001) %MON dynstat_eta_max              =  -2.2133024202671E+00
(PID.TID 0000.0001) %MON dynstat_eta_min              =  -8.3492336514943E+00
(PID.TID 0000.0001) %MON dynstat_eta_mean             =  -3.2990332941439E+00
(PID.TID 0000.0001) %MON dynstat_eta_sd               =   8.7461531392464E-01
(PID.TID 0000.0001) %MON dynstat_eta_del2             =   2.2454020016196E-03
(PID.TID 0000.0001) %MON dynstat_uvel_max             =   2.1449365879270E-01
(PID.TID 0000.0001) %MON dynstat_uvel_min             =  -2.8788862834487E-01
(PID.TID 0000.0001) %MON dynstat_uvel_mean            =  -5.2435737423711E-04
(PID.TID 0000.0001) %MON dynstat_uvel_sd              =   1.4753051617945E-02
(PID.TID 0000.0001) %MON dynstat_uvel_del2            =   6.7814102413695E-05
(PID.TID 0000.0001) %MON dynstat_vvel_max             =   2.1617860024831E-01
(PID.TID 0000.0001) %MON dynstat_vvel_min             =  -2.0111689600802E-01
(PID.TID 0000.0001) %MON dynstat_vvel_mean            =  -3.9405817458757E-04
(PID.TID 0000.0001) %MON dynstat_vvel_sd              =   1.5245804401234E-02
(PID.TID 0000.0001) %MON dynstat_vvel_del2            =   6.2792643897780E-05
(PID.TID 0000.0001) %MON dynstat_wvel_max             =   1.0608384968690E-04
(PID.TID 0000.0001) %MON dynstat_wvel_min             =  -2.1299072191194E-04
(PID.TID 0000.0001) %MON dynstat_wvel_mean            =  -1.0816001451879E-09
(PID.TID 0000.0001) %MON dynstat_wvel_sd              =   5.3527389483302E-06
(PID.TID 0000.0001) %MON dynstat_wvel_del2            =   4.9082785788566E-08
(PID.TID 0000.0001) %MON dynstat_theta_max            =   3.1274224616880E+01
(PID.TID 0000.0001) %MON dynstat_theta_min            =  -6.6568687346495E+00
(PID.TID 0000.0001) %MON dynstat_theta_mean           =   3.0534216990532E+00
(PID.TID 0000.0001) %MON dynstat_theta_sd             =   4.9954121211547E+00
(PID.TID 0000.0001) %MON dynstat_theta_del2           =   2.9865442361557E-03
(PID.TID 0000.0001) %MON dynstat_salt_max             =   5.9555528013184E+01
(PID.TID 0000.0001) %MON dynstat_salt_min             =   1.7775825660938E+01
(PID.TID 0000.0001) %MON dynstat_salt_mean            =   3.4752512946530E+01
(PID.TID 0000.0001) %MON dynstat_salt_sd              =   4.8907598899584E-01
(PID.TID 0000.0001) %MON dynstat_salt_del2            =   1.3675456027454E-03
(PID.TID 0000.0001) %MON forcing_qnet_max             =   6.6851052808425E+02
(PID.TID 0000.0001) %MON forcing_qnet_min             =  -2.5409045277028E+02
(PID.TID 0000.0001) %MON forcing_qnet_mean            =  -1.3363024616390E+01
(PID.TID 0000.0001) %MON forcing_qnet_sd              =   1.2411477886047E+02
(PID.TID 0000.0001) %MON forcing_qnet_del2            =   9.9234954355141E-01
(PID.TID 0000.0001) %MON forcing_qsw_max              =  -0.0000000000000E+00
(PID.TID 0000.0001) %MON forcing_qsw_min              =  -3.0181929764305E+02
(PID.TID 0000.0001) %MON forcing_qsw_mean             =  -1.8352588687397E+02
(PID.TID 0000.0001) %MON forcing_qsw_sd               =   7.9302113617829E+01
(PID.TID 0000.0001) %MON forcing_qsw_del2             =   2.8000919102988E-01
(PID.TID 0000.0001) %MON forcing_empmr_max            =   7.1033224232772E-04
(PID.TID 0000.0001) %MON forcing_empmr_min            =  -4.4221777079926E-04
(PID.TID 0000.0001) %MON forcing_empmr_mean           =   2.2672134198311E-07
(PID.TID 0000.0001) %MON forcing_empmr_sd             =   5.6578764527631E-05
(PID.TID 0000.0001) %MON forcing_empmr_del2           =   1.0899452332576E-06
(PID.TID 0000.0001) %MON forcing_fu_max               =   2.4722174155228E-01
(PID.TID 0000.0001) %MON forcing_fu_min               =  -2.2809828301201E-01
(PID.TID 0000.0001) %MON forcing_fu_mean              =  -4.1147107999884E-03
(PID.TID 0000.0001) %MON forcing_fu_sd                =   6.4215529823538E-02
(PID.TID 0000.0001) %MON forcing_fu_del2              =   2.1921562265674E-04
(PID.TID 0000.0001) %MON forcing_fv_max               =   2.7427691301694E-01
(PID.TID 0000.0001) %MON forcing_fv_min               =  -3.3322315549145E-01
(PID.TID 0000.0001) %MON forcing_fv_mean              =  -1.4017638626868E-02
(PID.TID 0000.0001) %MON forcing_fv_sd                =   7.5268586397619E-02
(PID.TID 0000.0001) %MON forcing_fv_del2              =   2.3600621247894E-04
(PID.TID 0000.0001) %MON trAdv_CFL_u_max              =   8.1192818908491E-02
(PID.TID 0000.0001) %MON trAdv_CFL_v_max              =   8.9370369648468E-02
(PID.TID 0000.0001) %MON trAdv_CFL_w_max              =   7.6830708058391E-02
(PID.TID 0000.0001) %MON advcfl_uvel_max              =   8.5117257918824E-02
(PID.TID 0000.0001) %MON advcfl_vvel_max              =   8.4109665900142E-02
(PID.TID 0000.0001) %MON advcfl_wvel_max              =   6.9443012729025E-02
(PID.TID 0000.0001) %MON advcfl_W_hf_max              =   7.6830708058391E-02
(PID.TID 0000.0001) %MON pe_b_mean                    =   1.4342841946377E-02
(PID.TID 0000.0001) %MON ke_max                       =   4.0775642919559E-02
(PID.TID 0000.0001) %MON ke_mean                      =   2.0801868988429E-04
(PID.TID 0000.0001) %MON ke_vol                       =   1.3386019777875E+18
(PID.TID 0000.0001) %MON vort_r_min                   =  -1.2739429163789E-06
(PID.TID 0000.0001) %MON vort_r_max                   =   1.2760503520532E-06
(PID.TID 0000.0001) %MON vort_a_mean                  =  -2.0549865324846E-05
(PID.TID 0000.0001) %MON vort_a_sd                    =   7.5259722387693E-05
(PID.TID 0000.0001) %MON vort_p_mean                  =  -2.4806330423534E-05
(PID.TID 0000.0001) %MON vort_p_sd                    =   1.2827595423033E-04
(PID.TID 0000.0001) %MON surfExpan_theta_mean         =   4.6240519704646E-08
(PID.TID 0000.0001) %MON surfExpan_salt_mean          =   1.8095187902447E-08
(PID.TID 0000.0001) // =======================================================
(PID.TID 0000.0001) // End MONITOR dynamic field statistics
(PID.TID 0000.0001) // =======================================================
(PID.TID 0000.0001) // =======================================================
(PID.TID 0000.0001) // Begin MONITOR SEAICE statistics
(PID.TID 0000.0001) // =======================================================
(PID.TID 0000.0001) %MON seaice_tsnumber              =                 72009
(PID.TID 0000.0001) %MON seaice_time_sec              =   6.2215776000000E+09
(PID.TID 0000.0001) %MON seaice_uice_max              =   2.7317115869187E-01
(PID.TID 0000.0001) %MON seaice_uice_min              =  -2.8901554012893E-01
(PID.TID 0000.0001) %MON seaice_uice_mean             =  -1.6575113862758E-04
(PID.TID 0000.0001) %MON seaice_uice_sd               =   2.7180992878892E-02
(PID.TID 0000.0001) %MON seaice_uice_del2             =   5.2580636428938E-04
(PID.TID 0000.0001) %MON seaice_vice_max              =   2.8650621201314E-01
(PID.TID 0000.0001) %MON seaice_vice_min              =  -2.0234340406820E-01
(PID.TID 0000.0001) %MON seaice_vice_mean             =   1.1814228580783E-03
(PID.TID 0000.0001) %MON seaice_vice_sd               =   2.2685434457704E-02
(PID.TID 0000.0001) %MON seaice_vice_del2             =   4.5692811736806E-04
(PID.TID 0000.0001) // =======================================================
(PID.TID 0000.0001) // End MONITOR SEAICE statistics
(PID.TID 0000.0001) // =======================================================
(PID.TID 0000.0001) // =======================================================
(PID.TID 0000.0001) // Begin MONITOR Therm.SeaIce statistics
(PID.TID 0000.0001) // =======================================================
(PID.TID 0000.0001) %MON thSI_time_sec                =   6.2215776000000E+09
(PID.TID 0000.0001) %MON thSI_Ice_Area_G              =   1.6410765039739E+13
(PID.TID 0000.0001) %MON thSI_Ice_Area_S              =   3.6567017484826E+12
(PID.TID 0000.0001) %MON thSI_Ice_Area_N              =   1.2754063291256E+13
(PID.TID 0000.0001) %MON thSI_IceH_ave_G              =   1.8378618227567E+00
(PID.TID 0000.0001) %MON thSI_IceH_ave_S              =   1.1914548736983E+00
(PID.TID 0000.0001) %MON thSI_IceH_ave_N              =   2.0231923614936E+00
(PID.TID 0000.0001) %MON thSI_IceH_max_S              =   2.1109333015218E+00
(PID.TID 0000.0001) %MON thSI_IceH_max_N              =   5.2109168783383E+00
(PID.TID 0000.0001) %MON thSI_SnwH_ave_G              =   2.1022288416632E-01
(PID.TID 0000.0001) %MON thSI_SnwH_ave_S              =   1.4291331080988E-01
(PID.TID 0000.0001) %MON thSI_SnwH_ave_N              =   2.2952112888734E-01
(PID.TID 0000.0001) %MON thSI_SnwH_max_S              =   5.4532984630204E-01
(PID.TID 0000.0001) %MON thSI_SnwH_max_N              =   4.4460026449651E-01
(PID.TID 0000.0001) %MON thSI_Tsrf_ave_G              =  -2.0257409660561E+01
(PID.TID 0000.0001) %MON thSI_Tsrf_ave_S              =  -2.5839964404067E-02
(PID.TID 0000.0001) %MON thSI_Tsrf_ave_N              =  -2.6057978043595E+01
(PID.TID 0000.0001) %MON thSI_Tsrf_min_S              =  -5.4459029176115E+00
(PID.TID 0000.0001) %MON thSI_Tsrf_min_N              =  -3.2719235657158E+01
(PID.TID 0000.0001) %MON thSI_Tsrf_max_S              =   3.6432566317233E+00
(PID.TID 0000.0001) %MON thSI_Tsrf_max_N              =   6.7887986805085E+00
(PID.TID 0000.0001) %MON thSI_Tic1_ave_G              =  -1.1175019999125E+01
(PID.TID 0000.0001) %MON thSI_Tic1_ave_S              =  -1.0411372867261E+00
(PID.TID 0000.0001) %MON thSI_Tic1_ave_N              =  -1.2886048590131E+01
(PID.TID 0000.0001) %MON thSI_Tic1_min_S              =  -2.5212677074154E+00
(PID.TID 0000.0001) %MON thSI_Tic1_min_N              =  -1.8623509515129E+01
(PID.TID 0000.0001) %MON thSI_Tic1_max_S              =   0.0000000000000E+00
(PID.TID 0000.0001) %MON thSI_Tic1_max_N              =   0.0000000000000E+00
(PID.TID 0000.0001) %MON thSI_Tic2_ave_G              =  -4.8066609701274E+00
(PID.TID 0000.0001) %MON thSI_Tic2_ave_S              =  -1.5208032224147E+00
(PID.TID 0000.0001) %MON thSI_Tic2_ave_N              =  -5.3614529202488E+00
(PID.TID 0000.0001) %MON thSI_Tic2_min_S              =  -2.0040639061248E+00
(PID.TID 0000.0001) %MON thSI_Tic2_min_N              =  -7.9400835212523E+00
(PID.TID 0000.0001) %MON thSI_Tic2_max_S              =   0.0000000000000E+00
(PID.TID 0000.0001) %MON thSI_Tic2_max_N              =   0.0000000000000E+00
(PID.TID 0000.0001) %MON thSI_TotEnerg_G              =  -9.8298426572543E+21
(PID.TID 0000.0001) // =======================================================
(PID.TID 0000.0001) // End MONITOR Therm.SeaIce statistics
(PID.TID 0000.0001) // =======================================================
 EXTERNAL_FIELDS_LOAD,     72009 : iP,iLd,i0,i1=   12    1   12    1 ; Wght=  0.2000000000  0.8000000000
 SEAICE_LSR: Residual Initial ipass,Uice,Vice=         1  4.38193111E-03  4.48816649E-03
 SEAICE_LSR (ipass=        1) iters,dU,Resid=       88  3.94129174E-15  1.11236776E-15
 SEAICE_LSR (ipass=        1) iters,dV,Resid=       88  8.11725687E-13  3.55209071E-13
 SEAICE_LSR: Residual Initial ipass,Uice,Vice=         2  2.24038137E-03  2.28220628E-03
 SEAICE_LSR (ipass=        2) iters,dU,Resid=       86  5.46784840E-15  1.54073714E-15
 SEAICE_LSR (ipass=        2) iters,dV,Resid=       86  8.30821523E-13  3.63669197E-13
 cg2d: Sum(rhs),rhsMax =   2.21809637281960E+03  2.13093081416209E+01
(PID.TID 0000.0001)      cg2d_init_res =   2.52675359710573E+00
(PID.TID 0000.0001)      cg2d_iters(min,last) =      -1      69
(PID.TID 0000.0001)      cg2d_last_res =   5.40714265253642E-07
(PID.TID 0000.0001) // =======================================================
(PID.TID 0000.0001) // Begin MONITOR dynamic field statistics
(PID.TID 0000.0001) // =======================================================
(PID.TID 0000.0001) %MON time_tsnumber                =                 72010
(PID.TID 0000.0001) %MON time_secondsf                =   6.2216640000000E+09
(PID.TID 0000.0001) %MON dynstat_eta_max              =  -2.2129992185007E+00
(PID.TID 0000.0001) %MON dynstat_eta_min              =  -8.3499023901048E+00
(PID.TID 0000.0001) %MON dynstat_eta_mean             =  -3.2990701820959E+00
(PID.TID 0000.0001) %MON dynstat_eta_sd               =   8.7394819071374E-01
(PID.TID 0000.0001) %MON dynstat_eta_del2             =   2.2323105493802E-03
(PID.TID 0000.0001) %MON dynstat_uvel_max             =   2.1477043485044E-01
(PID.TID 0000.0001) %MON dynstat_uvel_min             =  -2.8742631588701E-01
(PID.TID 0000.0001) %MON dynstat_uvel_mean            =  -5.2390314414121E-04
(PID.TID 0000.0001) %MON dynstat_uvel_sd              =   1.4748990188592E-02
(PID.TID 0000.0001) %MON dynstat_uvel_del2            =   6.7774494395921E-05
(PID.TID 0000.0001) %MON dynstat_vvel_max             =   2.1538642352964E-01
(PID.TID 0000.0001) %MON dynstat_vvel_min             =  -2.0114856611338E-01
(PID.TID 0000.0001) %MON dynstat_vvel_mean            =  -3.9328202377350E-04
(PID.TID 0000.0001) %MON dynstat_vvel_sd              =   1.5244710218188E-02
(PID.TID 0000.0001) %MON dynstat_vvel_del2            =   6.2749866975646E-05
(PID.TID 0000.0001) %MON dynstat_wvel_max             =   1.0669850437628E-04
(PID.TID 0000.0001) %MON dynstat_wvel_min             =  -2.1269525974030E-04
(PID.TID 0000.0001) %MON dynstat_wvel_mean            =  -1.0251540057756E-09
(PID.TID 0000.0001) %MON dynstat_wvel_sd              =   5.3517605526724E-06
(PID.TID 0000.0001) %MON dynstat_wvel_del2            =   4.9021476101912E-08
(PID.TID 0000.0001) %MON dynstat_theta_max            =   3.1280707164846E+01
(PID.TID 0000.0001) %MON dynstat_theta_min            =  -6.6576840480428E+00
(PID.TID 0000.0001) %MON dynstat_theta_mean           =   3.0534972698428E+00
(PID.TID 0000.0001) %MON dynstat_theta_sd             =   4.9954827090581E+00
(PID.TID 0000.0001) %MON dynstat_theta_del2           =   2.9884879169442E-03
(PID.TID 0000.0001) %MON dynstat_salt_max             =   5.9557011451450E+01
(PID.TID 0000.0001) %MON dynstat_salt_min             =   1.7775801059108E+01
(PID.TID 0000.0001) %MON dynstat_salt_mean            =   3.4752513301328E+01
(PID.TID 0000.0001) %MON dynstat_salt_sd              =   4.8906681294360E-01
(PID.TID 0000.0001) %MON dynstat_salt_del2            =   1.3679253453680E-03
(PID.TID 0000.0001) %MON forcing_qnet_max             =   6.7015489218069E+02
(PID.TID 0000.0001) %MON forcing_qnet_min             =  -2.5408488100967E+02
(PID.TID 0000.0001) %MON forcing_qnet_mean            =  -1.3302217363548E+01
(PID.TID 0000.0001) %MON forcing_qnet_sd              =   1.2421488961249E+02
(PID.TID 0000.0001) %MON forcing_qnet_del2            =   1.0185278765351E+00
(PID.TID 0000.0001) %MON forcing_qsw_max              =  -0.0000000000000E+00
(PID.TID 0000.0001) %MON forcing_qsw_min              =  -3.0180730070724E+02
(PID.TID 0000.0001) %MON forcing_qsw_mean             =  -1.8361038216431E+02
(PID.TID 0000.0001) %MON forcing_qsw_sd               =   7.9225533348227E+01
(PID.TID 0000.0001) %MON forcing_qsw_del2             =   2.7517601417212E-01
(PID.TID 0000.0001) %MON forcing_empmr_max            =   1.0649170262383E-03
(PID.TID 0000.0001) %MON forcing_empmr_min            =  -5.5715603278522E-04
(PID.TID 0000.0001) %MON forcing_empmr_mean           =   4.4188692479390E-07
(PID.TID 0000.0001) %MON forcing_empmr_sd             =   5.8189253776312E-05
(PID.TID 0000.0001) %MON forcing_empmr_del2           =   1.2270207637473E-06
(PID.TID 0000.0001) %MON forcing_fu_max               =   2.4734156444157E-01
(PID.TID 0000.0001) %MON forcing_fu_min               =  -2.3124407967036E-01
(PID.TID 0000.0001) %MON forcing_fu_mean              =  -4.0775131274376E-03
(PID.TID 0000.0001) %MON forcing_fu_sd                =   6.4328781810313E-02
(PID.TID 0000.0001) %MON forcing_fu_del2              =   2.2089698154996E-04
(PID.TID 0000.0001) %MON forcing_fv_max               =   2.7696015458957E-01
(PID.TID 0000.0001) %MON forcing_fv_min               =  -3.3401105942538E-01
(PID.TID 0000.0001) %MON forcing_fv_mean              =  -1.4028435447548E-02
(PID.TID 0000.0001) %MON forcing_fv_sd                =   7.5381279753962E-02
(PID.TID 0000.0001) %MON forcing_fv_del2              =   2.3721984621948E-04
(PID.TID 0000.0001) %MON trAdv_CFL_u_max              =   8.1062434898537E-02
(PID.TID 0000.0001) %MON trAdv_CFL_v_max              =   8.9356256325379E-02
(PID.TID 0000.0001) %MON trAdv_CFL_w_max              =   7.6724692645188E-02
(PID.TID 0000.0001) %MON advcfl_uvel_max              =   8.5227090625419E-02
(PID.TID 0000.0001) %MON advcfl_vvel_max              =   8.4096462480610E-02
(PID.TID 0000.0001) %MON advcfl_wvel_max              =   6.9346680911555E-02
(PID.TID 0000.0001) %MON advcfl_W_hf_max              =   7.6724692645188E-02
(PID.TID 0000.0001) %MON pe_b_mean                    =   1.4342520428085E-02
(PID.TID 0000.0001) %MON ke_max                       =   4.0630080364020E-02
(PID.TID 0000.0001) %MON ke_mean                      =   2.0794767504850E-04
(PID.TID 0000.0001) %MON ke_vol                       =   1.3386019709004E+18
(PID.TID 0000.0001) %MON vort_r_min                   =  -1.2800874889540E-06
(PID.TID 0000.0001) %MON vort_r_max                   =   1.2736504596024E-06
(PID.TID 0000.0001) %MON vort_a_mean                  =  -2.0549865324846E-05
(PID.TID 0000.0001) %MON vort_a_sd                    =   7.5259722214116E-05
(PID.TID 0000.0001) %MON vort_p_mean                  =  -2.4806330168320E-05
(PID.TID 0000.0001) %MON vort_p_sd                    =   1.2827595972582E-04
(PID.TID 0000.0001) %MON surfExpan_theta_mean         =   4.7090720519127E-08
(PID.TID 0000.0001) %MON surfExpan_salt_mean          =   1.8387198702858E-08
(PID.TID 0000.0001) // =======================================================
(PID.TID 0000.0001) // End MONITOR dynamic field statistics
(PID.TID 0000.0001) // =======================================================
(PID.TID 0000.0001) // =======================================================
(PID.TID 0000.0001) // Begin MONITOR SEAICE statistics
(PID.TID 0000.0001) // =======================================================
(PID.TID 0000.0001) %MON seaice_tsnumber              =                 72010
(PID.TID 0000.0001) %MON seaice_time_sec              =   6.2216640000000E+09
(PID.TID 0000.0001) %MON seaice_uice_max              =   2.7300138311414E-01
(PID.TID 0000.0001) %MON seaice_uice_min              =  -2.8649270298696E-01
(PID.TID 0000.0001) %MON seaice_uice_mean             =  -1.5294443279822E-04
(PID.TID 0000.0001) %MON seaice_uice_sd               =   2.7339214247462E-02
(PID.TID 0000.0001) %MON seaice_uice_del2             =   5.2078689352735E-04
(PID.TID 0000.0001) %MON seaice_vice_max              =   2.8098293937043E-01
(PID.TID 0000.0001) %MON seaice_vice_min              =  -2.0963047431159E-01
(PID.TID 0000.0001) %MON seaice_vice_mean             =   1.2191547551417E-03
(PID.TID 0000.0001) %MON seaice_vice_sd               =   2.2100838078680E-02
(PID.TID 0000.0001) %MON seaice_vice_del2             =   4.5334855401760E-04
(PID.TID 0000.0001) // =======================================================
(PID.TID 0000.0001) // End MONITOR SEAICE statistics
(PID.TID 0000.0001) // =======================================================
(PID.TID 0000.0001) // =======================================================
(PID.TID 0000.0001) // Begin MONITOR Therm.SeaIce statistics
(PID.TID 0000.0001) // =======================================================
(PID.TID 0000.0001) %MON thSI_time_sec                =   6.2216640000000E+09
(PID.TID 0000.0001) %MON thSI_Ice_Area_G              =   1.6384104709064E+13
(PID.TID 0000.0001) %MON thSI_Ice_Area_S              =   3.5582972255990E+12
(PID.TID 0000.0001) %MON thSI_Ice_Area_N              =   1.2825807483465E+13
(PID.TID 0000.0001) %MON thSI_IceH_ave_G              =   1.8402599861180E+00
(PID.TID 0000.0001) %MON thSI_IceH_ave_S              =   1.1875440009586E+00
(PID.TID 0000.0001) %MON thSI_IceH_ave_N              =   2.0213446844570E+00
(PID.TID 0000.0001) %MON thSI_IceH_max_S              =   2.1091247891877E+00
(PID.TID 0000.0001) %MON thSI_IceH_max_N              =   5.2121276557982E+00
(PID.TID 0000.0001) %MON thSI_SnwH_ave_G              =   2.1005262552201E-01
(PID.TID 0000.0001) %MON thSI_SnwH_ave_S              =   1.3568079105755E-01
(PID.TID 0000.0001) %MON thSI_SnwH_ave_N              =   2.3068579755261E-01
(PID.TID 0000.0001) %MON thSI_SnwH_max_S              =   5.3863868352900E-01
(PID.TID 0000.0001) %MON thSI_SnwH_max_N              =   4.4837409835378E-01
(PID.TID 0000.0001) %MON thSI_Tsrf_ave_G              =  -2.0410492295091E+01
(PID.TID 0000.0001) %MON thSI_Tsrf_ave_S              =  -2.2629055104135E-02
(PID.TID 0000.0001) %MON thSI_Tsrf_ave_N              =  -2.6066750374457E+01
(PID.TID 0000.0001) %MON thSI_Tsrf_min_S              =  -5.4218068501009E+00
(PID.TID 0000.0001) %MON thSI_Tsrf_min_N              =  -3.2718377128968E+01
(PID.TID 0000.0001) %MON thSI_Tsrf_max_S              =   3.6888557527142E+00
(PID.TID 0000.0001) %MON thSI_Tsrf_max_N              =   6.7787836590324E+00
(PID.TID 0000.0001) %MON thSI_Tic1_ave_G              =  -1.1223826490808E+01
(PID.TID 0000.0001) %MON thSI_Tic1_ave_S              =  -1.0081857996377E+00
(PID.TID 0000.0001) %MON thSI_Tic1_ave_N              =  -1.2888896305937E+01
(PID.TID 0000.0001) %MON thSI_Tic1_min_S              =  -2.5162700851003E+00
(PID.TID 0000.0001) %MON thSI_Tic1_min_N              =  -1.8678313791351E+01
(PID.TID 0000.0001) %MON thSI_Tic1_max_S              =   0.0000000000000E+00
(PID.TID 0000.0001) %MON thSI_Tic1_max_N              =   0.0000000000000E+00
(PID.TID 0000.0001) %MON thSI_Tic2_ave_G              =  -4.8241301640431E+00
(PID.TID 0000.0001) %MON thSI_Tic2_ave_S              =  -1.4998958444421E+00
(PID.TID 0000.0001) %MON thSI_Tic2_ave_N              =  -5.3659544500879E+00
(PID.TID 0000.0001) %MON thSI_Tic2_min_S              =  -2.0042688110949E+00
(PID.TID 0000.0001) %MON thSI_Tic2_min_N              =  -7.9564346143703E+00
(PID.TID 0000.0001) %MON thSI_Tic2_max_S              =   0.0000000000000E+00
(PID.TID 0000.0001) %MON thSI_Tic2_max_N              =   0.0000000000000E+00
(PID.TID 0000.0001) %MON thSI_TotEnerg_G              =  -9.8258379936933E+21
(PID.TID 0000.0001) // =======================================================
(PID.TID 0000.0001) // End MONITOR Therm.SeaIce statistics
(PID.TID 0000.0001) // =======================================================
 Compute Stats, Diag. #     23  ETAN      vol(   0 ): 3.639E+15  Parms: SM      M1      
 Compute Stats, Diag. #     30  UVEL      vol(   0 ): 1.230E+19  Parms: UUR     MR      
 Compute Stats, Diag. #     31  VVEL      vol(   0 ): 1.242E+19  Parms: VVR     MR      
 Compute Stats, Diag. #     32  WVEL      vol(   0 ): 1.315E+19  Parms: WM      LR      
 Compute Stats, Diag. #     26  THETA     vol(   0 ): 1.339E+19  Parms: SMR     MR      
 Compute Stats, Diag. #     27  SALT      vol(   0 ): 1.339E+19  Parms: SMR     MR      
 Compute Stats, Diag. #     80  CONVADJ   vol(   0 ): 1.315E+19  Parms: SMR     LR      
 Compute Stats, Diag. #     25  DETADT2   vol(   0 ): 3.639E+15  Parms: SM      M1      
 Compute Stats, Diag. #    324  SI_Fract  vol(   0 ): 3.639E+15  Parms: SM P    M1      
 Compute Stats, Diag. #    324  SI_Fract  vol(   1 ): 1.289E+15  Parms: SM P    M1      
 Compute Stats, Diag. #    324  SI_Fract  vol(   3 ): 7.935E+14  Parms: SM P    M1      
 Compute Stats, Diag. #    325  SI_Thick  vol(   0 ): 1.678E+14  Parms: SM PC   M1      
    use Counter Mate  #    324  SI_Fract  vol(   0 ): 3.639E+15 integral 1.678E+14
 Compute Stats, Diag. #    325  SI_Thick  vol(   1 ): 4.327E+13  Parms: SM PC   M1      
    use Counter Mate  #    324  SI_Fract  vol(   1 ): 1.289E+15 integral 4.327E+13
 Compute Stats, Diag. #    325  SI_Thick  vol(   3 ): 1.246E+14  Parms: SM PC   M1      
    use Counter Mate  #    324  SI_Fract  vol(   3 ): 7.935E+14 integral 1.246E+14
 Compute Stats, Diag. #    326  SI_SnowH  vol(   0 ): 1.678E+14  Parms: SM PC   M1      
    use Counter Mate  #    324  SI_Fract  vol(   0 ): 3.639E+15 integral 1.678E+14
 Compute Stats, Diag. #    326  SI_SnowH  vol(   1 ): 4.327E+13  Parms: SM PC   M1      
    use Counter Mate  #    324  SI_Fract  vol(   1 ): 1.289E+15 integral 4.327E+13
 Compute Stats, Diag. #    326  SI_SnowH  vol(   3 ): 1.246E+14  Parms: SM PC   M1      
    use Counter Mate  #    324  SI_Fract  vol(   3 ): 7.935E+14 integral 1.246E+14
 Compute Stats, Diag. #    327  SI_Tsrf   vol(   0 ): 1.678E+14  Parms: SM  C   M1      
    use Counter Mate  #    324  SI_Fract  vol(   0 ): 3.639E+15 integral 1.678E+14
 Compute Stats, Diag. #    327  SI_Tsrf   vol(   1 ): 4.327E+13  Parms: SM  C   M1      
    use Counter Mate  #    324  SI_Fract  vol(   1 ): 1.289E+15 integral 4.327E+13
 Compute Stats, Diag. #    327  SI_Tsrf   vol(   3 ): 1.246E+14  Parms: SM  C   M1      
    use Counter Mate  #    324  SI_Fract  vol(   3 ): 7.935E+14 integral 1.246E+14
 Compute Stats, Diag. #    328  SI_Tice1  vol(   0 ): 1.678E+14  Parms: SM  C   M1      
    use Counter Mate  #    324  SI_Fract  vol(   0 ): 3.639E+15 integral 1.678E+14
 Compute Stats, Diag. #    328  SI_Tice1  vol(   1 ): 4.327E+13  Parms: SM  C   M1      
    use Counter Mate  #    324  SI_Fract  vol(   1 ): 1.289E+15 integral 4.327E+13
 Compute Stats, Diag. #    328  SI_Tice1  vol(   3 ): 1.246E+14  Parms: SM  C   M1      
    use Counter Mate  #    324  SI_Fract  vol(   3 ): 7.935E+14 integral 1.246E+14
 Compute Stats, Diag. #    329  SI_Tice2  vol(   0 ): 1.678E+14  Parms: SM  C   M1      
    use Counter Mate  #    324  SI_Fract  vol(   0 ): 3.639E+15 integral 1.678E+14
 Compute Stats, Diag. #    329  SI_Tice2  vol(   1 ): 4.327E+13  Parms: SM  C   M1      
    use Counter Mate  #    324  SI_Fract  vol(   1 ): 1.289E+15 integral 4.327E+13
 Compute Stats, Diag. #    329  SI_Tice2  vol(   3 ): 1.246E+14  Parms: SM  C   M1      
    use Counter Mate  #    324  SI_Fract  vol(   3 ): 7.935E+14 integral 1.246E+14
 Compute Stats, Diag. #    330  SI_Qice1  vol(   0 ): 3.033E+14  Parms: SM  C   M1      
    use Counter Mate  #    325  SI_Thick  vol(   0 ): 1.678E+14 integral 3.033E+14
 Compute Stats, Diag. #    330  SI_Qice1  vol(   1 ): 5.086E+13  Parms: SM  C   M1      
    use Counter Mate  #    325  SI_Thick  vol(   1 ): 4.327E+13 integral 5.086E+13
 Compute Stats, Diag. #    330  SI_Qice1  vol(   3 ): 2.525E+14  Parms: SM  C   M1      
    use Counter Mate  #    325  SI_Thick  vol(   3 ): 1.246E+14 integral 2.525E+14
 Compute Stats, Diag. #    331  SI_Qice2  vol(   0 ): 3.033E+14  Parms: SM  C   M1      
    use Counter Mate  #    325  SI_Thick  vol(   0 ): 1.678E+14 integral 3.033E+14
 Compute Stats, Diag. #    331  SI_Qice2  vol(   1 ): 5.086E+13  Parms: SM  C   M1      
    use Counter Mate  #    325  SI_Thick  vol(   1 ): 4.327E+13 integral 5.086E+13
 Compute Stats, Diag. #    331  SI_Qice2  vol(   3 ): 2.525E+14  Parms: SM  C   M1      
    use Counter Mate  #    325  SI_Thick  vol(   3 ): 1.246E+14 integral 2.525E+14
 Compute Stats, Diag. #    334  SIsnwPrc  vol(   0 ): 1.678E+14  Parms: SM  C   M1      
    use Counter Mate  #    324  SI_Fract  vol(   0 ): 3.639E+15 integral 1.678E+14
 Compute Stats, Diag. #    334  SIsnwPrc  vol(   1 ): 4.327E+13  Parms: SM  C   M1      
    use Counter Mate  #    324  SI_Fract  vol(   1 ): 1.289E+15 integral 4.327E+13
 Compute Stats, Diag. #    334  SIsnwPrc  vol(   3 ): 1.246E+14  Parms: SM  C   M1      
    use Counter Mate  #    324  SI_Fract  vol(   3 ): 7.935E+14 integral 1.246E+14
 Compute Stats, Diag. #    333  SIalbedo  vol(   0 ): 1.678E+14  Parms: SM PC   M1      
    use Counter Mate  #    324  SI_Fract  vol(   0 ): 3.639E+15 integral 1.678E+14
 Compute Stats, Diag. #    333  SIalbedo  vol(   1 ): 4.327E+13  Parms: SM PC   M1      
    use Counter Mate  #    324  SI_Fract  vol(   1 ): 1.289E+15 integral 4.327E+13
 Compute Stats, Diag. #    333  SIalbedo  vol(   3 ): 1.246E+14  Parms: SM PC   M1      
    use Counter Mate  #    324  SI_Fract  vol(   3 ): 7.935E+14 integral 1.246E+14
 Compute Stats, Diag. #    332  SIsnwAge  vol(   0 ): 3.639E+15  Parms: SM P    M1      
 Compute Stats, Diag. #    332  SIsnwAge  vol(   1 ): 1.289E+15  Parms: SM P    M1      
 Compute Stats, Diag. #    332  SIsnwAge  vol(   3 ): 7.935E+14  Parms: SM P    M1      
 Compute Stats, Diag. #    337  SIflx2oc  vol(   0 ): 3.639E+15  Parms: SM      M1      
 Compute Stats, Diag. #    337  SIflx2oc  vol(   1 ): 1.289E+15  Parms: SM      M1      
 Compute Stats, Diag. #    337  SIflx2oc  vol(   3 ): 7.935E+14  Parms: SM      M1      
 Compute Stats, Diag. #    338  SIfrw2oc  vol(   0 ): 3.639E+15  Parms: SM      M1      
 Compute Stats, Diag. #    338  SIfrw2oc  vol(   1 ): 1.289E+15  Parms: SM      M1      
 Compute Stats, Diag. #    338  SIfrw2oc  vol(   3 ): 7.935E+14  Parms: SM      M1      
 Compute Stats, Diag. #    339  SIsaltFx  vol(   0 ): 3.639E+15  Parms: SM      M1      
 Compute Stats, Diag. #    339  SIsaltFx  vol(   1 ): 1.289E+15  Parms: SM      M1      
 Compute Stats, Diag. #    339  SIsaltFx  vol(   3 ): 7.935E+14  Parms: SM      M1      
 Compute Stats, Diag. #    335  SIflxAtm  vol(   0 ): 3.639E+15  Parms: SM      M1      
 Compute Stats, Diag. #    335  SIflxAtm  vol(   1 ): 1.289E+15  Parms: SM      M1      
 Compute Stats, Diag. #    335  SIflxAtm  vol(   3 ): 7.935E+14  Parms: SM      M1      
 Compute Stats, Diag. #    336  SIfrwAtm  vol(   0 ): 3.639E+15  Parms: SM      M1      
 Compute Stats, Diag. #    336  SIfrwAtm  vol(   1 ): 1.289E+15  Parms: SM      M1      
 Compute Stats, Diag. #    336  SIfrwAtm  vol(   3 ): 7.935E+14  Parms: SM      M1      
(PID.TID 0000.0001) DIAGSTATS_CLOSE_IO: close file: dynStDiag.0000072000.txt , unit=     9
(PID.TID 0000.0001) DIAGSTATS_CLOSE_IO: close file: thSIceStDiag.0000072000.txt , unit=    10
(PID.TID 0000.0001) %CHECKPOINT     72010 ckptA
(PID.TID 0000.0001)   Seconds in section "ALL                    [THE_MODEL_MAIN]":
(PID.TID 0000.0001)           User time:   20.739774184068665
(PID.TID 0000.0001)         System time:  0.27654700446873903
(PID.TID 0000.0001)     Wall clock time:   21.390118122100830
(PID.TID 0000.0001)          No. starts:           1
(PID.TID 0000.0001)           No. stops:           1
(PID.TID 0000.0001)   Seconds in section "INITIALISE_FIXED       [THE_MODEL_MAIN]":
(PID.TID 0000.0001)           User time:  0.22063599876128137
(PID.TID 0000.0001)         System time:   6.5079003572463989E-002
(PID.TID 0000.0001)     Wall clock time:  0.34124112129211426
(PID.TID 0000.0001)          No. starts:           1
(PID.TID 0000.0001)           No. stops:           1
(PID.TID 0000.0001)   Seconds in section "THE_MAIN_LOOP          [THE_MODEL_MAIN]":
(PID.TID 0000.0001)           User time:   20.519106552004814
(PID.TID 0000.0001)         System time:  0.21143600344657898
(PID.TID 0000.0001)     Wall clock time:   21.048832893371582
(PID.TID 0000.0001)          No. starts:           1
(PID.TID 0000.0001)           No. stops:           1
(PID.TID 0000.0001)   Seconds in section "INITIALISE_VARIA    [THE_MAIN_LOOP]":
(PID.TID 0000.0001)           User time:  0.52850897610187531
(PID.TID 0000.0001)         System time:  0.13500700891017914
(PID.TID 0000.0001)     Wall clock time:  0.79303693771362305
(PID.TID 0000.0001)          No. starts:           1
(PID.TID 0000.0001)           No. stops:           1
(PID.TID 0000.0001)   Seconds in section "MAIN LOOP           [THE_MAIN_LOOP]":
(PID.TID 0000.0001)           User time:   19.990572810173035
(PID.TID 0000.0001)         System time:   7.6424002647399902E-002
(PID.TID 0000.0001)     Wall clock time:   20.255767107009888
(PID.TID 0000.0001)          No. starts:           1
(PID.TID 0000.0001)           No. stops:           1
(PID.TID 0000.0001)   Seconds in section "MAIN_DO_LOOP        [THE_MAIN_LOOP]":
(PID.TID 0000.0001)           User time:   19.990477740764618
(PID.TID 0000.0001)         System time:   7.6419994235038757E-002
(PID.TID 0000.0001)     Wall clock time:   20.255667924880981
(PID.TID 0000.0001)          No. starts:          10
(PID.TID 0000.0001)           No. stops:          10
(PID.TID 0000.0001)   Seconds in section "FORWARD_STEP        [MAIN_DO_LOOP]":
(PID.TID 0000.0001)           User time:   19.990325450897217
(PID.TID 0000.0001)         System time:   7.6417014002799988E-002
(PID.TID 0000.0001)     Wall clock time:   20.255512714385986
(PID.TID 0000.0001)          No. starts:          10
(PID.TID 0000.0001)           No. stops:          10
(PID.TID 0000.0001)   Seconds in section "DO_STATEVARS_DIAGS  [FORWARD_STEP]":
(PID.TID 0000.0001)           User time:  0.36847639083862305
(PID.TID 0000.0001)         System time:   6.4897537231445312E-004
(PID.TID 0000.0001)     Wall clock time:  0.36919379234313965
(PID.TID 0000.0001)          No. starts:          30
(PID.TID 0000.0001)           No. stops:          30
(PID.TID 0000.0001)   Seconds in section "LOAD_FIELDS_DRIVER  [FORWARD_STEP]":
(PID.TID 0000.0001)           User time:  0.20384466648101807
(PID.TID 0000.0001)         System time:   1.1837989091873169E-002
(PID.TID 0000.0001)     Wall clock time:  0.38724637031555176
(PID.TID 0000.0001)          No. starts:          10
(PID.TID 0000.0001)           No. stops:          10
(PID.TID 0000.0001)   Seconds in section "EXF_GETFORCING     [LOAD_FLDS_DRIVER]":
(PID.TID 0000.0001)           User time:  0.19423955678939819
(PID.TID 0000.0001)         System time:   1.1455982923507690E-002
(PID.TID 0000.0001)     Wall clock time:  0.37727952003479004
(PID.TID 0000.0001)          No. starts:          10
(PID.TID 0000.0001)           No. stops:          10
(PID.TID 0000.0001)   Seconds in section "EXTERNAL_FLDS_LOAD [LOAD_FLDS_DRIVER]":
(PID.TID 0000.0001)           User time:   9.2908143997192383E-003
(PID.TID 0000.0001)         System time:   3.6197900772094727E-004
(PID.TID 0000.0001)     Wall clock time:   9.6645355224609375E-003
(PID.TID 0000.0001)          No. starts:          10
(PID.TID 0000.0001)           No. stops:          10
(PID.TID 0000.0001)   Seconds in section "DO_ATMOSPHERIC_PHYS [FORWARD_STEP]":
(PID.TID 0000.0001)           User time:   1.0442733764648438E-004
(PID.TID 0000.0001)         System time:   1.1995434761047363E-005
(PID.TID 0000.0001)     Wall clock time:   1.1682510375976562E-004
(PID.TID 0000.0001)          No. starts:          10
(PID.TID 0000.0001)           No. stops:          10
(PID.TID 0000.0001)   Seconds in section "DO_OCEANIC_PHYS     [FORWARD_STEP]":
(PID.TID 0000.0001)           User time:   8.4526141881942749
(PID.TID 0000.0001)         System time:   1.4349982142448425E-002
(PID.TID 0000.0001)     Wall clock time:   8.4772031307220459
(PID.TID 0000.0001)          No. starts:          10
(PID.TID 0000.0001)           No. stops:          10
(PID.TID 0000.0001)   Seconds in section "THSICE_MAIN     [DO_OCEANIC_PHYS]":
(PID.TID 0000.0001)           User time:  0.11841207742691040
(PID.TID 0000.0001)         System time:   3.8399994373321533E-003
(PID.TID 0000.0001)     Wall clock time:  0.12228822708129883
(PID.TID 0000.0001)          No. starts:          10
(PID.TID 0000.0001)           No. stops:          10
(PID.TID 0000.0001)   Seconds in section "SEAICE_MODEL    [DO_OCEANIC_PHYS]":
(PID.TID 0000.0001)           User time:   6.7738521099090576
(PID.TID 0000.0001)         System time:   9.9049806594848633E-003
(PID.TID 0000.0001)     Wall clock time:   6.7898442745208740
(PID.TID 0000.0001)          No. starts:          10
(PID.TID 0000.0001)           No. stops:          10
(PID.TID 0000.0001)   Seconds in section "SEAICE_DYNSOLVER   [SEAICE_MODEL]":
(PID.TID 0000.0001)           User time:   6.5011222362518311
(PID.TID 0000.0001)         System time:   9.3300044536590576E-003
(PID.TID 0000.0001)     Wall clock time:   6.5165517330169678
(PID.TID 0000.0001)          No. starts:          10
(PID.TID 0000.0001)           No. stops:          10
(PID.TID 0000.0001)   Seconds in section "DYNAMICS            [FORWARD_STEP]":
(PID.TID 0000.0001)           User time:   3.8169205188751221
(PID.TID 0000.0001)         System time:   8.4440261125564575E-003
(PID.TID 0000.0001)     Wall clock time:   3.8256833553314209
(PID.TID 0000.0001)          No. starts:          10
(PID.TID 0000.0001)           No. stops:          10
(PID.TID 0000.0001)   Seconds in section "UPDATE_R_STAR       [FORWARD_STEP]":
(PID.TID 0000.0001)           User time:  0.23579144477844238
(PID.TID 0000.0001)         System time:   1.6604363918304443E-004
(PID.TID 0000.0001)     Wall clock time:  0.23599624633789062
(PID.TID 0000.0001)          No. starts:          10
(PID.TID 0000.0001)           No. stops:          10
(PID.TID 0000.0001)   Seconds in section "UPDATE_CG2D         [FORWARD_STEP]":
(PID.TID 0000.0001)           User time:   8.7896347045898438E-002
(PID.TID 0000.0001)         System time:   1.4501810073852539E-004
(PID.TID 0000.0001)     Wall clock time:   8.8066816329956055E-002
(PID.TID 0000.0001)          No. starts:          10
(PID.TID 0000.0001)           No. stops:          10
(PID.TID 0000.0001)   Seconds in section "SOLVE_FOR_PRESSURE  [FORWARD_STEP]":
(PID.TID 0000.0001)           User time:   1.2864346504211426
(PID.TID 0000.0001)         System time:   3.0203163623809814E-004
(PID.TID 0000.0001)     Wall clock time:   1.2868256568908691
(PID.TID 0000.0001)          No. starts:          10
(PID.TID 0000.0001)           No. stops:          10
(PID.TID 0000.0001)   Seconds in section "MOM_CORRECTION_STEP [FORWARD_STEP]":
(PID.TID 0000.0001)           User time:  0.13862538337707520
(PID.TID 0000.0001)         System time:   1.0401010513305664E-004
(PID.TID 0000.0001)     Wall clock time:  0.13877654075622559
(PID.TID 0000.0001)          No. starts:          10
(PID.TID 0000.0001)           No. stops:          10
(PID.TID 0000.0001)   Seconds in section "INTEGR_CONTINUITY   [FORWARD_STEP]":
(PID.TID 0000.0001)           User time:  0.24441266059875488
(PID.TID 0000.0001)         System time:   1.2010335922241211E-005
(PID.TID 0000.0001)     Wall clock time:  0.24447917938232422
(PID.TID 0000.0001)          No. starts:          10
(PID.TID 0000.0001)           No. stops:          10
(PID.TID 0000.0001)   Seconds in section "CALC_R_STAR         [FORWARD_STEP]":
(PID.TID 0000.0001)           User time:   4.3968677520751953E-002
(PID.TID 0000.0001)         System time:   1.7017126083374023E-005
(PID.TID 0000.0001)     Wall clock time:   4.4008731842041016E-002
(PID.TID 0000.0001)          No. starts:          10
(PID.TID 0000.0001)           No. stops:          10
(PID.TID 0000.0001)   Seconds in section "BLOCKING_EXCHANGES  [FORWARD_STEP]":
(PID.TID 0000.0001)           User time:  0.23433804512023926
(PID.TID 0000.0001)         System time:   1.9100308418273926E-004
(PID.TID 0000.0001)     Wall clock time:  0.23459839820861816
(PID.TID 0000.0001)          No. starts:          20
(PID.TID 0000.0001)           No. stops:          20
(PID.TID 0000.0001)   Seconds in section "THERMODYNAMICS      [FORWARD_STEP]":
(PID.TID 0000.0001)           User time:   3.6108202934265137
(PID.TID 0000.0001)         System time:   2.0055979490280151E-002
(PID.TID 0000.0001)     Wall clock time:   3.6312208175659180
(PID.TID 0000.0001)          No. starts:          10
(PID.TID 0000.0001)           No. stops:          10
(PID.TID 0000.0001)   Seconds in section "TRC_CORRECTION_STEP [FORWARD_STEP]":
(PID.TID 0000.0001)           User time:   1.0824203491210938E-004
(PID.TID 0000.0001)         System time:   2.0265579223632812E-006
(PID.TID 0000.0001)     Wall clock time:   1.0776519775390625E-004
(PID.TID 0000.0001)          No. starts:          10
(PID.TID 0000.0001)           No. stops:          10
(PID.TID 0000.0001)   Seconds in section "DO_STATEVARS_TAVE   [FORWARD_STEP]":
(PID.TID 0000.0001)           User time:   9.0122222900390625E-005
(PID.TID 0000.0001)         System time:   1.0132789611816406E-006
(PID.TID 0000.0001)     Wall clock time:   9.1075897216796875E-005
(PID.TID 0000.0001)          No. starts:          10
(PID.TID 0000.0001)           No. stops:          10
(PID.TID 0000.0001)   Seconds in section "MONITOR             [FORWARD_STEP]":
(PID.TID 0000.0001)           User time:   1.1354582309722900
(PID.TID 0000.0001)         System time:   4.0810108184814453E-003
(PID.TID 0000.0001)     Wall clock time:   1.1457626819610596
(PID.TID 0000.0001)          No. starts:          10
(PID.TID 0000.0001)           No. stops:          10
(PID.TID 0000.0001)   Seconds in section "DO_THE_MODEL_IO     [FORWARD_STEP]":
(PID.TID 0000.0001)           User time:   8.0958843231201172E-002
(PID.TID 0000.0001)         System time:   8.0020129680633545E-003
(PID.TID 0000.0001)     Wall clock time:   8.8977575302124023E-002
(PID.TID 0000.0001)          No. starts:          10
(PID.TID 0000.0001)           No. stops:          10
(PID.TID 0000.0001)   Seconds in section "DO_WRITE_PICKUP     [FORWARD_STEP]":
(PID.TID 0000.0001)           User time:   4.7005653381347656E-002
(PID.TID 0000.0001)         System time:   7.9790055751800537E-003
(PID.TID 0000.0001)     Wall clock time:   5.4995775222778320E-002
(PID.TID 0000.0001)          No. starts:          10
(PID.TID 0000.0001)           No. stops:          10
(PID.TID 0000.0001) // ======================================================
(PID.TID 0000.0001) // Tile <-> Tile communication statistics
(PID.TID 0000.0001) // ======================================================
(PID.TID 0000.0001) // o Tile number: 000001
(PID.TID 0000.0001) //         No. X exchanges =              0
(PID.TID 0000.0001) //            Max. X spins =              0
(PID.TID 0000.0001) //            Min. X spins =     1000000000
(PID.TID 0000.0001) //          Total. X spins =              0
(PID.TID 0000.0001) //            Avg. X spins =       0.00E+00
(PID.TID 0000.0001) //         No. Y exchanges =              0
(PID.TID 0000.0001) //            Max. Y spins =              0
(PID.TID 0000.0001) //            Min. Y spins =     1000000000
(PID.TID 0000.0001) //          Total. Y spins =              0
(PID.TID 0000.0001) //            Avg. Y spins =       0.00E+00
(PID.TID 0000.0001) // o Tile number: 000002
(PID.TID 0000.0001) //         No. X exchanges =              0
(PID.TID 0000.0001) //            Max. X spins =              0
(PID.TID 0000.0001) //            Min. X spins =     1000000000
(PID.TID 0000.0001) //          Total. X spins =              0
(PID.TID 0000.0001) //            Avg. X spins =       0.00E+00
(PID.TID 0000.0001) //         No. Y exchanges =              0
(PID.TID 0000.0001) //            Max. Y spins =              0
(PID.TID 0000.0001) //            Min. Y spins =     1000000000
(PID.TID 0000.0001) //          Total. Y spins =              0
(PID.TID 0000.0001) //            Avg. Y spins =       0.00E+00
(PID.TID 0000.0001) // o Tile number: 000003
(PID.TID 0000.0001) //         No. X exchanges =              0
(PID.TID 0000.0001) //            Max. X spins =              0
(PID.TID 0000.0001) //            Min. X spins =     1000000000
(PID.TID 0000.0001) //          Total. X spins =              0
(PID.TID 0000.0001) //            Avg. X spins =       0.00E+00
(PID.TID 0000.0001) //         No. Y exchanges =              0
(PID.TID 0000.0001) //            Max. Y spins =              0
(PID.TID 0000.0001) //            Min. Y spins =     1000000000
(PID.TID 0000.0001) //          Total. Y spins =              0
(PID.TID 0000.0001) //            Avg. Y spins =       0.00E+00
(PID.TID 0000.0001) // o Tile number: 000004
(PID.TID 0000.0001) //         No. X exchanges =              0
(PID.TID 0000.0001) //            Max. X spins =              0
(PID.TID 0000.0001) //            Min. X spins =     1000000000
(PID.TID 0000.0001) //          Total. X spins =              0
(PID.TID 0000.0001) //            Avg. X spins =       0.00E+00
(PID.TID 0000.0001) //         No. Y exchanges =              0
(PID.TID 0000.0001) //            Max. Y spins =              0
(PID.TID 0000.0001) //            Min. Y spins =     1000000000
(PID.TID 0000.0001) //          Total. Y spins =              0
(PID.TID 0000.0001) //            Avg. Y spins =       0.00E+00
(PID.TID 0000.0001) // o Tile number: 000005
(PID.TID 0000.0001) //         No. X exchanges =              0
(PID.TID 0000.0001) //            Max. X spins =              0
(PID.TID 0000.0001) //            Min. X spins =     1000000000
(PID.TID 0000.0001) //          Total. X spins =              0
(PID.TID 0000.0001) //            Avg. X spins =       0.00E+00
(PID.TID 0000.0001) //         No. Y exchanges =              0
(PID.TID 0000.0001) //            Max. Y spins =              0
(PID.TID 0000.0001) //            Min. Y spins =     1000000000
(PID.TID 0000.0001) //          Total. Y spins =              0
(PID.TID 0000.0001) //            Avg. Y spins =       0.00E+00
(PID.TID 0000.0001) // o Tile number: 000006
(PID.TID 0000.0001) //         No. X exchanges =              0
(PID.TID 0000.0001) //            Max. X spins =              0
(PID.TID 0000.0001) //            Min. X spins =     1000000000
(PID.TID 0000.0001) //          Total. X spins =              0
(PID.TID 0000.0001) //            Avg. X spins =       0.00E+00
(PID.TID 0000.0001) //         No. Y exchanges =              0
(PID.TID 0000.0001) //            Max. Y spins =              0
(PID.TID 0000.0001) //            Min. Y spins =     1000000000
(PID.TID 0000.0001) //          Total. Y spins =              0
(PID.TID 0000.0001) //            Avg. Y spins =       0.00E+00
(PID.TID 0000.0001) // o Tile number: 000007
(PID.TID 0000.0001) //         No. X exchanges =              0
(PID.TID 0000.0001) //            Max. X spins =              0
(PID.TID 0000.0001) //            Min. X spins =     1000000000
(PID.TID 0000.0001) //          Total. X spins =              0
(PID.TID 0000.0001) //            Avg. X spins =       0.00E+00
(PID.TID 0000.0001) //         No. Y exchanges =              0
(PID.TID 0000.0001) //            Max. Y spins =              0
(PID.TID 0000.0001) //            Min. Y spins =     1000000000
(PID.TID 0000.0001) //          Total. Y spins =              0
(PID.TID 0000.0001) //            Avg. Y spins =       0.00E+00
(PID.TID 0000.0001) // o Tile number: 000008
(PID.TID 0000.0001) //         No. X exchanges =              0
(PID.TID 0000.0001) //            Max. X spins =              0
(PID.TID 0000.0001) //            Min. X spins =     1000000000
(PID.TID 0000.0001) //          Total. X spins =              0
(PID.TID 0000.0001) //            Avg. X spins =       0.00E+00
(PID.TID 0000.0001) //         No. Y exchanges =              0
(PID.TID 0000.0001) //            Max. Y spins =              0
(PID.TID 0000.0001) //            Min. Y spins =     1000000000
(PID.TID 0000.0001) //          Total. Y spins =              0
(PID.TID 0000.0001) //            Avg. Y spins =       0.00E+00
(PID.TID 0000.0001) // o Tile number: 000009
(PID.TID 0000.0001) //         No. X exchanges =              0
(PID.TID 0000.0001) //            Max. X spins =              0
(PID.TID 0000.0001) //            Min. X spins =     1000000000
(PID.TID 0000.0001) //          Total. X spins =              0
(PID.TID 0000.0001) //            Avg. X spins =       0.00E+00
(PID.TID 0000.0001) //         No. Y exchanges =              0
(PID.TID 0000.0001) //            Max. Y spins =              0
(PID.TID 0000.0001) //            Min. Y spins =     1000000000
(PID.TID 0000.0001) //          Total. Y spins =              0
(PID.TID 0000.0001) //            Avg. Y spins =       0.00E+00
(PID.TID 0000.0001) // o Tile number: 000010
(PID.TID 0000.0001) //         No. X exchanges =              0
(PID.TID 0000.0001) //            Max. X spins =              0
(PID.TID 0000.0001) //            Min. X spins =     1000000000
(PID.TID 0000.0001) //          Total. X spins =              0
(PID.TID 0000.0001) //            Avg. X spins =       0.00E+00
(PID.TID 0000.0001) //         No. Y exchanges =              0
(PID.TID 0000.0001) //            Max. Y spins =              0
(PID.TID 0000.0001) //            Min. Y spins =     1000000000
(PID.TID 0000.0001) //          Total. Y spins =              0
(PID.TID 0000.0001) //            Avg. Y spins =       0.00E+00
(PID.TID 0000.0001) // o Tile number: 000011
(PID.TID 0000.0001) //         No. X exchanges =              0
(PID.TID 0000.0001) //            Max. X spins =              0
(PID.TID 0000.0001) //            Min. X spins =     1000000000
(PID.TID 0000.0001) //          Total. X spins =              0
(PID.TID 0000.0001) //            Avg. X spins =       0.00E+00
(PID.TID 0000.0001) //         No. Y exchanges =              0
(PID.TID 0000.0001) //            Max. Y spins =              0
(PID.TID 0000.0001) //            Min. Y spins =     1000000000
(PID.TID 0000.0001) //          Total. Y spins =              0
(PID.TID 0000.0001) //            Avg. Y spins =       0.00E+00
(PID.TID 0000.0001) // o Tile number: 000012
(PID.TID 0000.0001) //         No. X exchanges =              0
(PID.TID 0000.0001) //            Max. X spins =              0
(PID.TID 0000.0001) //            Min. X spins =     1000000000
(PID.TID 0000.0001) //          Total. X spins =              0
(PID.TID 0000.0001) //            Avg. X spins =       0.00E+00
(PID.TID 0000.0001) //         No. Y exchanges =              0
(PID.TID 0000.0001) //            Max. Y spins =              0
(PID.TID 0000.0001) //            Min. Y spins =     1000000000
(PID.TID 0000.0001) //          Total. Y spins =              0
(PID.TID 0000.0001) //            Avg. Y spins =       0.00E+00
(PID.TID 0000.0001) // o Thread number: 000001
(PID.TID 0000.0001) //            No. barriers =          25686
(PID.TID 0000.0001) //      Max. barrier spins =              1
(PID.TID 0000.0001) //      Min. barrier spins =              1
(PID.TID 0000.0001) //     Total barrier spins =          25686
(PID.TID 0000.0001) //      Avg. barrier spins =       1.00E+00
PROGRAM MAIN: Execution ended Normally
