(PID.TID 0000.0001) 
(PID.TID 0000.0001) // ======================================================
(PID.TID 0000.0001) //                      MITgcm UV
(PID.TID 0000.0001) //                      =========
(PID.TID 0000.0001) // ======================================================
(PID.TID 0000.0001) // execution environment starting up...
(PID.TID 0000.0001) 
(PID.TID 0000.0001) // MITgcmUV version:  checkpoint63f
(PID.TID 0000.0001) // Build user:        jmc
(PID.TID 0000.0001) // Build host:        baudelaire
(PID.TID 0000.0001) // Build date:        Thu Dec  1 04:55:47 EST 2011
(PID.TID 0000.0001) 
(PID.TID 0000.0001) // =======================================================
(PID.TID 0000.0001) // Execution Environment parameter file "eedata"
(PID.TID 0000.0001) // =======================================================
(PID.TID 0000.0001) ># Example "eedata" file
(PID.TID 0000.0001) ># Lines beginning "#" are comments
(PID.TID 0000.0001) ># nTx - No. threads per process in X
(PID.TID 0000.0001) ># nTy - No. threads per process in Y
(PID.TID 0000.0001) > &EEPARMS
(PID.TID 0000.0001) > useCubedSphereExchange=.TRUE.,
(PID.TID 0000.0001) > nTx=1,
(PID.TID 0000.0001) > nTy=1,
(PID.TID 0000.0001) > /
(PID.TID 0000.0001) ># Note: Some systems use & as the
(PID.TID 0000.0001) ># namelist terminator. Other systems
(PID.TID 0000.0001) ># use a / character (as shown here).
(PID.TID 0000.0001) 
(PID.TID 0000.0001) // =======================================================
(PID.TID 0000.0001) // Computational Grid Specification ( see files "SIZE.h" )
(PID.TID 0000.0001) //                                  ( and "eedata"       )
(PID.TID 0000.0001) // =======================================================
(PID.TID 0000.0001)      nPx =    1 ; /* No. processes in X */
(PID.TID 0000.0001)      nPy =    1 ; /* No. processes in Y */
(PID.TID 0000.0001)      nSx =   12 ; /* No. tiles in X per process */
(PID.TID 0000.0001)      nSy =    1 ; /* No. tiles in Y per process */
(PID.TID 0000.0001)      sNx =   32 ; /* Tile size in X */
(PID.TID 0000.0001)      sNy =   16 ; /* Tile size in Y */
(PID.TID 0000.0001)      OLx =    4 ; /* Tile overlap distance in X */
(PID.TID 0000.0001)      OLy =    4 ; /* Tile overlap distance in Y */
(PID.TID 0000.0001)      nTx =    1 ; /* No. threads in X per process */
(PID.TID 0000.0001)      nTy =    1 ; /* No. threads in Y per process */
(PID.TID 0000.0001)       Nr =   15 ; /* No. levels in the vertical   */
(PID.TID 0000.0001)       Nx =  384 ; /* Total domain size in X ( = nPx*nSx*sNx ) */
(PID.TID 0000.0001)       Ny =   16 ; /* Total domain size in Y ( = nPy*nSy*sNy ) */
(PID.TID 0000.0001)   nTiles =   12 ; /* Total no. tiles per process ( = nSx*nSy ) */
(PID.TID 0000.0001)   nProcs =    1 ; /* Total no. processes ( = nPx*nPy ) */
(PID.TID 0000.0001) nThreads =    1 ; /* Total no. threads per process ( = nTx*nTy ) */
(PID.TID 0000.0001) usingMPI =    F ; /* Flag used to control whether MPI is in use */
(PID.TID 0000.0001)                   /*  note: To execute a program with MPI calls */
(PID.TID 0000.0001)                   /*  it must be launched appropriately e.g     */
(PID.TID 0000.0001)                   /*  "mpirun -np 64 ......"                    */
(PID.TID 0000.0001) useCoupler=    F ;/* Flag used to control communications with   */
(PID.TID 0000.0001)                   /*  other model components, through a coupler */
(PID.TID 0000.0001) debugMode =    F ; /* print debug msg. (sequence of S/R calls)  */
(PID.TID 0000.0001) printMapIncludesZeros=    F ; /* print zeros in Std.Output maps */
(PID.TID 0000.0001) maxLengthPrt1D=   65 /* maxLength of 1D array printed to StdOut */
(PID.TID 0000.0001) 
(PID.TID 0000.0001) // ======================================================
(PID.TID 0000.0001) // Mapping of tiles to threads
(PID.TID 0000.0001) // ======================================================
(PID.TID 0000.0001) // -o- Thread   1, tiles (   1:  12,   1:   1)
(PID.TID 0000.0001) 
(PID.TID 0000.0001) W2_READPARMS: file data.exch2 not found
(PID.TID 0000.0001) => use W2_EXCH2 default: regular 6-facets Cube
(PID.TID 0000.0001) W2_useE2ioLayOut=    T ;/* T: use Exch2 glob IO map; F: use model default */
(PID.TID 0000.0001) W2_mapIO        =  -1 ; /* select option for Exch2 global-IO map */
(PID.TID 0000.0001) W2_printMsg     =  -1 ; /* select option for printing information */
(PID.TID 0000.0001) ===== Start setting W2 TOPOLOGY:
(PID.TID 0000.0001)  write to log-file: w2_tile_topology.0000.log
(PID.TID 0000.0001) =====       setting W2 TOPOLOGY: Done
(PID.TID 0000.0001) 
(PID.TID 0000.0001)  INI_PARMS: opening model parameter file "data"
(PID.TID 0000.0001)  OPEN_COPY_DATA_FILE: opening file data
(PID.TID 0000.0001) // =======================================================
(PID.TID 0000.0001) // Parameter file "data"
(PID.TID 0000.0001) // =======================================================
(PID.TID 0000.0001) ># ====================
(PID.TID 0000.0001) ># | Model parameters |
(PID.TID 0000.0001) ># ====================
(PID.TID 0000.0001) >#
(PID.TID 0000.0001) ># Continuous equation parameters
(PID.TID 0000.0001) > &PARM01
(PID.TID 0000.0001) > tRef=15*20.,
(PID.TID 0000.0001) > sRef=15*35.,
(PID.TID 0000.0001) > viscAh =3.E5,
(PID.TID 0000.0001) >#- biharmonic Viscosity: 3.e15 is close to the stability limit with deltaTmom=20mn
(PID.TID 0000.0001) >#viscA4 =3.E15,
(PID.TID 0000.0001) > viscAr =1.E-3,
(PID.TID 0000.0001) > diffKhT=0.,
(PID.TID 0000.0001) > diffK4T=0.,
(PID.TID 0000.0001) > diffKrT=3.E-5,
(PID.TID 0000.0001) > diffKhS=0.,
(PID.TID 0000.0001) > diffK4S=0.,
(PID.TID 0000.0001) > diffKrS=3.E-5,
(PID.TID 0000.0001) > ivdc_kappa=10.,
(PID.TID 0000.0001) > implicitDiffusion=.TRUE.,
(PID.TID 0000.0001) > gravity=9.81,
(PID.TID 0000.0001) > rhonil=1035.,
(PID.TID 0000.0001) > rhoConstFresh=1000.,
(PID.TID 0000.0001) > eosType='JMD95Z',
(PID.TID 0000.0001) > staggerTimeStep=.TRUE.,
(PID.TID 0000.0001) > vectorInvariantMomentum=.TRUE.,
(PID.TID 0000.0001) > implicitFreeSurface=.TRUE.,
(PID.TID 0000.0001) > exactConserv=.TRUE.,
(PID.TID 0000.0001) > select_rStar=2,
(PID.TID 0000.0001) > nonlinFreeSurf=4,
(PID.TID 0000.0001) > hFacInf=0.2,
(PID.TID 0000.0001) > hFacSup=2.0,
(PID.TID 0000.0001) > useRealFreshWaterFlux=.TRUE.,
(PID.TID 0000.0001) > allowFreezing=.TRUE.,
(PID.TID 0000.0001) > hFacMin=.1,
(PID.TID 0000.0001) > hFacMinDr=20.,
(PID.TID 0000.0001) > readBinaryPrec=64,
(PID.TID 0000.0001) > useSingleCpuIO=.TRUE.,
(PID.TID 0000.0001) > /
(PID.TID 0000.0001) >
(PID.TID 0000.0001) ># Elliptic solver parameters
(PID.TID 0000.0001) > &PARM02
(PID.TID 0000.0001) > cg2dMaxIters=200,
(PID.TID 0000.0001) >#cg2dTargetResidual=1.E-9,
(PID.TID 0000.0001) > cg2dTargetResWunit=1.E-14,
(PID.TID 0000.0001) > /
(PID.TID 0000.0001) >
(PID.TID 0000.0001) ># Time stepping parameters
(PID.TID 0000.0001) > &PARM03
(PID.TID 0000.0001) > nIter0=72000,
(PID.TID 0000.0001) > nTimeSteps=20,
(PID.TID 0000.0001) > deltaTmom   =1200.,
(PID.TID 0000.0001) > deltaTtracer=86400.,
(PID.TID 0000.0001) > deltaTfreesurf=86400.,
(PID.TID 0000.0001) > deltaTClock =86400.,
(PID.TID 0000.0001) > abEps = 0.1,
(PID.TID 0000.0001) >#forcing_In_AB=.FALSE.,
(PID.TID 0000.0001) > tracForcingOutAB=1,
(PID.TID 0000.0001) > pChkptFreq  =1728000.,
(PID.TID 0000.0001) >#chkptFreq   =311040000.,
(PID.TID 0000.0001) > taveFreq    =1244160000.,
(PID.TID 0000.0001) > dumpFreq    =622080000.,
(PID.TID 0000.0001) > monitorFreq =31104000.,
(PID.TID 0000.0001) > periodicExternalForcing=.TRUE.,
(PID.TID 0000.0001) > externForcingPeriod=2592000.,
(PID.TID 0000.0001) > externForcingCycle=31104000.,
(PID.TID 0000.0001) ># 2 months restoring timescale for temperature
(PID.TID 0000.0001) > tauThetaClimRelax = 5184000.,
(PID.TID 0000.0001) ># 2yrs restoring timescale for salinity
(PID.TID 0000.0001) > tauSaltClimRelax = 62208000.,
(PID.TID 0000.0001) > monitorFreq =1.,
(PID.TID 0000.0001) > /
(PID.TID 0000.0001) >
(PID.TID 0000.0001) ># Gridding parameters
(PID.TID 0000.0001) > &PARM04
(PID.TID 0000.0001) > usingCurvilinearGrid=.TRUE.,
(PID.TID 0000.0001) > horizGridFile='grid_cs32',
(PID.TID 0000.0001) > delR= 50., 70., 100., 140., 190.,
(PID.TID 0000.0001) >       240., 290., 340., 390., 440.,
(PID.TID 0000.0001) >       490., 540., 590., 640., 690.,
(PID.TID 0000.0001) > /
(PID.TID 0000.0001) >
(PID.TID 0000.0001) ># Input datasets
(PID.TID 0000.0001) > &PARM05
(PID.TID 0000.0001) > bathyFile      ='bathy_Hmin50.bin',
(PID.TID 0000.0001) > hydrogThetaFile='lev_T_cs_15k.bin',
(PID.TID 0000.0001) > hydrogSaltFile ='lev_S_cs_15k.bin',
(PID.TID 0000.0001) > zonalWindFile  ='trenberth_taux.bin',
(PID.TID 0000.0001) > meridWindFile  ='trenberth_tauy.bin',
(PID.TID 0000.0001) > thetaClimFile  ='lev_surfT_cs_12m.bin',
(PID.TID 0000.0001) > saltClimFile   ='lev_surfS_cs_12m.bin',
(PID.TID 0000.0001) > surfQFile      ='shiQnet_cs32.bin',
(PID.TID 0000.0001) > EmPmRFile      ='shiEmPR_cs32.bin',
(PID.TID 0000.0001) > /
(PID.TID 0000.0001) 
(PID.TID 0000.0001)  INI_PARMS ; starts to read PARM01
(PID.TID 0000.0001)  INI_PARMS ; read PARM01 : OK
(PID.TID 0000.0001)  INI_PARMS ; starts to read PARM02
(PID.TID 0000.0001)  INI_PARMS ; read PARM02 : OK
(PID.TID 0000.0001)  INI_PARMS ; starts to read PARM03
(PID.TID 0000.0001)  INI_PARMS ; read PARM03 : OK
(PID.TID 0000.0001)  INI_PARMS ; starts to read PARM04
(PID.TID 0000.0001)  INI_PARMS ; read PARM04 : OK
(PID.TID 0000.0001)  INI_PARMS ; starts to read PARM05
(PID.TID 0000.0001)  INI_PARMS ; read PARM05 : OK
(PID.TID 0000.0001)  INI_PARMS: finished reading file "data"
(PID.TID 0000.0001)  PACKAGES_BOOT: opening data.pkg
(PID.TID 0000.0001)  OPEN_COPY_DATA_FILE: opening file data.pkg
(PID.TID 0000.0001) // =======================================================
(PID.TID 0000.0001) // Parameter file "data.pkg"
(PID.TID 0000.0001) // =======================================================
(PID.TID 0000.0001) ># Packages
(PID.TID 0000.0001) > &PACKAGES
(PID.TID 0000.0001) > useGMRedi=.TRUE.,
(PID.TID 0000.0001) > useDiagnostics=.TRUE.,
(PID.TID 0000.0001) > useMNC=.TRUE.,
(PID.TID 0000.0001) > /
(PID.TID 0000.0001) 
(PID.TID 0000.0001)  PACKAGES_BOOT: finished reading data.pkg
(PID.TID 0000.0001)  MNC_READPARMS: opening file 'data.mnc'
(PID.TID 0000.0001)  OPEN_COPY_DATA_FILE: opening file data.mnc
(PID.TID 0000.0001) // =======================================================
(PID.TID 0000.0001) // Parameter file "data.mnc"
(PID.TID 0000.0001) // =======================================================
(PID.TID 0000.0001) ># Example "data.mnc" file
(PID.TID 0000.0001) ># Lines beginning "#" are comments
(PID.TID 0000.0001) > &MNC_01
(PID.TID 0000.0001) ># mnc_echo_gvtypes=.FALSE.,
(PID.TID 0000.0001) ># mnc_use_indir=.FALSE.,
(PID.TID 0000.0001) > mnc_use_outdir=.TRUE.,
(PID.TID 0000.0001) > mnc_outdir_str='mnc_test_',
(PID.TID 0000.0001) >#mnc_outdir_date=.TRUE.,
(PID.TID 0000.0001) > monitor_mnc=.FALSE.,
(PID.TID 0000.0001) >#timeave_mnc=.FALSE.,
(PID.TID 0000.0001) >#snapshot_mnc=.FALSE.,
(PID.TID 0000.0001) > pickup_read_mnc=.FALSE.,
(PID.TID 0000.0001) > pickup_write_mnc=.FALSE.,
(PID.TID 0000.0001) > /
(PID.TID 0000.0001) 
(PID.TID 0000.0001)  MNC_READPARMS: finished reading data.mnc
(PID.TID 0000.0001)  GM_READPARMS: opening data.gmredi
(PID.TID 0000.0001)  OPEN_COPY_DATA_FILE: opening file data.gmredi
(PID.TID 0000.0001) // =======================================================
(PID.TID 0000.0001) // Parameter file "data.gmredi"
(PID.TID 0000.0001) // =======================================================
(PID.TID 0000.0001) ># GM+Redi package parameters:
(PID.TID 0000.0001) >
(PID.TID 0000.0001) >#-from MOM :
(PID.TID 0000.0001) ># GM_background_K: 	G & Mc.W  diffusion coefficient
(PID.TID 0000.0001) ># GM_maxSlope    :	max slope of isopycnals
(PID.TID 0000.0001) ># GM_Scrit       :	transition for scaling diffusion coefficient
(PID.TID 0000.0001) ># GM_Sd          :	half width scaling for diffusion coefficient
(PID.TID 0000.0001) ># GM_taper_scheme:	slope clipping or one of the tapering schemes
(PID.TID 0000.0001) ># GM_Kmin_horiz  :	horizontal diffusion minimum value
(PID.TID 0000.0001) >
(PID.TID 0000.0001) >#-Option parameters (needs to "define" options in GMREDI_OPTIONS.h")
(PID.TID 0000.0001) ># GM_isopycK     :	isopycnal diffusion coefficient (default=GM_background_K)
(PID.TID 0000.0001) ># GM_AdvForm     :	turn on GM Advective form       (default=Skew flux form)
(PID.TID 0000.0001) >
(PID.TID 0000.0001) > &GM_PARM01
(PID.TID 0000.0001) >  GM_background_K    = 800.,
(PID.TID 0000.0001) >  GM_AdvForm         = .TRUE.,
(PID.TID 0000.0001) ># GM_background_K    = 10.,
(PID.TID 0000.0001) ># GM_Visbeck_alpha   = 1.e-2,
(PID.TID 0000.0001) >  GM_Visbeck_length  = 2.e+5,
(PID.TID 0000.0001) >  GM_Visbeck_depth   = 1.e+3,
(PID.TID 0000.0001) >  GM_Visbeck_maxval_K= 2.5e+3,
(PID.TID 0000.0001) >  GM_taper_scheme    = 'gkw91',
(PID.TID 0000.0001) ># GM_Small_Number    = 1.e-18,
(PID.TID 0000.0001) >  GM_maxSlope        = 1.e-2,
(PID.TID 0000.0001) >  GM_Kmin_horiz      = 50.,
(PID.TID 0000.0001) >  GM_Scrit           = 4.e-3,
(PID.TID 0000.0001) >  GM_Sd              = 1.e-3,
(PID.TID 0000.0001) > /
(PID.TID 0000.0001) >
(PID.TID 0000.0001) 
(PID.TID 0000.0001)  GM_READPARMS: finished reading data.gmredi
(PID.TID 0000.0001)  DIAGNOSTICS_READPARMS: opening data.diagnostics
(PID.TID 0000.0001)  OPEN_COPY_DATA_FILE: opening file data.diagnostics
(PID.TID 0000.0001) // =======================================================
(PID.TID 0000.0001) // Parameter file "data.diagnostics"
(PID.TID 0000.0001) // =======================================================
(PID.TID 0000.0001) ># Diagnostic Package Choices
(PID.TID 0000.0001) >#--------------------
(PID.TID 0000.0001) >#  dumpAtLast (logical): always write output at the end of simulation (default=F)
(PID.TID 0000.0001) >#  diag_mnc   (logical): write to NetCDF files (default=useMNC)
(PID.TID 0000.0001) >#--for each output-stream:
(PID.TID 0000.0001) >#  fileName(n) : prefix of the output file name (max 80c long) for outp.stream n
(PID.TID 0000.0001) >#  frequency(n):< 0 : write snap-shot output every |frequency| seconds
(PID.TID 0000.0001) >#               > 0 : write time-average output every frequency seconds
(PID.TID 0000.0001) >#  timePhase(n)     : write at time = timePhase + multiple of |frequency|
(PID.TID 0000.0001) >#    averagingFreq  : frequency (in s) for periodic averaging interval
(PID.TID 0000.0001) >#    averagingPhase : phase     (in s) for periodic averaging interval
(PID.TID 0000.0001) >#    repeatCycle    : number of averaging intervals in 1 cycle
(PID.TID 0000.0001) >#  levels(:,n) : list of levels to write to file (Notes: declared as REAL)
(PID.TID 0000.0001) >#                when this entry is missing, select all common levels of this list
(PID.TID 0000.0001) >#  fields(:,n) : list of selected diagnostics fields (8.c) in outp.stream n
(PID.TID 0000.0001) >#                (see "available_diagnostics.log" file for the full list of diags)
(PID.TID 0000.0001) >#  missing_value(n) : missing value for real-type fields in output file "n"
(PID.TID 0000.0001) >#  fileFlags(n)     : specific code (8c string) for output file "n"
(PID.TID 0000.0001) >#--------------------
(PID.TID 0000.0001) > &DIAGNOSTICS_LIST
(PID.TID 0000.0001) ># diag_mnc     = .FALSE.,
(PID.TID 0000.0001) >#--
(PID.TID 0000.0001) >  fields(1:12,1) = 'ETAN    ','ETANSQ  ','DETADT2 ','PHIBOT  ','PHIBOTSQ',
(PID.TID 0000.0001) >                   'oceTAUX ','oceTAUY ','TFLUX   ','SFLUX   ','oceFreez',
(PID.TID 0000.0001) >                   'TRELAX  ','SRELAX  ',
(PID.TID 0000.0001) >   levels(1,1) = 1.,
(PID.TID 0000.0001) >#  fileName(1) = 'surfDiag',
(PID.TID 0000.0001) >  frequency(1) =  864000.,
(PID.TID 0000.0001) >
(PID.TID 0000.0001) >  fields(1:15,2) = 'UVEL    ','VVEL    ','WVEL    ','PHIHYD  ',
(PID.TID 0000.0001) >                   'VVELMASS','UVELMASS','WVELSQ  ',
(PID.TID 0000.0001) >                   'THETA   ','UTHMASS ','VTHMASS ','WTHMASS ',
(PID.TID 0000.0001) >                   'SALT    ','USLTMASS','VSLTMASS','WSLTMASS',
(PID.TID 0000.0001) ># do not specify levels => all levels are selected
(PID.TID 0000.0001) >#  fileName(2) = 'dynDiag',
(PID.TID 0000.0001) >  frequency(2) = 1728000.,
(PID.TID 0000.0001) >
(PID.TID 0000.0001) >  fields(1:8,3) =  'DRHODR  ','RHOAnoma','CONVADJ ',
(PID.TID 0000.0001) >                   'GM_Kwx  ','GM_Kwy  ','GM_Kwz  ',
(PID.TID 0000.0001) >                   'GM_PsiX ','GM_PsiY ',
(PID.TID 0000.0001) >#  levels(1,3) = 2., 3., 4., 5., 6., 7., 8., 9., 10., 11., 12., 13.,
(PID.TID 0000.0001) >   fileName(3) = 'oceDiag',
(PID.TID 0000.0001) >  frequency(3) = 864000.,
(PID.TID 0000.0001) >
(PID.TID 0000.0001) >  fields(1:7,4) =  'ADVx_TH ','ADVy_TH ','ADVr_TH ',
(PID.TID 0000.0001) >                   'DFxE_TH ','DFyE_TH ','DFrE_TH ',
(PID.TID 0000.0001) >                   'DFrI_TH ',
(PID.TID 0000.0001) >#                  'ADVx_SLT',
(PID.TID 0000.0001) >#  fileName(4) = 'flxDiag',
(PID.TID 0000.0001) >  frequency(4) = 1728000.,
(PID.TID 0000.0001) > /
(PID.TID 0000.0001) >
(PID.TID 0000.0001) >#--------------------
(PID.TID 0000.0001) ># Parameter for Diagnostics of per level statistics:
(PID.TID 0000.0001) >#--------------------
(PID.TID 0000.0001) >#  diagSt_mnc (logical): write stat-diags to NetCDF files (default=diag_mnc)
(PID.TID 0000.0001) >#  diagSt_regMaskFile : file containing the region-mask to read-in
(PID.TID 0000.0001) >#  nSetRegMskFile   : number of region-mask sets within the region-mask file
(PID.TID 0000.0001) >#  set_regMask(i)   : region-mask set-index that identifies the region "i"
(PID.TID 0000.0001) >#  val_regMask(i)   : region "i" identifier value in the region mask
(PID.TID 0000.0001) >#--for each output-stream:
(PID.TID 0000.0001) >#  stat_fName(n) : prefix of the output file name (max 80c long) for outp.stream n
(PID.TID 0000.0001) >#  stat_freq(n):< 0 : write snap-shot output every |stat_freq| seconds
(PID.TID 0000.0001) >#               > 0 : write time-average output every stat_freq seconds
(PID.TID 0000.0001) >#  stat_phase(n)    : write at time = stat_phase + multiple of |stat_freq|
(PID.TID 0000.0001) >#  stat_region(:,n) : list of "regions" (default: 1 region only=global)
(PID.TID 0000.0001) >#  stat_fields(:,n) : list of selected diagnostics fields (8.c) in outp.stream n
(PID.TID 0000.0001) >#                (see "available_diagnostics.log" file for the full list of diags)
(PID.TID 0000.0001) >#--------------------
(PID.TID 0000.0001) > &DIAG_STATIS_PARMS
(PID.TID 0000.0001) ># an example just to check the agreement with MONITOR output:
(PID.TID 0000.0001) > stat_fields(1:5,1)  = 'ETAN    ','UVEL    ','VVEL    ','WVEL    ', 'THETA   ',
(PID.TID 0000.0001) >  stat_fName(1) = 'dynStDiag',
(PID.TID 0000.0001) >   stat_freq(1) = -864000.,
(PID.TID 0000.0001) ># stat_phase(1) = 0.,
(PID.TID 0000.0001) > /
(PID.TID 0000.0001) >
(PID.TID 0000.0001) 
(PID.TID 0000.0001) S/R DIAGNOSTICS_READPARMS, read namelist "diagnostics_list": start
(PID.TID 0000.0001) S/R DIAGNOSTICS_READPARMS, read namelist "diagnostics_list": OK
(PID.TID 0000.0001) S/R DIAGNOSTICS_READPARMS, read namelist "DIAG_STATIS_PARMS": start
(PID.TID 0000.0001) S/R DIAGNOSTICS_READPARMS, read namelist "DIAG_STATIS_PARMS": OK
(PID.TID 0000.0001)  DIAGNOSTICS_READPARMS: global parameter summary:
(PID.TID 0000.0001)  dumpAtLast = /* always write time-ave diags at the end */
(PID.TID 0000.0001)                   F
(PID.TID 0000.0001)     ;
(PID.TID 0000.0001)  diag_mnc =   /* write NetCDF output files */
(PID.TID 0000.0001)                   T
(PID.TID 0000.0001)     ;
(PID.TID 0000.0001)  useMissingValue = /* put MissingValue where mask = 0 */
(PID.TID 0000.0001)                   F
(PID.TID 0000.0001)     ;
(PID.TID 0000.0001)  diagCG_maxIters = /* max number of iters in diag_cg2d */
(PID.TID 0000.0001)                     200
(PID.TID 0000.0001)     ;
(PID.TID 0000.0001)  diagCG_resTarget = /* residual target for diag_cg2d */
(PID.TID 0000.0001)                 1.000000000000000E-07
(PID.TID 0000.0001)     ;
(PID.TID 0000.0001) -----------------------------------------------------
(PID.TID 0000.0001)  DIAGNOSTICS_READPARMS: active diagnostics summary:
(PID.TID 0000.0001) -----------------------------------------------------
(PID.TID 0000.0001) Creating Output Stream: oceDiag
(PID.TID 0000.0001) Output Frequency:     864000.000000 ; Phase:           0.000000
(PID.TID 0000.0001)  Averaging Freq.:     864000.000000 , Phase:           0.000000 , Cycle:   1
(PID.TID 0000.0001)  missing value:  1.234567000000E+05 ; for integers:   123456789
(PID.TID 0000.0001)  Levels:    will be set later
(PID.TID 0000.0001)  Fields:    DRHODR   RHOAnoma CONVADJ  GM_Kwx   GM_Kwy   GM_Kwz   GM_PsiX  GM_PsiY
(PID.TID 0000.0001) -----------------------------------------------------
(PID.TID 0000.0001)  DIAGNOSTICS_READPARMS: statistics diags. summary:
(PID.TID 0000.0001) Creating Stats. Output Stream: dynStDiag
(PID.TID 0000.0001) Output Frequency:    -864000.000000 ; Phase:      432000.000000
(PID.TID 0000.0001)  Regions:   0
(PID.TID 0000.0001)  Fields:    ETAN     UVEL     VVEL     WVEL     THETA
(PID.TID 0000.0001) -----------------------------------------------------
(PID.TID 0000.0001) 
(PID.TID 0000.0001) SET_PARMS: done
(PID.TID 0000.0001) Enter INI_VERTICAL_GRID: setInterFDr=    T ; setCenterDr=    F
(PID.TID 0000.0001) tile:   1 ; Read from file grid_cs32.face001.bin
(PID.TID 0000.0001)   => xC yC dxF dyF rA xG yG dxV dyU rAz dxC dyC rAw rAs dxG dyG AngleCS AngleSN
(PID.TID 0000.0001) tile:   2 ; Read from file grid_cs32.face001.bin
(PID.TID 0000.0001)   => xC yC dxF dyF rA xG yG dxV dyU rAz dxC dyC rAw rAs dxG dyG AngleCS AngleSN
(PID.TID 0000.0001) tile:   3 ; Read from file grid_cs32.face002.bin
(PID.TID 0000.0001)   => xC yC dxF dyF rA xG yG dxV dyU rAz dxC dyC rAw rAs dxG dyG AngleCS AngleSN
(PID.TID 0000.0001) tile:   4 ; Read from file grid_cs32.face002.bin
(PID.TID 0000.0001)   => xC yC dxF dyF rA xG yG dxV dyU rAz dxC dyC rAw rAs dxG dyG AngleCS AngleSN
(PID.TID 0000.0001) tile:   5 ; Read from file grid_cs32.face003.bin
(PID.TID 0000.0001)   => xC yC dxF dyF rA xG yG dxV dyU rAz dxC dyC rAw rAs dxG dyG AngleCS AngleSN
(PID.TID 0000.0001) tile:   6 ; Read from file grid_cs32.face003.bin
(PID.TID 0000.0001)   => xC yC dxF dyF rA xG yG dxV dyU rAz dxC dyC rAw rAs dxG dyG AngleCS AngleSN
(PID.TID 0000.0001) tile:   7 ; Read from file grid_cs32.face004.bin
(PID.TID 0000.0001)   => xC yC dxF dyF rA xG yG dxV dyU rAz dxC dyC rAw rAs dxG dyG AngleCS AngleSN
(PID.TID 0000.0001) tile:   8 ; Read from file grid_cs32.face004.bin
(PID.TID 0000.0001)   => xC yC dxF dyF rA xG yG dxV dyU rAz dxC dyC rAw rAs dxG dyG AngleCS AngleSN
(PID.TID 0000.0001) tile:   9 ; Read from file grid_cs32.face005.bin
(PID.TID 0000.0001)   => xC yC dxF dyF rA xG yG dxV dyU rAz dxC dyC rAw rAs dxG dyG AngleCS AngleSN
(PID.TID 0000.0001) tile:  10 ; Read from file grid_cs32.face005.bin
(PID.TID 0000.0001)   => xC yC dxF dyF rA xG yG dxV dyU rAz dxC dyC rAw rAs dxG dyG AngleCS AngleSN
(PID.TID 0000.0001) tile:  11 ; Read from file grid_cs32.face006.bin
(PID.TID 0000.0001)   => xC yC dxF dyF rA xG yG dxV dyU rAz dxC dyC rAw rAs dxG dyG AngleCS AngleSN
(PID.TID 0000.0001) tile:  12 ; Read from file grid_cs32.face006.bin
(PID.TID 0000.0001)   => xC yC dxF dyF rA xG yG dxV dyU rAz dxC dyC rAw rAs dxG dyG AngleCS AngleSN
(PID.TID 0000.0001) %MON XC_max                       =   1.7854351589505E+02
(PID.TID 0000.0001) %MON XC_min                       =  -1.7854351589505E+02
(PID.TID 0000.0001) %MON XC_mean                      =  -1.4199289892029E-14
(PID.TID 0000.0001) %MON XC_sd                        =   1.0355545336287E+02
(PID.TID 0000.0001) %MON XG_max                       =   1.8000000000000E+02
(PID.TID 0000.0001) %MON XG_min                       =  -1.7708797161002E+02
(PID.TID 0000.0001) %MON XG_mean                      =   1.8603515625000E+00
(PID.TID 0000.0001) %MON XG_sd                        =   1.0357130300504E+02
(PID.TID 0000.0001) %MON DXC_max                      =   3.2375185836900E+05
(PID.TID 0000.0001) %MON DXC_min                      =   1.1142031410131E+05
(PID.TID 0000.0001) %MON DXC_mean                     =   2.8605689051214E+05
(PID.TID 0000.0001) %MON DXC_sd                       =   3.4042087138252E+04
(PID.TID 0000.0001) %MON DXF_max                      =   3.2369947500827E+05
(PID.TID 0000.0001) %MON DXF_min                      =   1.2020820513318E+05
(PID.TID 0000.0001) %MON DXF_mean                     =   2.8605437324820E+05
(PID.TID 0000.0001) %MON DXF_sd                       =   3.4050524252539E+04
(PID.TID 0000.0001) %MON DXG_max                      =   3.2375195872773E+05
(PID.TID 0000.0001) %MON DXG_min                      =   1.0098378008791E+05
(PID.TID 0000.0001) %MON DXG_mean                     =   2.8603818508931E+05
(PID.TID 0000.0001) %MON DXG_sd                       =   3.4140406908005E+04
(PID.TID 0000.0001) %MON DXV_max                      =   3.2380418162750E+05
(PID.TID 0000.0001) %MON DXV_min                      =   8.0152299824136E+04
(PID.TID 0000.0001) %MON DXV_mean                     =   2.8603970633619E+05
(PID.TID 0000.0001) %MON DXV_sd                       =   3.4145142117723E+04
(PID.TID 0000.0001) %MON YC_max                       =   8.7940663871962E+01
(PID.TID 0000.0001) %MON YC_min                       =  -8.7940663871962E+01
(PID.TID 0000.0001) %MON YC_mean                      =  -2.3684757858670E-15
(PID.TID 0000.0001) %MON YC_sd                        =   3.8676242969072E+01
(PID.TID 0000.0001) %MON YG_max                       =   9.0000000000000E+01
(PID.TID 0000.0001) %MON YG_min                       =  -9.0000000000000E+01
(PID.TID 0000.0001) %MON YG_mean                      =  -4.1448326252673E-15
(PID.TID 0000.0001) %MON YG_sd                        =   3.8676895860710E+01
(PID.TID 0000.0001) %MON DYC_max                      =   3.2375185836900E+05
(PID.TID 0000.0001) %MON DYC_min                      =   1.1142031410131E+05
(PID.TID 0000.0001) %MON DYC_mean                     =   2.8605689051214E+05
(PID.TID 0000.0001) %MON DYC_sd                       =   3.4042087138252E+04
(PID.TID 0000.0001) %MON DYF_max                      =   3.2369947500827E+05
(PID.TID 0000.0001) %MON DYF_min                      =   1.2020820513318E+05
(PID.TID 0000.0001) %MON DYF_mean                     =   2.8605437324820E+05
(PID.TID 0000.0001) %MON DYF_sd                       =   3.4050524252539E+04
(PID.TID 0000.0001) %MON DYG_max                      =   3.2375195872773E+05
(PID.TID 0000.0001) %MON DYG_min                      =   1.0098378008791E+05
(PID.TID 0000.0001) %MON DYG_mean                     =   2.8603818508931E+05
(PID.TID 0000.0001) %MON DYG_sd                       =   3.4140406908005E+04
(PID.TID 0000.0001) %MON DYU_max                      =   3.2380418162750E+05
(PID.TID 0000.0001) %MON DYU_min                      =   8.0152299824136E+04
(PID.TID 0000.0001) %MON DYU_mean                     =   2.8603970633619E+05
(PID.TID 0000.0001) %MON DYU_sd                       =   3.4145142117723E+04
(PID.TID 0000.0001) %MON RA_max                       =   1.0479260248419E+11
(PID.TID 0000.0001) %MON RA_min                       =   1.4019007022556E+10
(PID.TID 0000.0001) %MON RA_mean                      =   8.2992246709265E+10
(PID.TID 0000.0001) %MON RA_sd                        =   1.7509089299457E+10
(PID.TID 0000.0001) %MON RAW_max                      =   1.0480965274559E+11
(PID.TID 0000.0001) %MON RAW_min                      =   1.2166903467143E+10
(PID.TID 0000.0001) %MON RAW_mean                     =   8.2992246709235E+10
(PID.TID 0000.0001) %MON RAW_sd                       =   1.7481917919656E+10
(PID.TID 0000.0001) %MON RAS_max                      =   1.0480965274559E+11
(PID.TID 0000.0001) %MON RAS_min                      =   1.2166903467143E+10
(PID.TID 0000.0001) %MON RAS_mean                     =   8.2992246709235E+10
(PID.TID 0000.0001) %MON RAS_sd                       =   1.7481917919656E+10
(PID.TID 0000.0001) %MON RAZ_max                      =   1.0484349334619E+11
(PID.TID 0000.0001) %MON RAZ_min                      =   8.8317900612505E+09
(PID.TID 0000.0001) %MON RAZ_mean                     =   8.2992246709235E+10
(PID.TID 0000.0001) %MON RAZ_sd                       =   1.7482297311044E+10
(PID.TID 0000.0001) %MON AngleCS_max                  =   9.9999994756719E-01
(PID.TID 0000.0001) %MON AngleCS_min                  =  -9.9968286884824E-01
(PID.TID 0000.0001) %MON AngleCS_mean                 =   3.3078850405987E-01
(PID.TID 0000.0001) %MON AngleCS_sd                   =   6.2496317138039E-01
(PID.TID 0000.0001) %MON AngleSN_max                  =   9.9968286884824E-01
(PID.TID 0000.0001) %MON AngleSN_min                  =  -9.9999994756719E-01
(PID.TID 0000.0001) %MON AngleSN_mean                 =  -3.3078850405987E-01
(PID.TID 0000.0001) %MON AngleSN_sd                   =   6.2496317138039E-01
(PID.TID 0000.0001)  MDS_READ_FIELD: opening global file: bathy_Hmin50.bin
(PID.TID 0000.0001) // =======================================================
(PID.TID 0000.0001) // Field Model R_low (ini_masks_etc)
(PID.TID 0000.0001) // CMIN =         -5.200000000000000E+03
(PID.TID 0000.0001) // CMAX =         -5.000000000000000E+01
(PID.TID 0000.0001) // CINT =          1.907407407407407E+02
(PID.TID 0000.0001) // SYMBOLS (CMIN->CMAX): -abcdefghijklmnopqrstuvwxyz+
(PID.TID 0000.0001) //                  0.0: .
(PID.TID 0000.0001) // RANGE I (Lo:Hi:Step):(    -3:   388:     1)
(PID.TID 0000.0001) // RANGE J (Lo:Hi:Step):(    20:    -3:    -1)
(PID.TID 0000.0001) // RANGE K (Lo:Hi:Step):(   1:   1:   1)
(PID.TID 0000.0001) // =======================================================
(PID.TID 0000.0001) K =   1
(PID.TID 0000.0001) //                I=6       I=16      I=26      I=36      I=38      I=48      I=58      I=68      I=70      I=80      I=90      I=100     I=102     I=112     I=122     I=132     I=134     I=144     I=154     I=164     I=166     I=176     I=186     I=196     I=198     I=208     I=218     I=228     I=230     I=240     I=250     I=260     I=262     I=272     I=282     I=292     I=294     I=304     I=314     I=324     I=326     I=336     I=346     I=356     I=358     I=368     I=378     I=388
(PID.TID 0000.0001) // |--J--|321012345|789012345|789012345|789012345|901234567|901234567|901234567|901234567|123456789|123456789|123456789|123456789|345678901|345678901|345678901|345678901|567890123|567890123|567890123|567890123|789012345|789012345|789012345|789012345|901234567|901234567|901234567|901234567|123456789|123456789|123456789|123456789|345678901|345678901|345678901|345678901|567890123|567890123|567890123|567890123|789012345|789012345|789012345|789012345|901234567|901234567|901234567|901234567|
(PID.TID 0000.0001) //     20 fbbbcgfcaa-aae+.......................lccbbc-ddcbcdehkhhmn..++........................lcgfdddhq.+hiilnz++.+oquxyz--adgkf................................okn.skkodcaabcfmtooyxz......+yuiiy....++gb--------a-fc----bba-cp.............tfeecccbbdegb--------ddcca-a-----acbaa------bbaaaabecccbbdeddedcdcccdddcddffggghiggfffdeeff........ywxy.lulo.lv...kcdgddffefffilyx+ijlihjlica---a--cgffel.+edfgeedflcbahgflfffilyx+fffk.+xyyy.........mgeimvskjkllllcbahgfllfhdffhkfffca-aady...llnabdoa--a
(PID.TID 0000.0001) //     19 zmfeccdghfeegcbt......................aadcac--cbbeefjkfefw+..........zpu..............aafifccgnrzgghjry.+++sr+lq.--edfkk................................kqnzrqqkoxtkblwnnsp.vv......skhggt...+++t---------b-da----bbbbfu..............fdddccaadct---------bdaf---------edd-------adlaaaaddccaadcdddcbbbbcdddcccdffffghgffffddeff+..........vnhzy.tllqiedccdhggfggffiiggflligfiljfba---aafddehy...pwvlhfffcbagfccgffiiggfcbdgy..yz..........xigqophijkkiifcbagfcceeffffjlkjgaa---bfvheeln-aesaaab
(PID.TID 0000.0001) //     18 ..wifedfkhfegbbcivlqfoz..............jaad--ba-abcehjnldcclz+........spps.............jaacfihggokeeffgt..++++..hhlfdeddke...............................vkqn+xnnnz..qcz+.zwxtsttz..ysrkhot++++++zig------cabbcbba--aabfu+..............hcbaaaaaccig--------b--f---------egqqqaa----frb---baaaaaccdccbaaabbddddccdffffghfeeeeedeff+........+kkrhw.vqmlnieddcdehgggffgigedbjiffefilhfcaaaacgceei.......zomggfcaecbbffgigedbaaceiy.............zilrddefikkhhgfcaecbbccddefilihecbaacbaajfega-aesfeed
(PID.TID 0000.0001) //     17 ..+wfeefikhgcbbccaaacgn.............icaa--abbbccceiomkfdbbc+.......+s...............icaaccfihfoedddeedy..++...nnqwgfeeke...............................xsrxzz+z.yy.z++..+zsjjllllljllpjos+++.+zhhi-----efdcddb-----adu+...............hcbaa--acchi-----e-----ea--------foqqoqqo--hlwgea-baa--accddba--bbbddddccdfffhhgfeeddccedd.........+nk+..xiioonhfefddegihhghigfdbahfeddfgikhfffdfgccffw........zohhgebbaaaghigfdbaaabdgx..............nheddefiklhghgebbaaaaaccdfhlhfefdcccaabjefbaaafoosso
(PID.TID 0000.0001) //     16 ....wiheddeccdfhfbabdfl............jdbad--bddefhhkqqlgfaakqz..v.+..+...............jdbaddddgifkccccdccd+.++..++ynvz.tkkq.............................++..u+....z.mu....++zyslllllkhggkmpy++...ihhi-----eigfdba----adu+................kdcaaa-acchi-----ea---feb-----a-acnoohfghknvmwnucacaaa-accdcb---bbbcdddddefffggfeeedcccccb..........qhu..hhhkojgffgeefghihhiieedbaccbbdcdfgghhiihcbeiw.........+ynjgebaaaahiieedbaaabcdy..............ygddeghiljgfjgebaaaa-aacccfikkhecccbbbaaabaadfklnqpp
(PID.TID 0000.0001) //     15 ......ylea--acfihebcbbes..........sfcbbnabbcffijnpnqneaaat..umrr+s.z..............sfcbbngfffigcaaabdbcac+.+++++zgmpx...y.............................+++++.ztsvd.mm....++..zslwz.yhhhhnz+++...rhgc----ablifeb--dfdfu+................+lkdca--abcgc----ab----ige----acaaalllkddfiy..yswxbdca--abcccb---bbbbddddeffflhfeeeecbbbbaa..........thk.xgghiligfghfefhhhhiiheedcdba-abbacbcdceffbbfw+..........++ujfbaaa-iiheedcdbbabdmz.............zfdeghikkifdujfbaaa----aacffiljgfffcca--adfikkiihhhf
(PID.TID 0000.0001) //     14 ........c---acgkhdcc--di..........ofddch--adgillkkkifcadcx.ymmqzqikvnnps..........ofddchohffikaaaaabaaa-aw+.+ysnggox++...............................+++++wmegt-.qrv..........yzzzzrjil+++....qhgd-----ajlifcacdlqx+++...............mligea---abgd-----a-----i---cccdeabkklldinqssy..xxvgea---abbbb---abaaddddeedkmeddefdbbbaaaa...........+y.uhghikihgfghefgihhhgeeeeedbc---b--aaaaabaabm..............+viba---hgeeeeeddbaadhw.............nedeghjjhfed+viba-------acdefinmlgiieb-chnnnmlmlgffc
(PID.TID 0000.0001) //     13 .......+b----cfkhec---afz.........nhfdff--cfiljigfjd--efdozy...+ximpnnuz..........nhfdffholghkaaaaaba-a---flkkuswyy++++y..............................+++yqddhp-+zr...........zzzzz++ry++......yd-------iljhcbbchz+......++.........+mmhffc----ad--------------aeecdeidfkkqnqlmqquukqqmfffc----aaba------acdddcbcineddgdbaaa----..............iihiijjhfefgefhjihiffgggffcdd--a------aa-bfz...............+qe---aiffgggffecaabelx...........zjecehijhfecc.+qe---aa---aedeegknmlgiigcdfhpokkimlfdb
(PID.TID 0000.0001) //     12 .......ec----chjhec---ag..........skiqdd-abgkhfcccea-bdei........t................skiqddeiiiifaaabae--a---dd--iu+++.+++s..............................++zwgfcfk-xq++..........+z+++++.+++....++.s-------gknhccbbhwwy.....+++........+njfeed-----s------------a-ceccdejhlllkqlkklssiccdeeeed-----aa-------abddcabcnfddegcaaa-----.............wjkkkjjjigeefffgjiiighiiihhhlf------------dk+................+ja---ighiiihhhdaabdffghtxx......mfccehjiffdb-..+ja------bffdddehfd--bedaacfhpnligiihd
(PID.TID 0000.0001) //     11 ......pdca--achlheba--ai..........nkn.fd-acghfbaaaa-achmy......................+..nkn.fdemijidaaaabi-------a--q+....++.z.......+++....................++vnbbbcleiis...........+++++..........+yyza----b-fkpkeeecflmqxy....++........+lhfeecc----za----b-----a--ccccddkhieekkossssfbbbbcdeecc------------aaadcbabcfhddccba-------............njjijhhihijhgggggjjjjijkkkkjzqd-----------irw.................++e---jijkkkkjjhcaacddeegpy.....xfdccdhjgfdda-..++e-----mhmijddda--------ahhfiokhedegg
(PID.TID 0000.0001) //     10 ......wfdb--achlhea---an.........uos..dc-adhfca-----bfiv.......................+.uos..dcemikkfdcaabi-------equ+................++sy...................+tq-fdbblcmk...........................zyvuq----ccjknqiheddefhiksz++++........zkhfdccb----uq----cc----a---dcfhkopqjeissrnpfbbcccdedccb------------aabdcaaaacfddbca-------a..........zslihhigghgijjihhhhkllkkkkkkjk+xfa-abb-----vvv...................+wa--kkkkkkjkkkedccdeeeeipz..zwhccbcdhgfddcam...+wa---mlmkijhc----------cjjffiheb-aad
(PID.TID 0000.0001) //      9 ......vgec---bfikca--cjl+.......+nnv.+cc-achfa------ch+..................w......+nnv.+ccffhkkiddaadha-----as++...........w.......njo+................+x-----bcgipvz++........................zxuuk------diqqojfefiiiijmy.++.........zkhfdbaa----uk------a---a----djmqrrnlllsoiddcccccdjfdbaa-------daa---acccaaaacccca--------ac.........+zjijhfgfggffhjkkkiillljihhghgi.+udaabbb----tei...................++qdejihhghgihighdeeffgghimnnjgecbbcdgfeccbas...++qdeqnghiljcaaaaidaa----beedeeca--bb
(PID.TID 0000.0001) //      8 .....zleca---afjfca--hdfz.......vkky.jceaaeifa--acbcei...................w......vkky.jceddefijffdddhb--a-afv.............w.......likn+.....++.....++znpa----bbdinn..ss.........................+yku------fnlmnjhinlksssw............qhfeca------yku--------------ejnpqqnninnritqdccchkmfca--------addc--aeffaaaaaaccb-a----a--bd+.......wihgghgeffffeefhijkjkljiigeeffef.++udbbaba---ven....................++xyigeeffefffhjhhikkklljklmhffeeeggfdcbaay.....++xywnfgllcbbabegkecba----ddddcaacdc
(PID.TID 0000.0001) //      7 ...+zohec--abcfkhecbchbdx.......qiht.faaabfida-aabchjk...................zz.....qiht.faaaabdgijgfededcdcb-f+.............zz.....nhhijz....tqq.....+ujgzgd---abcinn...pz.........................+zu------cegklkkknols..xuu..........zgfdba------+zu--------------edefqgqddsz+......+yuddba--------bcd---affaaadffabbb-----aa-bccmm+....tiggfggfeeeefeeefiiiijkiihheddddd.+.+ufb-----l.gx...........s.........++zhheddddddddjjllliijhfkmmkkjjhijgdcba--q......++zzkfilfccccoz..ulkcd---bccnfddddd
(PID.TID 0000.0001) //      6 ..+yomfddcaabefkifdchaadt......uqdeisc---afhfaa---bfgi....................zz..rnqdeisc----dfefgifffkklldc--v..............zz..rnjffggm...nlmn+....+sffzya--aabciup...pp.........................v.x-----eaaffdfhimrmp...yuu.++.......zudba------v.x---------a----fbbpqgzenx+........zdbcba--------adc---dda-adffe-aa--------aaacmllkhhfffffffgfeeeeeeeefhhhhijihhffddcbb....+ufc-baaqvhh..........dcfeeh......++hffddcbbbbdhhiihedddb-cfhhhjjjieca----+.......++zggqvifefhz......zobbaccfwuffeee
(PID.TID 0000.0001) //      5 ..+nhgffkghccfhkhffgdaackz....uoibcimlaababcgca----abe.....................ysstlibcimlaaacfbddfjjhijeehf-a-c...............ysstlgeeeeoz..ijklt+....lfjzzf---adfczs...su.........................qk.yi---fdaadcehllotq....yy+++zzs.....+zcba-----qk.yi-------gha-fjddqs+xkrz.........q-bccba-------cdd--aaa----df------------aaachikdccdeeeeeeedddedddddgghhhhjhhgffcbbaa.....+upjdcy.vohq.......+idcdfeeefwz....gffcbbaaaaddfegecca----dfeefhfgdb-----+.efwz....+hhn.vklox.........gdccfjwrigffh
(PID.TID 0000.0001) //      4 .+ujhgfllfhdffhkfffca-aady...llnabdopfcbfbbbcgfcaa-aae+.......................lcabdopfcbdgdbcdehlihgfddc--ms..................lcgfdddhq.+hiilnz++.+oquxyz--adgkf................................okn.zd--dcaabcfmtooyxz......+yuiiy....++gb------okn.zd---eciiiicfkeeqy.ysz..........n-aagb--------ddcca-a-----acbaa------bbaaaabfgdcbbdeddedcdcccdddcddffggghiggfffdbaa-........ywxy.lulo.lv...kcdgddffefffilyx+fffdbaa---acdcccba--abvfedeffdcca----b+.fffilyx+fffk.+xyyy.........mgeimvskjklll
(PID.TID 0000.0001) //      3 +vjggfcceeffffjlkjgaa---bfvheeln-aesphfdzmfeccdghfeegcbt......................aa-aesphfdhgabddeflihhgfecbaaayq+++++...........aafifccgnrzgghjry.+++sr+lq.--edfkk................................kqnz.vtpoxtkblwnnsp.vv......skhggt...+++t-------kqnz.vtpkllgdccfkkkkk..++..........+g---t---------bdaf---------edd-------adlaaaafecaaadcdddcbbbbcdddcccdffffghgffffdcaa-+..........vnhzy.tllqiedccdhggfggffiiggffffdcaa----abcaaaa-acxxmecdjmdbba----r+.gffiiggfcbdgy..yz..........xigqophijkkii
(PID.TID 0000.0001) //      2 qifeecbbccddefilihecbaacbaajfega-aesqhff..wifedfkhfegbbcivlqfoz..............jaa-aesqhffiea-cdeflkkljifeddcba---bry+.........jaacfihggokeeffgt..++++..hhlfdeddke...............................vkqn+.sghz..qcz+.zwxtsttz..ysrkhot++++++zig------kqn+.sghfcbcbbbdgfdek.++++.........+l---ig--------b--f---------egqqqaa----frb---caaaaaccdccbaaabbddddccdffffghfeeeeecba-+........+kkrhw.vqmlnieddcdehgggffgigedbeeeecba------baaaa-euwxqdbcdkud-----sy+.ffgigedbaaceiy.............zilrddefikkhh
(PID.TID 0000.0001) //      1 ebbbbaaaaaccdfhlhfefdcccaabjefbaaafonhgl..+wfeefikhgcbbccaaacgn.............icaaaafonhglid--adfgkkkklkhffddca-----s++++.....icaaccfihfoedddeedy..++...nnqwgfeeke...............................xsrxz.tedyy.z++..+zsjjllllljllpjos+++.+zhhi-----esrxz.tedcbbbbaaadddet.++++.........+l---hi-----e-----ea--------foqqoqqo--hlwgea----a-accddba--bbbddddccdfffhhgfeeddccba-.........+nk+..xiioonhfefddegihhghigfdbaeddccba-------aaaabgns.qcbcchyzqngll++..ghigfdbaaabdgx..............nheddefiklhg
(PID.TID 0000.0001) //      0 -aaaaaaa-aacccfikkhecccbbbaaabaadfkllilm....wiheddeccdfhfbabdfl............jdbaddfkllilmgebaadfijjiiikjhffdcba-----lllgn...jdbaddddgifkccccdccd+.++..++ynvz.tkkq.............................++..u+..zmd.mu....++zyslllllkhggkmpy++...ihhi-----e.u+..zmdfbd---a-aeef.xx+..........+++s--hi-----ea---feb-----a-acnoohfghknvmwnuca-----accdcb---bbbcdddddefffggfeeedcccbba..........qhu..hhhkojgffgeefghihhiieedbaedcccbba----aa--alrwwy.kcbccc+...++++...hiieedbaaabcdy..............ygddeghiljgf
(PID.TID 0000.0001) //     -1 --aaaaa----aacffiljgfffcca--adfikkiikimi......ylea--acfihebcbbes..........sfcbbnkkiikimiiheccfurkiffhijjigfecb-----l----..sfcbbngfffigcaaabdbcac+.+++++zgmpx...y.............................+++++.z+.wq.mm....++..zslwz.yhhhhnz+++...rhgc----ab++.z+.wqgbf-------dgzpoy+........+ys+yrbgc----ab----ige----acaaalllkddfiy..yswxb--aa-abcccb---bbbbddddeffflhfeeeecbbcbba..........thk.xgghiligfghfefhhhhiiheedcdecbbcbbaa----a--bdflm.yuibbcc.......+...iiheedcdbbabdmz.............zfdeghikkifd
(PID.TID 0000.0001) //     -2 --aaa-------acdefinmlgiieb-chnnnmlmlfklk........c---acgkhdcc--di..........ofddchmlmlfklklkhednwwsheeghhijjgfdca----g---a..ofddchohffikaaaaabaaa-aw+.+ysnggox++...............................+++++wmu++y.qrv..........yzzzzrjil+++....qhgd-----a++wmu++ywn--------fwvmgy+........+r-.+++gd-----a-----i---cccdeabkklldinqssy..xxv-abc--abbbb---abaaddddeedkmeddefdbbbdcba...........+y.uhghikihgfghefgihhhgeeeeeddbbbdcbaa-------ba-hv.susfbcc.......+...hgeeeeeddbaadhw.............nedeghjjhfed
(PID.TID 0000.0001) //     -3 a--a---aa---aedeegknmlgiigcdfhpokkimdkmk.......+b----cfkhec---afz.........nhfdffkkimdkmknoiedcfjvpddegghhhhgfdcbaa-n---a..nhfdffholghkaaaaaba-a---flkkuswyy++++y..............................+++yqd.++++zr...........zzzzz++ry++......yd-------+yqd.+++zvq--dafz.lqnggw+........+b-....d--------------aeecdeidfkkqnqlmqquukqqmfabcc---aaba------acdddcbcineddgdbaaaeedb..............iihiijjhfefgefhjihiffgggffbaaaeedbaa----------nysqssfcd...........iffgggffecaabelx...........zjecehijhfecc
(PID.TID 0000.0001) // =======================================================
(PID.TID 0000.0001) // END OF FIELD                                          =
(PID.TID 0000.0001) // =======================================================
(PID.TID 0000.0001) 
(PID.TID 0000.0001) // =======================================================
(PID.TID 0000.0001) // Field Model Ro_surf (ini_masks_etc)
(PID.TID 0000.0001) // CMIN =         -7.105427357601002E-15
(PID.TID 0000.0001) // CMAX =         -7.105427357601002E-15
(PID.TID 0000.0001) // CINT =          0.000000000000000E+00
(PID.TID 0000.0001) // SYMBOLS (CMIN->CMAX): -abcdefghijklmnopqrstuvwxyz+
(PID.TID 0000.0001) //                  0.0: .
(PID.TID 0000.0001) // RANGE I (Lo:Hi:Step):(    -3:   388:     1)
(PID.TID 0000.0001) // RANGE J (Lo:Hi:Step):(    20:    -3:    -1)
(PID.TID 0000.0001) // RANGE K (Lo:Hi:Step):(   1:   1:   1)
(PID.TID 0000.0001) // =======================================================
(PID.TID 0000.0001) // =======================================================
(PID.TID 0000.0001) // END OF FIELD                                          =
(PID.TID 0000.0001) // =======================================================
(PID.TID 0000.0001) 
(PID.TID 0000.0001) // =======================================================
(PID.TID 0000.0001) // Field hFacC at iteration          0
(PID.TID 0000.0001) // CMIN =          1.000000000000000E+00
(PID.TID 0000.0001) // CMAX =          1.000000000000000E+00
(PID.TID 0000.0001) // CINT =          0.000000000000000E+00
(PID.TID 0000.0001) // SYMBOLS (CMIN->CMAX): -abcdefghijklmnopqrstuvwxyz+
(PID.TID 0000.0001) //                  0.0: .
(PID.TID 0000.0001) // RANGE I (Lo:Hi:Step):(    -3:   388:     1)
(PID.TID 0000.0001) // RANGE J (Lo:Hi:Step):(    20:    -3:    -1)
(PID.TID 0000.0001) // RANGE K (Lo:Hi:Step):(   1:   1:   1)
(PID.TID 0000.0001) // =======================================================
(PID.TID 0000.0001) // =======================================================
(PID.TID 0000.0001) // END OF FIELD                                          =
(PID.TID 0000.0001) // =======================================================
(PID.TID 0000.0001) 
(PID.TID 0000.0001) // =======================================================
(PID.TID 0000.0001) // Field hFacW at iteration          0
(PID.TID 0000.0001) // CMIN =          1.000000000000000E+00
(PID.TID 0000.0001) // CMAX =          1.000000000000000E+00
(PID.TID 0000.0001) // CINT =          0.000000000000000E+00
(PID.TID 0000.0001) // SYMBOLS (CMIN->CMAX): -abcdefghijklmnopqrstuvwxyz+
(PID.TID 0000.0001) //                  0.0: .
(PID.TID 0000.0001) // RANGE I (Lo:Hi:Step):(    -3:   388:     1)
(PID.TID 0000.0001) // RANGE J (Lo:Hi:Step):(    20:    -3:    -1)
(PID.TID 0000.0001) // RANGE K (Lo:Hi:Step):(   1:   1:   1)
(PID.TID 0000.0001) // =======================================================
(PID.TID 0000.0001) // =======================================================
(PID.TID 0000.0001) // END OF FIELD                                          =
(PID.TID 0000.0001) // =======================================================
(PID.TID 0000.0001) 
(PID.TID 0000.0001) // =======================================================
(PID.TID 0000.0001) // Field hFacS at iteration          0
(PID.TID 0000.0001) // CMIN =          1.000000000000000E+00
(PID.TID 0000.0001) // CMAX =          1.000000000000000E+00
(PID.TID 0000.0001) // CINT =          0.000000000000000E+00
(PID.TID 0000.0001) // SYMBOLS (CMIN->CMAX): -abcdefghijklmnopqrstuvwxyz+
(PID.TID 0000.0001) //                  0.0: .
(PID.TID 0000.0001) // RANGE I (Lo:Hi:Step):(    -3:   388:     1)
(PID.TID 0000.0001) // RANGE J (Lo:Hi:Step):(    20:    -3:    -1)
(PID.TID 0000.0001) // RANGE K (Lo:Hi:Step):(   1:   1:   1)
(PID.TID 0000.0001) // =======================================================
(PID.TID 0000.0001) // =======================================================
(PID.TID 0000.0001) // END OF FIELD                                          =
(PID.TID 0000.0001) // =======================================================
(PID.TID 0000.0001) 
(PID.TID 0000.0001) GAD_INIT_FIXED: GAD_OlMinSize=  1  0  1
(PID.TID 0000.0001) 
(PID.TID 0000.0001) // ===================================
(PID.TID 0000.0001) // GAD parameters :
(PID.TID 0000.0001) // ===================================
(PID.TID 0000.0001) tempAdvScheme =   /* Temp. Horiz.Advection scheme selector */
(PID.TID 0000.0001)                       2
(PID.TID 0000.0001)     ;
(PID.TID 0000.0001) tempVertAdvScheme =   /* Temp. Vert. Advection scheme selector */
(PID.TID 0000.0001)                       2
(PID.TID 0000.0001)     ;
(PID.TID 0000.0001) tempMultiDimAdvec =   /* use Muti-Dim Advec method for Temp */
(PID.TID 0000.0001)                   F
(PID.TID 0000.0001)     ;
(PID.TID 0000.0001) tempSOM_Advection = /* use 2nd Order Moment Advection for Temp */
(PID.TID 0000.0001)                   F
(PID.TID 0000.0001)     ;
(PID.TID 0000.0001) AdamsBashforthGt = /* apply Adams-Bashforth extrapolation on Gt */
(PID.TID 0000.0001)                   T
(PID.TID 0000.0001)     ;
(PID.TID 0000.0001) AdamsBashforth_T = /* apply Adams-Bashforth extrapolation on Temp */
(PID.TID 0000.0001)                   F
(PID.TID 0000.0001)     ;
(PID.TID 0000.0001) saltAdvScheme =   /* Salt. Horiz.advection scheme selector */
(PID.TID 0000.0001)                       2
(PID.TID 0000.0001)     ;
(PID.TID 0000.0001) saltVertAdvScheme =   /* Salt. Vert. Advection scheme selector */
(PID.TID 0000.0001)                       2
(PID.TID 0000.0001)     ;
(PID.TID 0000.0001) saltMultiDimAdvec =   /* use Muti-Dim Advec method for Salt */
(PID.TID 0000.0001)                   F
(PID.TID 0000.0001)     ;
(PID.TID 0000.0001) saltSOM_Advection = /* use 2nd Order Moment Advection for Salt */
(PID.TID 0000.0001)                   F
(PID.TID 0000.0001)     ;
(PID.TID 0000.0001) AdamsBashforthGs = /* apply Adams-Bashforth extrapolation on Gs */
(PID.TID 0000.0001)                   T
(PID.TID 0000.0001)     ;
(PID.TID 0000.0001) AdamsBashforth_S = /* apply Adams-Bashforth extrapolation on Salt */
(PID.TID 0000.0001)                   F
(PID.TID 0000.0001)     ;
(PID.TID 0000.0001) // ===================================
(PID.TID 0000.0001) ------------------------------------------------------------
(PID.TID 0000.0001) DIAGNOSTICS_SET_LEVELS: done
(PID.TID 0000.0001)  Total Nb of available Diagnostics: ndiagt=   210
(PID.TID 0000.0001)  write list of available Diagnostics to file: available_diagnostics.log
(PID.TID 0000.0001) SETDIAG: Allocate 15 x  1 Levels for Diagnostic #    78 DRHODR
(PID.TID 0000.0001) SETDIAG: Allocate 15 x  1 Levels for Diagnostic #    64 RHOAnoma
(PID.TID 0000.0001) SETDIAG: Allocate 15 x  1 Levels for Diagnostic #    79 CONVADJ
(PID.TID 0000.0001) SETDIAG: Allocate 15 x  1 Levels for Diagnostic #   200 GM_Kwx
(PID.TID 0000.0001) SETDIAG: Allocate 15 x  1 Levels for Diagnostic #   201 GM_Kwy
(PID.TID 0000.0001) SETDIAG: Allocate 15 x  1 Levels for Diagnostic #   202 GM_Kwz
(PID.TID 0000.0001) SETDIAG: Allocate 15 x  1 Levels for Diagnostic #   203 GM_PsiX
(PID.TID 0000.0001) SETDIAG: Allocate 15 x  1 Levels for Diagnostic #   204 GM_PsiY
(PID.TID 0000.0001)   space allocated for all diagnostics:     120 levels
(PID.TID 0000.0001)   set mate pointer for diag #   200  GM_Kwx   , Parms: UM      LR , mate:   201
(PID.TID 0000.0001)   set mate pointer for diag #   201  GM_Kwy   , Parms: VM      LR , mate:   200
(PID.TID 0000.0001)   set mate pointer for diag #   203  GM_PsiX  , Parms: UU      LR , mate:   204
(PID.TID 0000.0001)   set mate pointer for diag #   204  GM_PsiY  , Parms: VV      LR , mate:   203
(PID.TID 0000.0001) DIAGNOSTICS_SET_POINTERS: Set levels for Outp.Stream: oceDiag
(PID.TID 0000.0001)  Levels:       1.   2.   3.   4.   5.   6.   7.   8.   9.  10.  11.  12.  13.  14.  15.
(PID.TID 0000.0001) DIAGNOSTICS_SET_POINTERS: done
(PID.TID 0000.0001) ------------------------------------------------------------
(PID.TID 0000.0001) DIAGSTATS_SET_REGIONS: define   0 regions:
(PID.TID 0000.0001) ------------------------------------------------------------
(PID.TID 0000.0001) SETDIAG: Allocate  1 Levels for Stats-Diag #    23 ETAN
(PID.TID 0000.0001) SETDIAG: Allocate 15 Levels for Stats-Diag #    30 UVEL
(PID.TID 0000.0001) SETDIAG: Allocate 15 Levels for Stats-Diag #    31 VVEL
(PID.TID 0000.0001) SETDIAG: Allocate 15 Levels for Stats-Diag #    32 WVEL
(PID.TID 0000.0001) SETDIAG: Allocate 15 Levels for Stats-Diag #    26 THETA
(PID.TID 0000.0001)   space allocated for all stats-diags:      61 levels
(PID.TID 0000.0001) DIAGSTATS_SET_POINTERS: done
(PID.TID 0000.0001) ------------------------------------------------------------
(PID.TID 0000.0001) %MON fCori_max                    =   1.4574827780704E-04
(PID.TID 0000.0001) %MON fCori_min                    =  -1.4574827780704E-04
(PID.TID 0000.0001) %MON fCori_mean                   =   3.3881317890172E-21
(PID.TID 0000.0001) %MON fCori_sd                     =   8.4202189509968E-05
(PID.TID 0000.0001) %MON fCoriG_max                   =   1.4584247033981E-04
(PID.TID 0000.0001) %MON fCoriG_min                   =  -1.4584247033981E-04
(PID.TID 0000.0001) %MON fCoriG_mean                  =  -1.6940658945086E-20
(PID.TID 0000.0001) %MON fCoriG_sd                    =   8.4202189509968E-05
(PID.TID 0000.0001) %MON fCoriCos_max                 =   1.4580166994612E-04
(PID.TID 0000.0001) %MON fCoriCos_min                 =   5.2407700865903E-06
(PID.TID 0000.0001) %MON fCoriCos_mean                =   1.1514045869113E-04
(PID.TID 0000.0001) %MON fCoriCos_sd                  =   3.0375849106513E-05
(PID.TID 0000.0001) INI_CG2D: CG2D normalisation factor =  1.9156564154949553E-04
(PID.TID 0000.0001) INI_CG2D: cg2dTolerance = 5.809016360175296E-07 (Area=3.6388673751E+14)
(PID.TID 0000.0001) 
(PID.TID 0000.0001) // =======================================================
(PID.TID 0000.0001) // Model configuration
(PID.TID 0000.0001) // =======================================================
(PID.TID 0000.0001) //
(PID.TID 0000.0001) // "Physical" paramters ( PARM01 in namelist )
(PID.TID 0000.0001) //
(PID.TID 0000.0001) buoyancyRelation = /* Type of relation to get Buoyancy */
(PID.TID 0000.0001)               'OCEANIC'
(PID.TID 0000.0001)     ;
(PID.TID 0000.0001) fluidIsAir   =  /* fluid major constituent is Air */
(PID.TID 0000.0001)                   F
(PID.TID 0000.0001)     ;
(PID.TID 0000.0001) fluidIsWater =  /* fluid major constituent is Water */
(PID.TID 0000.0001)                   T
(PID.TID 0000.0001)     ;
(PID.TID 0000.0001) usingPCoords =  /* use p (or p*) vertical coordinate */
(PID.TID 0000.0001)                   F
(PID.TID 0000.0001)     ;
(PID.TID 0000.0001) usingZCoords =  /* use z (or z*) vertical coordinate */
(PID.TID 0000.0001)                   T
(PID.TID 0000.0001)     ;
(PID.TID 0000.0001) tRef =   /* Reference temperature profile ( oC or K ) */
(PID.TID 0000.0001)    15 @  2.000000000000000E+01              /* K =  1: 15 */
(PID.TID 0000.0001)     ;
(PID.TID 0000.0001) sRef =   /* Reference salinity profile ( psu ) */
(PID.TID 0000.0001)    15 @  3.500000000000000E+01              /* K =  1: 15 */
(PID.TID 0000.0001)     ;
(PID.TID 0000.0001) viscAh  =   /* Lateral eddy viscosity ( m^2/s ) */
(PID.TID 0000.0001)                 3.000000000000000E+05
(PID.TID 0000.0001)     ;
(PID.TID 0000.0001) viscAhMax = /* Maximum lateral eddy viscosity ( m^2/s ) */
(PID.TID 0000.0001)                 1.000000000000000E+21
(PID.TID 0000.0001)     ;
(PID.TID 0000.0001) viscAhGrid = /* Grid dependent lateral eddy viscosity ( non-dim. ) */
(PID.TID 0000.0001)                 0.000000000000000E+00
(PID.TID 0000.0001)     ;
(PID.TID 0000.0001) useFullLeith = /* Use Full Form of Leith Viscosity on/off flag*/
(PID.TID 0000.0001)                   F
(PID.TID 0000.0001)     ;
(PID.TID 0000.0001) useStrainTensionVisc= /* Use StrainTension Form of Viscous Operator flag*/
(PID.TID 0000.0001)                   F
(PID.TID 0000.0001)     ;
(PID.TID 0000.0001) useAreaViscLength = /* Use area for visc length instead of geom. mean*/
(PID.TID 0000.0001)                   F
(PID.TID 0000.0001)     ;
(PID.TID 0000.0001) viscC2leith = /* Leith harmonic visc. factor (on grad(vort),non-dim.) */
(PID.TID 0000.0001)                 0.000000000000000E+00
(PID.TID 0000.0001)     ;
(PID.TID 0000.0001) viscC2leithD = /* Leith harmonic viscosity factor (on grad(div),non-dim.)*/
(PID.TID 0000.0001)                 0.000000000000000E+00
(PID.TID 0000.0001)     ;
(PID.TID 0000.0001) viscC2smag = /* Smagorinsky harmonic viscosity factor (non-dim.) */
(PID.TID 0000.0001)                 0.000000000000000E+00
(PID.TID 0000.0001)     ;
(PID.TID 0000.0001) viscA4  =   /* Lateral biharmonic viscosity ( m^4/s ) */
(PID.TID 0000.0001)                 0.000000000000000E+00
(PID.TID 0000.0001)     ;
(PID.TID 0000.0001) viscA4Max = /* Maximum biharmonic viscosity ( m^2/s ) */
(PID.TID 0000.0001)                 1.000000000000000E+21
(PID.TID 0000.0001)     ;
(PID.TID 0000.0001) viscA4Grid = /* Grid dependent biharmonic viscosity ( non-dim. ) */
(PID.TID 0000.0001)                 0.000000000000000E+00
(PID.TID 0000.0001)     ;
(PID.TID 0000.0001) viscC4leith = /* Leith biharm viscosity factor (on grad(vort), non-dim.)*/
(PID.TID 0000.0001)                 0.000000000000000E+00
(PID.TID 0000.0001)     ;
(PID.TID 0000.0001) viscC4leithD = /* Leith biharm viscosity factor (on grad(div), non-dim.) */
(PID.TID 0000.0001)                 0.000000000000000E+00
(PID.TID 0000.0001)     ;
(PID.TID 0000.0001) viscC4Smag = /* Smagorinsky biharm viscosity factor (non-dim) */
(PID.TID 0000.0001)                 0.000000000000000E+00
(PID.TID 0000.0001)     ;
(PID.TID 0000.0001) no_slip_sides =  /* Viscous BCs: No-slip sides */
(PID.TID 0000.0001)                   T
(PID.TID 0000.0001)     ;
(PID.TID 0000.0001) sideDragFactor = /* side-drag scaling factor (non-dim) */
(PID.TID 0000.0001)                 2.000000000000000E+00
(PID.TID 0000.0001)     ;
(PID.TID 0000.0001) viscArNr = /* vertical profile of vertical viscosity ( m^2/s )*/
(PID.TID 0000.0001)    15 @  1.000000000000000E-03              /* K =  1: 15 */
(PID.TID 0000.0001)     ;
(PID.TID 0000.0001) no_slip_bottom =  /* Viscous BCs: No-slip bottom */
(PID.TID 0000.0001)                   T
(PID.TID 0000.0001)     ;
(PID.TID 0000.0001) bottomDragLinear = /* linear bottom-drag coefficient ( m/s ) */
(PID.TID 0000.0001)                 0.000000000000000E+00
(PID.TID 0000.0001)     ;
(PID.TID 0000.0001) bottomDragQuadratic = /* quadratic bottom-drag coefficient (-) */
(PID.TID 0000.0001)                 0.000000000000000E+00
(PID.TID 0000.0001)     ;
(PID.TID 0000.0001) diffKhT =   /* Laplacian diffusion of heat laterally ( m^2/s ) */
(PID.TID 0000.0001)                 0.000000000000000E+00
(PID.TID 0000.0001)     ;
(PID.TID 0000.0001) diffK4T =   /* Biharmonic diffusion of heat laterally ( m^4/s ) */
(PID.TID 0000.0001)                 0.000000000000000E+00
(PID.TID 0000.0001)     ;
(PID.TID 0000.0001) diffKhS =   /* Laplacian diffusion of salt laterally ( m^2/s ) */
(PID.TID 0000.0001)                 0.000000000000000E+00
(PID.TID 0000.0001)     ;
(PID.TID 0000.0001) diffK4S =   /* Biharmonic diffusion of salt laterally ( m^4/s ) */
(PID.TID 0000.0001)                 0.000000000000000E+00
(PID.TID 0000.0001)     ;
(PID.TID 0000.0001) diffKrNrT = /* vertical profile of vertical diffusion of Temp ( m^2/s )*/
(PID.TID 0000.0001)    15 @  3.000000000000000E-05              /* K =  1: 15 */
(PID.TID 0000.0001)     ;
(PID.TID 0000.0001) diffKrNrS = /* vertical profile of vertical diffusion of Salt ( m^2/s )*/
(PID.TID 0000.0001)    15 @  3.000000000000000E-05              /* K =  1: 15 */
(PID.TID 0000.0001)     ;
(PID.TID 0000.0001) diffKrBL79surf = /* Surface diffusion for Bryan and Lewis 79 ( m^2/s ) */
(PID.TID 0000.0001)                 0.000000000000000E+00
(PID.TID 0000.0001)     ;
(PID.TID 0000.0001) diffKrBL79deep = /* Deep diffusion for Bryan and Lewis 1979 ( m^2/s ) */
(PID.TID 0000.0001)                 0.000000000000000E+00
(PID.TID 0000.0001)     ;
(PID.TID 0000.0001) diffKrBL79scl = /* Depth scale for Bryan and Lewis 1979 ( m ) */
(PID.TID 0000.0001)                 2.000000000000000E+02
(PID.TID 0000.0001)     ;
(PID.TID 0000.0001) diffKrBL79Ho = /* Turning depth for Bryan and Lewis 1979 ( m ) */
(PID.TID 0000.0001)                -2.000000000000000E+03
(PID.TID 0000.0001)     ;
(PID.TID 0000.0001) ivdc_kappa = /* Implicit Vertical Diffusivity for Convection ( m^2/s) */
(PID.TID 0000.0001)                 1.000000000000000E+01
(PID.TID 0000.0001)     ;
(PID.TID 0000.0001) hMixCriteria=  /* Criteria for mixed-layer diagnostic */
(PID.TID 0000.0001)                -8.000000000000000E-01
(PID.TID 0000.0001)     ;
(PID.TID 0000.0001) dRhoSmall =  /* Parameter for mixed-layer diagnostic */
(PID.TID 0000.0001)                 1.000000000000000E-06
(PID.TID 0000.0001)     ;
(PID.TID 0000.0001) hMixSmooth=  /* Smoothing parameter for mixed-layer diagnostic */
(PID.TID 0000.0001)                 0.000000000000000E+00
(PID.TID 0000.0001)     ;
(PID.TID 0000.0001) eosType =  /* Type of Equation of State */
(PID.TID 0000.0001)               'JMD95Z'
(PID.TID 0000.0001)     ;
(PID.TID 0000.0001) tAlpha =   /* Linear EOS thermal expansion coefficient ( 1/oC ) */
(PID.TID 0000.0001)                 1.234567000000000E+05
(PID.TID 0000.0001)     ;
(PID.TID 0000.0001) sBeta =   /* Linear EOS haline contraction coefficient ( 1/psu ) */
(PID.TID 0000.0001)                 1.234567000000000E+05
(PID.TID 0000.0001)     ;
(PID.TID 0000.0001) rhonil =   /* Reference density ( kg/m^3 ) */
(PID.TID 0000.0001)                 1.035000000000000E+03
(PID.TID 0000.0001)     ;
(PID.TID 0000.0001) rhoConst =   /* Reference density ( kg/m^3 ) */
(PID.TID 0000.0001)                 1.035000000000000E+03
(PID.TID 0000.0001)     ;
(PID.TID 0000.0001) rhoFacC = /* normalized Reference density @ cell-Center (-) */
(PID.TID 0000.0001)    15 @  1.000000000000000E+00              /* K =  1: 15 */
(PID.TID 0000.0001)     ;
(PID.TID 0000.0001) rhoFacF = /* normalized Reference density @ W-Interface (-) */
(PID.TID 0000.0001)    16 @  1.000000000000000E+00              /* K =  1: 16 */
(PID.TID 0000.0001)     ;
(PID.TID 0000.0001) rhoConstFresh =   /* Reference density ( kg/m^3 ) */
(PID.TID 0000.0001)                 1.000000000000000E+03
(PID.TID 0000.0001)     ;
(PID.TID 0000.0001) gravity =   /* Gravitational acceleration ( m/s^2 ) */
(PID.TID 0000.0001)                 9.810000000000000E+00
(PID.TID 0000.0001)     ;
(PID.TID 0000.0001) gBaro =   /* Barotropic gravity ( m/s^2 ) */
(PID.TID 0000.0001)                 9.810000000000000E+00
(PID.TID 0000.0001)     ;
(PID.TID 0000.0001) rotationPeriod =   /* Rotation Period ( s ) */
(PID.TID 0000.0001)                 8.616400000000000E+04
(PID.TID 0000.0001)     ;
(PID.TID 0000.0001) omega =   /* Angular velocity ( rad/s ) */
(PID.TID 0000.0001)                 7.292123516990375E-05
(PID.TID 0000.0001)     ;
(PID.TID 0000.0001) f0 =   /* Reference coriolis parameter ( 1/s ) */
(PID.TID 0000.0001)                 1.000000000000000E-04
(PID.TID 0000.0001)     ;
(PID.TID 0000.0001) beta =   /* Beta ( 1/(m.s) ) */
(PID.TID 0000.0001)                 9.999999999999999E-12
(PID.TID 0000.0001)     ;
(PID.TID 0000.0001) fPrime =   /* Second coriolis parameter ( 1/s ) */
(PID.TID 0000.0001)                 0.000000000000000E+00
(PID.TID 0000.0001)     ;
(PID.TID 0000.0001) rigidLid =   /* Rigid lid on/off flag */
(PID.TID 0000.0001)                   F
(PID.TID 0000.0001)     ;
(PID.TID 0000.0001) implicitFreeSurface =   /* Implicit free surface on/off flag */
(PID.TID 0000.0001)                   T
(PID.TID 0000.0001)     ;
(PID.TID 0000.0001) freeSurfFac =   /* Implicit free surface factor */
(PID.TID 0000.0001)                 1.000000000000000E+00
(PID.TID 0000.0001)     ;
(PID.TID 0000.0001) implicSurfPress =  /* Surface Pressure implicit factor (0-1)*/
(PID.TID 0000.0001)                 1.000000000000000E+00
(PID.TID 0000.0001)     ;
(PID.TID 0000.0001) implicDiv2Dflow =  /* Barot. Flow Div. implicit factor (0-1)*/
(PID.TID 0000.0001)                 1.000000000000000E+00
(PID.TID 0000.0001)     ;
(PID.TID 0000.0001) exactConserv =  /* Exact Volume Conservation on/off flag*/
(PID.TID 0000.0001)                   T
(PID.TID 0000.0001)     ;
(PID.TID 0000.0001) linFSConserveTr = /* Tracer correction for Lin Free Surface on/off flag*/
(PID.TID 0000.0001)                   F
(PID.TID 0000.0001)     ;
(PID.TID 0000.0001) uniformLin_PhiSurf = /* use uniform Bo_surf on/off flag*/
(PID.TID 0000.0001)                   T
(PID.TID 0000.0001)     ;
(PID.TID 0000.0001) hFacMin =   /* minimum partial cell factor (hFac) */
(PID.TID 0000.0001)                 1.000000000000000E-01
(PID.TID 0000.0001)     ;
(PID.TID 0000.0001) hFacMinDr = /* minimum partial cell thickness ( m) */
(PID.TID 0000.0001)                 1.000000000000000E-01
(PID.TID 0000.0001)     ;
(PID.TID 0000.0001) nonlinFreeSurf = /* Non-linear Free Surf. options (-1,0,1,2,3)*/
(PID.TID 0000.0001)                       4
(PID.TID 0000.0001)      -1,0= Off ; 1,2,3= On, 2=+rescale gU,gV, 3=+update cg2d solv.
(PID.TID 0000.0001)     ;
(PID.TID 0000.0001) hFacInf =   /* lower threshold for hFac (nonlinFreeSurf only)*/
(PID.TID 0000.0001)                 2.000000000000000E-01
(PID.TID 0000.0001)     ;
(PID.TID 0000.0001) hFacSup =   /* upper threshold for hFac (nonlinFreeSurf only)*/
(PID.TID 0000.0001)                 2.000000000000000E+00
(PID.TID 0000.0001)     ;
(PID.TID 0000.0001) select_rStar = /* r* Vertical coord. options (=0 r coord.; >0 uses r*)*/
(PID.TID 0000.0001)                       2
(PID.TID 0000.0001)     ;
(PID.TID 0000.0001) selectAddFluid = /* option for mass source/sink of fluid (=0: off) */
(PID.TID 0000.0001)                       0
(PID.TID 0000.0001)     ;
(PID.TID 0000.0001) useRealFreshWaterFlux = /* Real Fresh Water Flux on/off flag*/
(PID.TID 0000.0001)                   T
(PID.TID 0000.0001)     ;
(PID.TID 0000.0001) temp_EvPrRn = /* Temp. of Evap/Prec/R (UNSET=use local T)(oC)*/
(PID.TID 0000.0001)                 1.234567000000000E+05
(PID.TID 0000.0001)     ;
(PID.TID 0000.0001) salt_EvPrRn = /* Salin. of Evap/Prec/R (UNSET=use local S)(psu)*/
(PID.TID 0000.0001)                 0.000000000000000E+00
(PID.TID 0000.0001)     ;
(PID.TID 0000.0001) temp_addMass = /* Temp. of addMass array (UNSET=use local T)(oC)*/
(PID.TID 0000.0001)                 1.234567000000000E+05
(PID.TID 0000.0001)     ;
(PID.TID 0000.0001) salt_addMass = /* Salin. of addMass array (UNSET=use local S)(psu)*/
(PID.TID 0000.0001)                 0.000000000000000E+00
(PID.TID 0000.0001)     ;
(PID.TID 0000.0001) use3Dsolver = /* use 3-D pressure solver on/off flag */
(PID.TID 0000.0001)                   F
(PID.TID 0000.0001)     ;
(PID.TID 0000.0001) nonHydrostatic =  /* Non-Hydrostatic on/off flag */
(PID.TID 0000.0001)                   F
(PID.TID 0000.0001)     ;
(PID.TID 0000.0001) nh_Am2 = /* Non-Hydrostatic terms scaling factor */
(PID.TID 0000.0001)                 1.000000000000000E+00
(PID.TID 0000.0001)     ;
(PID.TID 0000.0001) implicitNHPress = /* Non-Hyd Pressure implicit factor (0-1)*/
(PID.TID 0000.0001)                 1.000000000000000E+00
(PID.TID 0000.0001)     ;
(PID.TID 0000.0001) selectNHfreeSurf = /* Non-Hyd (free-)Surface option */
(PID.TID 0000.0001)                       0
(PID.TID 0000.0001)     ;
(PID.TID 0000.0001) quasiHydrostatic = /* Quasi-Hydrostatic on/off flag */
(PID.TID 0000.0001)                   F
(PID.TID 0000.0001)     ;
(PID.TID 0000.0001) calc_wVelocity = /* vertical velocity calculation on/off flag */
(PID.TID 0000.0001)                   T
(PID.TID 0000.0001)     ;
(PID.TID 0000.0001) momStepping =  /* Momentum equation on/off flag */
(PID.TID 0000.0001)                   T
(PID.TID 0000.0001)     ;
(PID.TID 0000.0001) vectorInvariantMomentum= /* Vector-Invariant Momentum on/off */
(PID.TID 0000.0001)                   T
(PID.TID 0000.0001)     ;
(PID.TID 0000.0001) momAdvection =  /* Momentum advection on/off flag */
(PID.TID 0000.0001)                   T
(PID.TID 0000.0001)     ;
(PID.TID 0000.0001) momViscosity =  /* Momentum viscosity on/off flag */
(PID.TID 0000.0001)                   T
(PID.TID 0000.0001)     ;
(PID.TID 0000.0001) momImplVertAdv= /* Momentum implicit vert. advection on/off*/
(PID.TID 0000.0001)                   F
(PID.TID 0000.0001)     ;
(PID.TID 0000.0001) implicitViscosity = /* Implicit viscosity on/off flag */
(PID.TID 0000.0001)                   F
(PID.TID 0000.0001)     ;
(PID.TID 0000.0001) metricTerms =  /* metric-Terms on/off flag */
(PID.TID 0000.0001)                   F
(PID.TID 0000.0001)     ;
(PID.TID 0000.0001) useNHMTerms = /* Non-Hydrostatic Metric-Terms on/off */
(PID.TID 0000.0001)                   F
(PID.TID 0000.0001)     ;
(PID.TID 0000.0001) selectCoriMap = /* Coriolis Map options (0,1,2,3)*/
(PID.TID 0000.0001)                       2
(PID.TID 0000.0001)     0= f-Plane ; 1= Beta-Plane ; 2= Spherical ; 3= read from file
(PID.TID 0000.0001)     ;
(PID.TID 0000.0001) use3dCoriolis = /* 3-D Coriolis on/off flag */
(PID.TID 0000.0001)                   F
(PID.TID 0000.0001)     ;
(PID.TID 0000.0001) useCoriolis =  /* Coriolis on/off flag */
(PID.TID 0000.0001)                   T
(PID.TID 0000.0001)     ;
(PID.TID 0000.0001) useCDscheme =  /* CD scheme on/off flag */
(PID.TID 0000.0001)                   F
(PID.TID 0000.0001)     ;
(PID.TID 0000.0001) useEnergyConservingCoriolis= /* Flx-Form Coriolis scheme flag */
(PID.TID 0000.0001)                   F
(PID.TID 0000.0001)     ;
(PID.TID 0000.0001) useJamartWetPoints= /* Coriolis WetPoints method flag */
(PID.TID 0000.0001)                   F
(PID.TID 0000.0001)     ;
(PID.TID 0000.0001) useJamartMomAdv= /* V.I Non-linear terms Jamart flag */
(PID.TID 0000.0001)                   F
(PID.TID 0000.0001)     ;
(PID.TID 0000.0001) useAbsVorticity= /* V.I Works with f+zeta in Coriolis */
(PID.TID 0000.0001)                   F
(PID.TID 0000.0001)     ;
(PID.TID 0000.0001) selectVortScheme= /* V.I Scheme selector for Vorticity-Term */
(PID.TID 0000.0001)                       1
(PID.TID 0000.0001)    = 0 : enstrophy (Shallow-Water Eq.) conserving scheme by Sadourny, JAS 75
(PID.TID 0000.0001)    = 1 : same as 0 with modified hFac
(PID.TID 0000.0001)    = 2 : energy conserving scheme (used by Sadourny in JAS 75 paper)
(PID.TID 0000.0001)    = 3 : energy (general) and enstrophy (2D, nonDiv.) conserving scheme
(PID.TID 0000.0001)          from Sadourny (Burridge & Haseler, ECMWF Rep.4, 1977)
(PID.TID 0000.0001)     ;
(PID.TID 0000.0001) upwindVorticity= /* V.I Upwind bias vorticity flag */
(PID.TID 0000.0001)                   F
(PID.TID 0000.0001)     ;
(PID.TID 0000.0001) highOrderVorticity= /* V.I High order vort. advect. flag */
(PID.TID 0000.0001)                   F
(PID.TID 0000.0001)     ;
(PID.TID 0000.0001) upwindShear= /* V.I Upwind vertical Shear advection flag */
(PID.TID 0000.0001)                   F
(PID.TID 0000.0001)     ;
(PID.TID 0000.0001) selectKEscheme= /* V.I Kinetic Energy scheme selector */
(PID.TID 0000.0001)                       0
(PID.TID 0000.0001)     ;
(PID.TID 0000.0001) momForcing =  /* Momentum forcing on/off flag */
(PID.TID 0000.0001)                   T
(PID.TID 0000.0001)     ;
(PID.TID 0000.0001) momPressureForcing =  /* Momentum pressure term on/off flag */
(PID.TID 0000.0001)                   T
(PID.TID 0000.0001)     ;
(PID.TID 0000.0001) implicitIntGravWave= /* Implicit Internal Gravity Wave flag */
(PID.TID 0000.0001)                   F
(PID.TID 0000.0001)     ;
(PID.TID 0000.0001) staggerTimeStep =   /* Stagger time stepping on/off flag */
(PID.TID 0000.0001)                   T
(PID.TID 0000.0001)     ;
(PID.TID 0000.0001) multiDimAdvection =   /* enable/disable Multi-Dim Advection */
(PID.TID 0000.0001)                   T
(PID.TID 0000.0001)     ;
(PID.TID 0000.0001) useMultiDimAdvec =   /* Multi-Dim Advection is/is-not used */
(PID.TID 0000.0001)                   F
(PID.TID 0000.0001)     ;
(PID.TID 0000.0001) implicitDiffusion = /* Implicit Diffusion on/off flag */
(PID.TID 0000.0001)                   T
(PID.TID 0000.0001)     ;
(PID.TID 0000.0001) tempStepping =  /* Temperature equation on/off flag */
(PID.TID 0000.0001)                   T
(PID.TID 0000.0001)     ;
(PID.TID 0000.0001) tempAdvection=  /* Temperature advection on/off flag */
(PID.TID 0000.0001)                   T
(PID.TID 0000.0001)     ;
(PID.TID 0000.0001) tempImplVertAdv = /* Temp. implicit vert. advection on/off */
(PID.TID 0000.0001)                   F
(PID.TID 0000.0001)     ;
(PID.TID 0000.0001) tempForcing  =  /* Temperature forcing on/off flag */
(PID.TID 0000.0001)                   T
(PID.TID 0000.0001)     ;
(PID.TID 0000.0001) tempIsActiveTr = /* Temp. is a dynamically Active Tracer */
(PID.TID 0000.0001)                   T
(PID.TID 0000.0001)     ;
(PID.TID 0000.0001) saltStepping =  /* Salinity equation on/off flag */
(PID.TID 0000.0001)                   T
(PID.TID 0000.0001)     ;
(PID.TID 0000.0001) saltAdvection=  /* Salinity advection on/off flag */
(PID.TID 0000.0001)                   T
(PID.TID 0000.0001)     ;
(PID.TID 0000.0001) saltImplVertAdv = /* Sali. implicit vert. advection on/off */
(PID.TID 0000.0001)                   F
(PID.TID 0000.0001)     ;
(PID.TID 0000.0001) saltForcing  =  /* Salinity forcing on/off flag */
(PID.TID 0000.0001)                   T
(PID.TID 0000.0001)     ;
(PID.TID 0000.0001) saltIsActiveTr = /* Salt  is a dynamically Active Tracer */
(PID.TID 0000.0001)                   T
(PID.TID 0000.0001)     ;
(PID.TID 0000.0001)  readBinaryPrec = /* Precision used for reading binary files */
(PID.TID 0000.0001)                      64
(PID.TID 0000.0001)     ;
(PID.TID 0000.0001) writeBinaryPrec = /* Precision used for writing binary files */
(PID.TID 0000.0001)                      32
(PID.TID 0000.0001)     ;
(PID.TID 0000.0001)  globalFiles = /* write "global" (=not per tile) files */
(PID.TID 0000.0001)                   F
(PID.TID 0000.0001)     ;
(PID.TID 0000.0001)  useSingleCpuIO = /* only master MPI process does I/O */
(PID.TID 0000.0001)                   T
(PID.TID 0000.0001)     ;
(PID.TID 0000.0001) /* debLev[*]  : level of debug & auxiliary message printing */
(PID.TID 0000.0001) debLevZero =  0 ; /* level of disabled aux. msg printing */
(PID.TID 0000.0001)    debLevA =  1 ; /* level of minimum  aux. msg printing */
(PID.TID 0000.0001)    debLevB =  2 ; /* level of low aux. print (report read-file opening)*/
(PID.TID 0000.0001)    debLevC =  3 ; /* level of moderate debug prt (most pkgs debug msg) */
(PID.TID 0000.0001)    debLevD =  4 ; /* level of enhanced debug prt (add DEBUG_STATS prt) */
(PID.TID 0000.0001)    debLevE =  5 ; /* level of extensive debug printing */
(PID.TID 0000.0001) debugLevel =  /* select debug printing level */
(PID.TID 0000.0001)                       2
(PID.TID 0000.0001)     ;
(PID.TID 0000.0001) //
(PID.TID 0000.0001) // Elliptic solver(s) paramters ( PARM02 in namelist )
(PID.TID 0000.0001) //
(PID.TID 0000.0001) cg2dMaxIters =   /* Upper limit on 2d con. grad iterations  */
(PID.TID 0000.0001)                     200
(PID.TID 0000.0001)     ;
(PID.TID 0000.0001) cg2dChkResFreq =   /* 2d con. grad convergence test frequency */
(PID.TID 0000.0001)                       1
(PID.TID 0000.0001)     ;
(PID.TID 0000.0001) cg2dTargetResidual =   /* 2d con. grad target residual  */
(PID.TID 0000.0001)                 1.000000000000000E-07
(PID.TID 0000.0001)     ;
(PID.TID 0000.0001) cg2dTargetResWunit =   /* CG2d target residual [W units] */
(PID.TID 0000.0001)                 1.000000000000000E-14
(PID.TID 0000.0001)     ;
(PID.TID 0000.0001) cg2dPreCondFreq =   /* Freq. for updating cg2d preconditioner */
(PID.TID 0000.0001)                       1
(PID.TID 0000.0001)     ;
(PID.TID 0000.0001) useSRCGSolver =  /* use single reduction CG solver(s) */
(PID.TID 0000.0001)                   F
(PID.TID 0000.0001)     ;
(PID.TID 0000.0001) printResidualFreq = /* Freq. for printing CG residual */
(PID.TID 0000.0001)                       0
(PID.TID 0000.0001)     ;
(PID.TID 0000.0001) //
(PID.TID 0000.0001) // Time stepping paramters ( PARM03 in namelist )
(PID.TID 0000.0001) //
(PID.TID 0000.0001) deltaTmom =   /* Momentum equation timestep ( s ) */
(PID.TID 0000.0001)                 1.200000000000000E+03
(PID.TID 0000.0001)     ;
(PID.TID 0000.0001) deltaTfreesurf = /* FreeSurface equation timestep ( s ) */
(PID.TID 0000.0001)                 8.640000000000000E+04
(PID.TID 0000.0001)     ;
(PID.TID 0000.0001) dTtracerLev =  /* Tracer equation timestep ( s ) */
(PID.TID 0000.0001)    15 @  8.640000000000000E+04              /* K =  1: 15 */
(PID.TID 0000.0001)     ;
(PID.TID 0000.0001) deltaTClock  =   /* Model clock timestep ( s ) */
(PID.TID 0000.0001)                 8.640000000000000E+04
(PID.TID 0000.0001)     ;
(PID.TID 0000.0001) cAdjFreq =   /* Convective adjustment interval ( s ) */
(PID.TID 0000.0001)                 0.000000000000000E+00
(PID.TID 0000.0001)     ;
(PID.TID 0000.0001) momForcingOutAB = /* =1: take Momentum Forcing out of Adams-Bash. stepping */
(PID.TID 0000.0001)                       0
(PID.TID 0000.0001)     ;
(PID.TID 0000.0001) tracForcingOutAB = /* =1: take T,S,pTr Forcing out of Adams-Bash. stepping */
(PID.TID 0000.0001)                       1
(PID.TID 0000.0001)     ;
(PID.TID 0000.0001) momDissip_In_AB = /* put Dissipation Tendency in Adams-Bash. stepping */
(PID.TID 0000.0001)                   T
(PID.TID 0000.0001)     ;
(PID.TID 0000.0001) doAB_onGtGs = /* apply AB on Tendencies (rather than on T,S)*/
(PID.TID 0000.0001)                   T
(PID.TID 0000.0001)     ;
(PID.TID 0000.0001) abEps =   /* Adams-Bashforth-2 stabilizing weight */
(PID.TID 0000.0001)                 1.000000000000000E-01
(PID.TID 0000.0001)     ;
(PID.TID 0000.0001) pickupStrictlyMatch= /* stop if pickup do not strictly match */
(PID.TID 0000.0001)                   T
(PID.TID 0000.0001)     ;
(PID.TID 0000.0001) nIter0   =   /* Run starting timestep number */
(PID.TID 0000.0001)                   72000
(PID.TID 0000.0001)     ;
(PID.TID 0000.0001) nTimeSteps = /* Number of timesteps */
(PID.TID 0000.0001)                      20
(PID.TID 0000.0001)     ;
(PID.TID 0000.0001) nEndIter =   /* Run ending timestep number */
(PID.TID 0000.0001)                   72020
(PID.TID 0000.0001)     ;
(PID.TID 0000.0001) baseTime =   /* Model base time ( s ) */
(PID.TID 0000.0001)                 0.000000000000000E+00
(PID.TID 0000.0001)     ;
(PID.TID 0000.0001) startTime =  /* Run start time ( s ) */
(PID.TID 0000.0001)                 6.220800000000000E+09
(PID.TID 0000.0001)     ;
(PID.TID 0000.0001) endTime  =   /* Integration ending time ( s ) */
(PID.TID 0000.0001)                 6.222528000000000E+09
(PID.TID 0000.0001)     ;
(PID.TID 0000.0001) pChkPtFreq = /* Permanent restart/pickup file interval ( s ) */
(PID.TID 0000.0001)                 1.728000000000000E+06
(PID.TID 0000.0001)     ;
(PID.TID 0000.0001) chkPtFreq  = /* Rolling restart/pickup file interval ( s ) */
(PID.TID 0000.0001)                 0.000000000000000E+00
(PID.TID 0000.0001)     ;
(PID.TID 0000.0001) pickup_write_mdsio =   /* Model IO flag. */
(PID.TID 0000.0001)                   T
(PID.TID 0000.0001)     ;
(PID.TID 0000.0001) pickup_read_mdsio =   /* Model IO flag. */
(PID.TID 0000.0001)                   T
(PID.TID 0000.0001)     ;
(PID.TID 0000.0001) pickup_write_mnc =   /* Model IO flag. */
(PID.TID 0000.0001)                   F
(PID.TID 0000.0001)     ;
(PID.TID 0000.0001) pickup_read_mnc =   /* Model IO flag. */
(PID.TID 0000.0001)                   F
(PID.TID 0000.0001)     ;
(PID.TID 0000.0001) pickup_write_immed =   /* Model IO flag. */
(PID.TID 0000.0001)                   F
(PID.TID 0000.0001)     ;
(PID.TID 0000.0001) writePickupAtEnd =   /* Model IO flag. */
(PID.TID 0000.0001)                   T
(PID.TID 0000.0001)     ;
(PID.TID 0000.0001) dumpFreq =   /* Model state write out interval ( s ). */
(PID.TID 0000.0001)                 6.220800000000000E+08
(PID.TID 0000.0001)     ;
(PID.TID 0000.0001) dumpInitAndLast= /* write out Initial & Last iter. model state */
(PID.TID 0000.0001)                   T
(PID.TID 0000.0001)     ;
(PID.TID 0000.0001) snapshot_mdsio =   /* Model IO flag. */
(PID.TID 0000.0001)                   F
(PID.TID 0000.0001)     ;
(PID.TID 0000.0001) snapshot_mnc =   /* Model IO flag. */
(PID.TID 0000.0001)                   T
(PID.TID 0000.0001)     ;
(PID.TID 0000.0001) monitorFreq =   /* Monitor output interval ( s ). */
(PID.TID 0000.0001)                 1.000000000000000E+00
(PID.TID 0000.0001)     ;
(PID.TID 0000.0001) monitorSelect = /* select group of variables to monitor */
(PID.TID 0000.0001)                       3
(PID.TID 0000.0001)     ;
(PID.TID 0000.0001) monitor_stdio =   /* Model IO flag. */
(PID.TID 0000.0001)                   T
(PID.TID 0000.0001)     ;
(PID.TID 0000.0001) monitor_mnc =   /* Model IO flag. */
(PID.TID 0000.0001)                   F
(PID.TID 0000.0001)     ;
(PID.TID 0000.0001) externForcingPeriod =   /* forcing period (s) */
(PID.TID 0000.0001)                 2.592000000000000E+06
(PID.TID 0000.0001)     ;
(PID.TID 0000.0001) externForcingCycle =   /* period of the cyle (s). */
(PID.TID 0000.0001)                 3.110400000000000E+07
(PID.TID 0000.0001)     ;
(PID.TID 0000.0001) tauThetaClimRelax =   /* relaxation time scale (s) */
(PID.TID 0000.0001)                 5.184000000000000E+06
(PID.TID 0000.0001)     ;
(PID.TID 0000.0001) tauSaltClimRelax =   /* relaxation time scale (s) */
(PID.TID 0000.0001)                 6.220800000000000E+07
(PID.TID 0000.0001)     ;
(PID.TID 0000.0001) latBandClimRelax =   /* max. Lat. where relaxation */
(PID.TID 0000.0001)                 1.800000000000000E+02
(PID.TID 0000.0001)     ;
(PID.TID 0000.0001) //
(PID.TID 0000.0001) // Gridding paramters ( PARM04 in namelist )
(PID.TID 0000.0001) //
(PID.TID 0000.0001) usingCartesianGrid = /* Cartesian coordinates flag ( True/False ) */
(PID.TID 0000.0001)                   F
(PID.TID 0000.0001)     ;
(PID.TID 0000.0001) usingCylindricalGrid = /* Cylindrical coordinates flag ( True/False ) */
(PID.TID 0000.0001)                   F
(PID.TID 0000.0001)     ;
(PID.TID 0000.0001) usingSphericalPolarGrid = /* Spherical coordinates flag ( True/False ) */
(PID.TID 0000.0001)                   F
(PID.TID 0000.0001)     ;
(PID.TID 0000.0001) usingCurvilinearGrid = /* Curvilinear coordinates flag ( True/False ) */
(PID.TID 0000.0001)                   T
(PID.TID 0000.0001)     ;
(PID.TID 0000.0001) selectSigmaCoord = /* Hybrid-Sigma Vert. Coordinate option */
(PID.TID 0000.0001)                       0
(PID.TID 0000.0001)     ;
(PID.TID 0000.0001) Ro_SeaLevel = /* r(1) ( units of r ==  m ) */
(PID.TID 0000.0001)                 0.000000000000000E+00
(PID.TID 0000.0001)     ;
(PID.TID 0000.0001) rSigmaBnd = /* r/sigma transition ( units of r ==  m ) */
(PID.TID 0000.0001)                 1.234567000000000E+05
(PID.TID 0000.0001)     ;
(PID.TID 0000.0001) rkSign =   /* index orientation relative to vertical coordinate */
(PID.TID 0000.0001)                -1.000000000000000E+00
(PID.TID 0000.0001)     ;
(PID.TID 0000.0001) gravitySign = /* gravity orientation relative to vertical coordinate */
(PID.TID 0000.0001)                -1.000000000000000E+00
(PID.TID 0000.0001)     ;
(PID.TID 0000.0001) mass2rUnit = /* convert mass per unit area [kg/m2] to r-units [m] */
(PID.TID 0000.0001)                 9.661835748792270E-04
(PID.TID 0000.0001)     ;
(PID.TID 0000.0001) rUnit2mass = /* convert r-units [m] to mass per unit area [kg/m2] */
(PID.TID 0000.0001)                 1.035000000000000E+03
(PID.TID 0000.0001)     ;
(PID.TID 0000.0001) drC =   /* C spacing ( units of r ) */
(PID.TID 0000.0001)                 2.500000000000000E+01,      /* K =  1 */
(PID.TID 0000.0001)                 6.000000000000000E+01,      /* K =  2 */
(PID.TID 0000.0001)                 8.500000000000000E+01,      /* K =  3 */
(PID.TID 0000.0001)                 1.200000000000000E+02,      /* K =  4 */
(PID.TID 0000.0001)                 1.650000000000000E+02,      /* K =  5 */
(PID.TID 0000.0001)                 2.150000000000000E+02,      /* K =  6 */
(PID.TID 0000.0001)                 2.650000000000000E+02,      /* K =  7 */
(PID.TID 0000.0001)                 3.150000000000000E+02,      /* K =  8 */
(PID.TID 0000.0001)                 3.650000000000000E+02,      /* K =  9 */
(PID.TID 0000.0001)                 4.150000000000000E+02,      /* K = 10 */
(PID.TID 0000.0001)                 4.650000000000000E+02,      /* K = 11 */
(PID.TID 0000.0001)                 5.150000000000000E+02,      /* K = 12 */
(PID.TID 0000.0001)                 5.650000000000000E+02,      /* K = 13 */
(PID.TID 0000.0001)                 6.150000000000000E+02,      /* K = 14 */
(PID.TID 0000.0001)                 6.650000000000000E+02       /* K = 15 */
(PID.TID 0000.0001)     ;
(PID.TID 0000.0001) drF =   /* W spacing ( units of r ) */
(PID.TID 0000.0001)                 5.000000000000000E+01,      /* K =  1 */
(PID.TID 0000.0001)                 7.000000000000000E+01,      /* K =  2 */
(PID.TID 0000.0001)                 1.000000000000000E+02,      /* K =  3 */
(PID.TID 0000.0001)                 1.400000000000000E+02,      /* K =  4 */
(PID.TID 0000.0001)                 1.900000000000000E+02,      /* K =  5 */
(PID.TID 0000.0001)                 2.400000000000000E+02,      /* K =  6 */
(PID.TID 0000.0001)                 2.900000000000000E+02,      /* K =  7 */
(PID.TID 0000.0001)                 3.400000000000000E+02,      /* K =  8 */
(PID.TID 0000.0001)                 3.900000000000000E+02,      /* K =  9 */
(PID.TID 0000.0001)                 4.400000000000000E+02,      /* K = 10 */
(PID.TID 0000.0001)                 4.900000000000000E+02,      /* K = 11 */
(PID.TID 0000.0001)                 5.400000000000000E+02,      /* K = 12 */
(PID.TID 0000.0001)                 5.900000000000000E+02,      /* K = 13 */
(PID.TID 0000.0001)                 6.400000000000000E+02,      /* K = 14 */
(PID.TID 0000.0001)                 6.900000000000000E+02       /* K = 15 */
(PID.TID 0000.0001)     ;
(PID.TID 0000.0001) xgOrigin = /* X-axis origin of West  edge (cartesian: m, lat-lon: deg.) */
(PID.TID 0000.0001)                 0.000000000000000E+00
(PID.TID 0000.0001)     ;
(PID.TID 0000.0001) ygOrigin = /* Y-axis origin of South edge (cartesian: m, lat-lon: deg.) */
(PID.TID 0000.0001)                 0.000000000000000E+00
(PID.TID 0000.0001)     ;
(PID.TID 0000.0001) rSphere =  /* Radius ( ignored - cartesian, m - spherical ) */
(PID.TID 0000.0001)                 6.370000000000000E+06
(PID.TID 0000.0001)     ;
(PID.TID 0000.0001) radius_fromHorizGrid = /* sphere Radius of input horiz. grid */
(PID.TID 0000.0001)                 6.370000000000000E+06
(PID.TID 0000.0001)     ;
(PID.TID 0000.0001) deepAtmosphere = /* Deep/Shallow Atmosphere flag (True/False) */
(PID.TID 0000.0001)                   F
(PID.TID 0000.0001)     ;
(PID.TID 0000.0001) xC =  /* xC(:,1,:,1) : P-point X coord ( deg. or m if cartesian) */
(PID.TID 0000.0001)                -4.439521994760536E+01,      /* I =  1 */
(PID.TID 0000.0001)                -4.295641272275883E+01,      /* I =  2 */
(PID.TID 0000.0001)                -4.122055553388957E+01,      /* I =  3 */
(PID.TID 0000.0001)      . . .
(PID.TID 0000.0001)                 1.312205555338896E+02,      /* I = 94 */
(PID.TID 0000.0001)                 1.329564127227588E+02,      /* I = 95 */
(PID.TID 0000.0001)                 1.343952199476053E+02,      /* I = 96 */
(PID.TID 0000.0001)                 4.635509675007168E+01,      /* I = 97 */
(PID.TID 0000.0001)                 4.906731228843647E+01,      /* I = 98 */
(PID.TID 0000.0001)                 5.178550688214704E+01,      /* I = 99 */
(PID.TID 0000.0001)      . . .
(PID.TID 0000.0001)                -1.778001716525716E+02,      /* I =190 */
(PID.TID 0000.0001)                -1.779288225675308E+02,      /* I =191 */
(PID.TID 0000.0001)                -1.780367200854751E+02,      /* I =192 */
(PID.TID 0000.0001)                 1.356047800523947E+02,      /* I =193 */
(PID.TID 0000.0001)                 1.358367907661329E+02,      /* I =194 */
(PID.TID 0000.0001)                 1.359720382181193E+02,      /* I =195 */
(PID.TID 0000.0001)      . . .
(PID.TID 0000.0001)                -1.340279617818807E+02,      /* I =286 */
(PID.TID 0000.0001)                -1.341632092338671E+02,      /* I =287 */
(PID.TID 0000.0001)                -1.343952199476053E+02,      /* I =288 */
(PID.TID 0000.0001)                -8.812739148696656E+01,      /* I =289 */
(PID.TID 0000.0001)                -8.820362659721324E+01,      /* I =290 */
(PID.TID 0000.0001)                -8.826768106944316E+01,      /* I =291 */
(PID.TID 0000.0001)      . . .
(PID.TID 0000.0001)                 8.780017165257156E+01,      /* I =382 */
(PID.TID 0000.0001)                 8.792882256753080E+01,      /* I =383 */
(PID.TID 0000.0001)                 8.803672008547504E+01       /* I =384 */
(PID.TID 0000.0001)     ;
(PID.TID 0000.0001) yC =  /* yC(1,:,1,:) : P-point Y coord ( deg. or m if cartesian) */
(PID.TID 0000.0001)                -3.497677942598243E+01,      /* J =  1 */
(PID.TID 0000.0001)                -3.374005967394886E+01,      /* J =  2 */
(PID.TID 0000.0001)                -3.220655175667454E+01,      /* J =  3 */
(PID.TID 0000.0001)                -3.045756348838641E+01,      /* J =  4 */
(PID.TID 0000.0001)                -2.853728129852918E+01,      /* J =  5 */
(PID.TID 0000.0001)                -2.647426640173173E+01,      /* J =  6 */
(PID.TID 0000.0001)                -2.428936657094636E+01,      /* J =  7 */
(PID.TID 0000.0001)                -2.199915808312262E+01,      /* J =  8 */
(PID.TID 0000.0001)                -1.961768597440146E+01,      /* J =  9 */
(PID.TID 0000.0001)                -1.715743888281371E+01,      /* J = 10 */
(PID.TID 0000.0001)                -1.462993396899330E+01,      /* J = 11 */
(PID.TID 0000.0001)                -1.204608340464756E+01,      /* J = 12 */
(PID.TID 0000.0001)                -9.416429130284818E+00,      /* J = 13 */
(PID.TID 0000.0001)                -6.751293662992216E+00,      /* J = 14 */
(PID.TID 0000.0001)                -4.060875511835959E+00,      /* J = 15 */
(PID.TID 0000.0001)                -1.355307764409121E+00       /* J = 16 */
(PID.TID 0000.0001)     ;
(PID.TID 0000.0001) rcoord = /* P-point R coordinate (  units of r ) */
(PID.TID 0000.0001)                -2.500000000000000E+01,      /* K =  1 */
(PID.TID 0000.0001)                -8.500000000000000E+01,      /* K =  2 */
(PID.TID 0000.0001)                -1.700000000000000E+02,      /* K =  3 */
(PID.TID 0000.0001)                -2.900000000000000E+02,      /* K =  4 */
(PID.TID 0000.0001)                -4.550000000000000E+02,      /* K =  5 */
(PID.TID 0000.0001)                -6.700000000000000E+02,      /* K =  6 */
(PID.TID 0000.0001)                -9.350000000000000E+02,      /* K =  7 */
(PID.TID 0000.0001)                -1.250000000000000E+03,      /* K =  8 */
(PID.TID 0000.0001)                -1.615000000000000E+03,      /* K =  9 */
(PID.TID 0000.0001)                -2.030000000000000E+03,      /* K = 10 */
(PID.TID 0000.0001)                -2.495000000000000E+03,      /* K = 11 */
(PID.TID 0000.0001)                -3.010000000000000E+03,      /* K = 12 */
(PID.TID 0000.0001)                -3.575000000000000E+03,      /* K = 13 */
(PID.TID 0000.0001)                -4.190000000000000E+03,      /* K = 14 */
(PID.TID 0000.0001)                -4.855000000000000E+03       /* K = 15 */
(PID.TID 0000.0001)     ;
(PID.TID 0000.0001) rF =   /* W-Interf. R coordinate (  units of r ) */
(PID.TID 0000.0001)                 0.000000000000000E+00,      /* K =  1 */
(PID.TID 0000.0001)                -5.000000000000000E+01,      /* K =  2 */
(PID.TID 0000.0001)                -1.200000000000000E+02,      /* K =  3 */
(PID.TID 0000.0001)                -2.200000000000000E+02,      /* K =  4 */
(PID.TID 0000.0001)                -3.600000000000000E+02,      /* K =  5 */
(PID.TID 0000.0001)                -5.500000000000000E+02,      /* K =  6 */
(PID.TID 0000.0001)                -7.900000000000000E+02,      /* K =  7 */
(PID.TID 0000.0001)                -1.080000000000000E+03,      /* K =  8 */
(PID.TID 0000.0001)                -1.420000000000000E+03,      /* K =  9 */
(PID.TID 0000.0001)                -1.810000000000000E+03,      /* K = 10 */
(PID.TID 0000.0001)                -2.250000000000000E+03,      /* K = 11 */
(PID.TID 0000.0001)                -2.740000000000000E+03,      /* K = 12 */
(PID.TID 0000.0001)                -3.280000000000000E+03,      /* K = 13 */
(PID.TID 0000.0001)                -3.870000000000000E+03,      /* K = 14 */
(PID.TID 0000.0001)                -4.510000000000000E+03,      /* K = 15 */
(PID.TID 0000.0001)                -5.200000000000000E+03       /* K = 16 */
(PID.TID 0000.0001)     ;
(PID.TID 0000.0001) deepFacC = /* deep-model grid factor @ cell-Center (-) */
(PID.TID 0000.0001)    15 @  1.000000000000000E+00              /* K =  1: 15 */
(PID.TID 0000.0001)     ;
(PID.TID 0000.0001) deepFacF = /* deep-model grid factor @ W-Interface (-) */
(PID.TID 0000.0001)    16 @  1.000000000000000E+00              /* K =  1: 16 */
(PID.TID 0000.0001)     ;
(PID.TID 0000.0001) rVel2wUnit = /* convert units: rVel -> wSpeed (=1 if z-coord)*/
(PID.TID 0000.0001)    16 @  1.000000000000000E+00              /* K =  1: 16 */
(PID.TID 0000.0001)     ;
(PID.TID 0000.0001) wUnit2rVel = /* convert units: wSpeed -> rVel (=1 if z-coord)*/
(PID.TID 0000.0001)    16 @  1.000000000000000E+00              /* K =  1: 16 */
(PID.TID 0000.0001)     ;
(PID.TID 0000.0001) dBdrRef = /* Vertical grad. of reference buoyancy [(m/s/r)^2] */
(PID.TID 0000.0001)    15 @  0.000000000000000E+00              /* K =  1: 15 */
(PID.TID 0000.0001)     ;
(PID.TID 0000.0001) rotateGrid = /* use rotated grid ( True/False ) */
(PID.TID 0000.0001)                   F
(PID.TID 0000.0001)     ;
(PID.TID 0000.0001) phiEuler = /* Euler angle, rotation about original z-coordinate [rad] */
(PID.TID 0000.0001)                 0.000000000000000E+00
(PID.TID 0000.0001)     ;
(PID.TID 0000.0001) thetaEuler = /* Euler angle, rotation about new x-coordinate [rad] */
(PID.TID 0000.0001)                 0.000000000000000E+00
(PID.TID 0000.0001)     ;
(PID.TID 0000.0001) psiEuler = /* Euler angle, rotation about new z-coordinate [rad] */
(PID.TID 0000.0001)                 0.000000000000000E+00
(PID.TID 0000.0001)     ;
(PID.TID 0000.0001) dxF =  /* dxF(:,1,:,1) ( units: m ) */
(PID.TID 0000.0001)                 1.202082051331828E+05,      /* I =  1 */
(PID.TID 0000.0001)                 1.563594089971120E+05,      /* I =  2 */
(PID.TID 0000.0001)                 1.835530058121492E+05,      /* I =  3 */
(PID.TID 0000.0001)      . . .
(PID.TID 0000.0001)                 1.835530058121492E+05,      /* I = 94 */
(PID.TID 0000.0001)                 1.563594089971120E+05,      /* I = 95 */
(PID.TID 0000.0001)                 1.202082051331828E+05,      /* I = 96 */
(PID.TID 0000.0001)                 3.012844832048790E+05,      /* I = 97 */
(PID.TID 0000.0001)                 3.017314519159184E+05,      /* I = 98 */
(PID.TID 0000.0001)                 3.026061571839506E+05,      /* I = 99 */
(PID.TID 0000.0001)      . . .
(PID.TID 0000.0001)                 3.026061571839506E+05,      /* I =190 */
(PID.TID 0000.0001)                 3.017314519159184E+05,      /* I =191 */
(PID.TID 0000.0001)                 3.012844832048790E+05,      /* I =192 */
(PID.TID 0000.0001)                 1.202082051331828E+05,      /* I =193 */
(PID.TID 0000.0001)                 1.563594089971120E+05,      /* I =194 */
(PID.TID 0000.0001)                 1.835530058121492E+05,      /* I =195 */
(PID.TID 0000.0001)      . . .
(PID.TID 0000.0001)                 1.835530058121492E+05,      /* I =286 */
(PID.TID 0000.0001)                 1.563594089971120E+05,      /* I =287 */
(PID.TID 0000.0001)                 1.202082051331828E+05,      /* I =288 */
(PID.TID 0000.0001)                 3.012844832048790E+05,      /* I =289 */
(PID.TID 0000.0001)                 3.017314519159184E+05,      /* I =290 */
(PID.TID 0000.0001)                 3.026061571839506E+05,      /* I =291 */
(PID.TID 0000.0001)      . . .
(PID.TID 0000.0001)                 3.026061571839506E+05,      /* I =382 */
(PID.TID 0000.0001)                 3.017314519159184E+05,      /* I =383 */
(PID.TID 0000.0001)                 3.012844832048790E+05       /* I =384 */
(PID.TID 0000.0001)     ;
(PID.TID 0000.0001) dxF =  /* dxF(1,:,1,:) ( units: m ) */
(PID.TID 0000.0001)                 1.202082051331828E+05,      /* J =  1 */
(PID.TID 0000.0001)                 1.572908084538706E+05,      /* J =  2 */
(PID.TID 0000.0001)                 1.840412227747703E+05,      /* J =  3 */
(PID.TID 0000.0001)                 2.048868197919576E+05,      /* J =  4 */
(PID.TID 0000.0001)                 2.220405216043041E+05,      /* J =  5 */
(PID.TID 0000.0001)                 2.365892017348392E+05,      /* J =  6 */
(PID.TID 0000.0001)                 2.491250781852558E+05,      /* J =  7 */
(PID.TID 0000.0001)                 2.599949918261881E+05,      /* J =  8 */
(PID.TID 0000.0001)                 2.694110134598581E+05,      /* J =  9 */
(PID.TID 0000.0001)                 2.775055554645015E+05,      /* J = 10 */
(PID.TID 0000.0001)                 2.843615645344775E+05,      /* J = 11 */
(PID.TID 0000.0001)                 2.900303768613599E+05,      /* J = 12 */
(PID.TID 0000.0001)                 2.945429307892709E+05,      /* J = 13 */
(PID.TID 0000.0001)                 2.979171143158405E+05,      /* J = 14 */
(PID.TID 0000.0001)                 3.001626787528886E+05,      /* J = 15 */
(PID.TID 0000.0001)                 3.012844832048790E+05       /* J = 16 */
(PID.TID 0000.0001)     ;
(PID.TID 0000.0001) dyF =  /* dyF(:,1,:,1) ( units: m ) */
(PID.TID 0000.0001)                 1.202082051331828E+05,      /* I =  1 */
(PID.TID 0000.0001)                 1.572908084538706E+05,      /* I =  2 */
(PID.TID 0000.0001)                 1.840412227747703E+05,      /* I =  3 */
(PID.TID 0000.0001)      . . .
(PID.TID 0000.0001)                 1.840412227747703E+05,      /* I = 94 */
(PID.TID 0000.0001)                 1.572908084538706E+05,      /* I = 95 */
(PID.TID 0000.0001)                 1.202082051331828E+05,      /* I = 96 */
(PID.TID 0000.0001)                 3.012190981969055E+05,      /* I = 97 */
(PID.TID 0000.0001)                 3.016675528553907E+05,      /* I = 98 */
(PID.TID 0000.0001)                 3.025451404065074E+05,      /* I = 99 */
(PID.TID 0000.0001)      . . .
(PID.TID 0000.0001)                 3.025451404065074E+05,      /* I =190 */
(PID.TID 0000.0001)                 3.016675528553907E+05,      /* I =191 */
(PID.TID 0000.0001)                 3.012190981969055E+05,      /* I =192 */
(PID.TID 0000.0001)                 1.202082051331828E+05,      /* I =193 */
(PID.TID 0000.0001)                 1.572908084538706E+05,      /* I =194 */
(PID.TID 0000.0001)                 1.840412227747703E+05,      /* I =195 */
(PID.TID 0000.0001)      . . .
(PID.TID 0000.0001)                 1.840412227747703E+05,      /* I =286 */
(PID.TID 0000.0001)                 1.572908084538706E+05,      /* I =287 */
(PID.TID 0000.0001)                 1.202082051331828E+05,      /* I =288 */
(PID.TID 0000.0001)                 3.012190981969055E+05,      /* I =289 */
(PID.TID 0000.0001)                 3.016675528553907E+05,      /* I =290 */
(PID.TID 0000.0001)                 3.025451404065074E+05,      /* I =291 */
(PID.TID 0000.0001)      . . .
(PID.TID 0000.0001)                 3.025451404065074E+05,      /* I =382 */
(PID.TID 0000.0001)                 3.016675528553907E+05,      /* I =383 */
(PID.TID 0000.0001)                 3.012190981969055E+05       /* I =384 */
(PID.TID 0000.0001)     ;
(PID.TID 0000.0001) dyF =  /* dyF(1,:,1,:) ( units: m ) */
(PID.TID 0000.0001)                 1.202082051331828E+05,      /* J =  1 */
(PID.TID 0000.0001)                 1.563594089971120E+05,      /* J =  2 */
(PID.TID 0000.0001)                 1.835530058121492E+05,      /* J =  3 */
(PID.TID 0000.0001)                 2.045883481718707E+05,      /* J =  4 */
(PID.TID 0000.0001)                 2.218350349844185E+05,      /* J =  5 */
(PID.TID 0000.0001)                 2.364352994647058E+05,      /* J =  6 */
(PID.TID 0000.0001)                 2.490022710862746E+05,      /* J =  7 */
(PID.TID 0000.0001)                 2.598919724358304E+05,      /* J =  8 */
(PID.TID 0000.0001)                 2.693210245495156E+05,      /* J =  9 */
(PID.TID 0000.0001)                 2.774243179696503E+05,      /* J = 10 */
(PID.TID 0000.0001)                 2.842862532064524E+05,      /* J = 11 */
(PID.TID 0000.0001)                 2.899590699694043E+05,      /* J = 12 */
(PID.TID 0000.0001)                 2.944742915095688E+05,      /* J = 13 */
(PID.TID 0000.0001)                 2.978501920522794E+05,      /* J = 14 */
(PID.TID 0000.0001)                 3.000967749619962E+05,      /* J = 15 */
(PID.TID 0000.0001)                 3.012190981969055E+05       /* J = 16 */
(PID.TID 0000.0001)     ;
(PID.TID 0000.0001) dxG =  /* dxG(:,1,:,1) ( units: m ) */
(PID.TID 0000.0001)                 1.009837800879055E+05,      /* I =  1 */
(PID.TID 0000.0001)                 1.534505834330338E+05,      /* I =  2 */
(PID.TID 0000.0001)                 1.823321598773926E+05,      /* I =  3 */
(PID.TID 0000.0001)      . . .
(PID.TID 0000.0001)                 1.823321598773926E+05,      /* I = 94 */
(PID.TID 0000.0001)                 1.534505834330338E+05,      /* I = 95 */
(PID.TID 0000.0001)                 1.009837800879055E+05,      /* I = 96 */
(PID.TID 0000.0001)                 3.014246674484008E+05,      /* I = 97 */
(PID.TID 0000.0001)                 3.018694497480782E+05,      /* I = 98 */
(PID.TID 0000.0001)                 3.027399364062562E+05,      /* I = 99 */
(PID.TID 0000.0001)      . . .
(PID.TID 0000.0001)                 3.027399364062562E+05,      /* I =190 */
(PID.TID 0000.0001)                 3.018694497480782E+05,      /* I =191 */
(PID.TID 0000.0001)                 3.014246674484008E+05,      /* I =192 */
(PID.TID 0000.0001)                 1.009837800879055E+05,      /* I =193 */
(PID.TID 0000.0001)                 1.534505834330338E+05,      /* I =194 */
(PID.TID 0000.0001)                 1.823321598773926E+05,      /* I =195 */
(PID.TID 0000.0001)      . . .
(PID.TID 0000.0001)                 1.823321598773926E+05,      /* I =286 */
(PID.TID 0000.0001)                 1.534505834330338E+05,      /* I =287 */
(PID.TID 0000.0001)                 1.009837800879055E+05,      /* I =288 */
(PID.TID 0000.0001)                 3.014246674484008E+05,      /* I =289 */
(PID.TID 0000.0001)                 3.018694497480782E+05,      /* I =290 */
(PID.TID 0000.0001)                 3.027399364062562E+05,      /* I =291 */
(PID.TID 0000.0001)      . . .
(PID.TID 0000.0001)                 3.027399364062562E+05,      /* I =382 */
(PID.TID 0000.0001)                 3.018694497480782E+05,      /* I =383 */
(PID.TID 0000.0001)                 3.014246674484008E+05       /* I =384 */
(PID.TID 0000.0001)     ;
(PID.TID 0000.0001) dxG =  /* dxG(1,:,1,:) ( units: m ) */
(PID.TID 0000.0001)                 1.009837800879055E+05,      /* J =  1 */
(PID.TID 0000.0001)                 1.403701524205398E+05,      /* J =  2 */
(PID.TID 0000.0001)                 1.716197227386011E+05,      /* J =  3 */
(PID.TID 0000.0001)                 1.950254041626018E+05,      /* J =  4 */
(PID.TID 0000.0001)                 2.138410773065497E+05,      /* J =  5 */
(PID.TID 0000.0001)                 2.295958105911512E+05,      /* J =  6 */
(PID.TID 0000.0001)                 2.430829951739083E+05,      /* J =  7 */
(PID.TID 0000.0001)                 2.547526806712889E+05,      /* J =  8 */
(PID.TID 0000.0001)                 2.648750305193301E+05,      /* J =  9 */
(PID.TID 0000.0001)                 2.736173771018112E+05,      /* J = 10 */
(PID.TID 0000.0001)                 2.810845823202647E+05,      /* J = 11 */
(PID.TID 0000.0001)                 2.873420591008078E+05,      /* J = 12 */
(PID.TID 0000.0001)                 2.924298293668651E+05,      /* J = 13 */
(PID.TID 0000.0001)                 2.963715635865306E+05,      /* J = 14 */
(PID.TID 0000.0001)                 2.991805843171258E+05,      /* J = 15 */
(PID.TID 0000.0001)                 3.008638765647886E+05       /* J = 16 */
(PID.TID 0000.0001)     ;
(PID.TID 0000.0001) dyG =  /* dyG(:,1,:,1) ( units: m ) */
(PID.TID 0000.0001)                 1.009837800879055E+05,      /* I =  1 */
(PID.TID 0000.0001)                 1.403701524205398E+05,      /* I =  2 */
(PID.TID 0000.0001)                 1.716197227386011E+05,      /* I =  3 */
(PID.TID 0000.0001)      . . .
(PID.TID 0000.0001)                 1.950254041626018E+05,      /* I = 94 */
(PID.TID 0000.0001)                 1.716197227386011E+05,      /* I = 95 */
(PID.TID 0000.0001)                 1.403701524205398E+05,      /* I = 96 */
(PID.TID 0000.0001)                 3.011625828699101E+05,      /* I = 97 */
(PID.TID 0000.0001)                 3.013880313304323E+05,      /* I = 98 */
(PID.TID 0000.0001)                 3.020546438966793E+05,      /* I = 99 */
(PID.TID 0000.0001)      . . .
(PID.TID 0000.0001)                 3.031337933484788E+05,      /* I =190 */
(PID.TID 0000.0001)                 3.020546438966793E+05,      /* I =191 */
(PID.TID 0000.0001)                 3.013880313304323E+05,      /* I =192 */
(PID.TID 0000.0001)                 1.009837800879055E+05,      /* I =193 */
(PID.TID 0000.0001)                 1.403701524205398E+05,      /* I =194 */
(PID.TID 0000.0001)                 1.716197227386011E+05,      /* I =195 */
(PID.TID 0000.0001)      . . .
(PID.TID 0000.0001)                 1.950254041626018E+05,      /* I =286 */
(PID.TID 0000.0001)                 1.716197227386011E+05,      /* I =287 */
(PID.TID 0000.0001)                 1.403701524205398E+05,      /* I =288 */
(PID.TID 0000.0001)                 3.011625828699101E+05,      /* I =289 */
(PID.TID 0000.0001)                 3.013880313304323E+05,      /* I =290 */
(PID.TID 0000.0001)                 3.020546438966793E+05,      /* I =291 */
(PID.TID 0000.0001)      . . .
(PID.TID 0000.0001)                 3.031337933484788E+05,      /* I =382 */
(PID.TID 0000.0001)                 3.020546438966793E+05,      /* I =383 */
(PID.TID 0000.0001)                 3.013880313304323E+05       /* I =384 */
(PID.TID 0000.0001)     ;
(PID.TID 0000.0001) dyG =  /* dyG(1,:,1,:) ( units: m ) */
(PID.TID 0000.0001)                 1.009837800879055E+05,      /* J =  1 */
(PID.TID 0000.0001)                 1.534505834330338E+05,      /* J =  2 */
(PID.TID 0000.0001)                 1.823321598773926E+05,      /* J =  3 */
(PID.TID 0000.0001)                 2.038999045536999E+05,      /* J =  4 */
(PID.TID 0000.0001)                 2.213884732245467E+05,      /* J =  5 */
(PID.TID 0000.0001)                 2.361211699596122E+05,      /* J =  6 */
(PID.TID 0000.0001)                 2.487693460283865E+05,      /* J =  7 */
(PID.TID 0000.0001)                 2.597126963772147E+05,      /* J =  8 */
(PID.TID 0000.0001)                 2.691790288994575E+05,      /* J =  9 */
(PID.TID 0000.0001)                 2.773091043277394E+05,      /* J = 10 */
(PID.TID 0000.0001)                 2.841906470085516E+05,      /* J = 11 */
(PID.TID 0000.0001)                 2.898778860929753E+05,      /* J = 12 */
(PID.TID 0000.0001)                 2.944035815526416E+05,      /* J = 13 */
(PID.TID 0000.0001)                 2.977867909042096E+05,      /* J = 14 */
(PID.TID 0000.0001)                 3.000380090330854E+05,      /* J = 15 */
(PID.TID 0000.0001)                 3.011625828699101E+05       /* J = 16 */
(PID.TID 0000.0001)     ;
(PID.TID 0000.0001) dxC =  /* dxC(:,1,:,1) ( units: m ) */
(PID.TID 0000.0001)                 1.114203141013064E+05,      /* I =  1 */
(PID.TID 0000.0001)                 1.391343389937106E+05,      /* I =  2 */
(PID.TID 0000.0001)                 1.709574999026266E+05,      /* I =  3 */
(PID.TID 0000.0001)      . . .
(PID.TID 0000.0001)                 1.946503699269892E+05,      /* I = 94 */
(PID.TID 0000.0001)                 1.709574999026266E+05,      /* I = 95 */
(PID.TID 0000.0001)                 1.391343389937106E+05,      /* I = 96 */
(PID.TID 0000.0001)                 3.012281885409289E+05,      /* I = 97 */
(PID.TID 0000.0001)                 3.014528555318499E+05,      /* I = 98 */
(PID.TID 0000.0001)                 3.021172674809921E+05,      /* I = 99 */
(PID.TID 0000.0001)      . . .
(PID.TID 0000.0001)                 3.031928954490276E+05,      /* I =190 */
(PID.TID 0000.0001)                 3.021172674809921E+05,      /* I =191 */
(PID.TID 0000.0001)                 3.014528555318499E+05,      /* I =192 */
(PID.TID 0000.0001)                 1.114203141013064E+05,      /* I =193 */
(PID.TID 0000.0001)                 1.391343389937106E+05,      /* I =194 */
(PID.TID 0000.0001)                 1.709574999026266E+05,      /* I =195 */
(PID.TID 0000.0001)      . . .
(PID.TID 0000.0001)                 1.946503699269892E+05,      /* I =286 */
(PID.TID 0000.0001)                 1.709574999026266E+05,      /* I =287 */
(PID.TID 0000.0001)                 1.391343389937106E+05,      /* I =288 */
(PID.TID 0000.0001)                 3.012281885409289E+05,      /* I =289 */
(PID.TID 0000.0001)                 3.014528555318499E+05,      /* I =290 */
(PID.TID 0000.0001)                 3.021172674809921E+05,      /* I =291 */
(PID.TID 0000.0001)      . . .
(PID.TID 0000.0001)                 3.031928954490276E+05,      /* I =382 */
(PID.TID 0000.0001)                 3.021172674809921E+05,      /* I =383 */
(PID.TID 0000.0001)                 3.014528555318499E+05       /* I =384 */
(PID.TID 0000.0001)     ;
(PID.TID 0000.0001) dxC =  /* dxC(1,:,1,:) ( units: m ) */
(PID.TID 0000.0001)                 1.114203141013064E+05,      /* J =  1 */
(PID.TID 0000.0001)                 1.549545757850771E+05,      /* J =  2 */
(PID.TID 0000.0001)                 1.829777599966776E+05,      /* J =  3 */
(PID.TID 0000.0001)                 2.042717761866506E+05,      /* J =  4 */
(PID.TID 0000.0001)                 2.216367828252819E+05,      /* J =  5 */
(PID.TID 0000.0001)                 2.363029564123586E+05,      /* J =  6 */
(PID.TID 0000.0001)                 2.489113743322025E+05,      /* J =  7 */
(PID.TID 0000.0001)                 2.598293319150326E+05,      /* J =  8 */
(PID.TID 0000.0001)                 2.692787333338535E+05,      /* J =  9 */
(PID.TID 0000.0001)                 2.773972106720365E+05,      /* J = 10 */
(PID.TID 0000.0001)                 2.842706922224557E+05,      /* J = 11 */
(PID.TID 0000.0001)                 2.899523122489403E+05,      /* J = 12 */
(PID.TID 0000.0001)                 2.944741346384699E+05,      /* J = 13 */
(PID.TID 0000.0001)                 2.978547649292580E+05,      /* J = 14 */
(PID.TID 0000.0001)                 3.001044073506459E+05,      /* J = 15 */
(PID.TID 0000.0001)                 3.012281885409289E+05       /* J = 16 */
(PID.TID 0000.0001)     ;
(PID.TID 0000.0001) dyC =  /* dyC(:,1,:,1) ( units: m ) */
(PID.TID 0000.0001)                 1.114203141013064E+05,      /* I =  1 */
(PID.TID 0000.0001)                 1.549545757850771E+05,      /* I =  2 */
(PID.TID 0000.0001)                 1.829777599966776E+05,      /* I =  3 */
(PID.TID 0000.0001)      . . .
(PID.TID 0000.0001)                 1.829777599966776E+05,      /* I = 94 */
(PID.TID 0000.0001)                 1.549545757850771E+05,      /* I = 95 */
(PID.TID 0000.0001)                 1.114203141013064E+05,      /* I = 96 */
(PID.TID 0000.0001)                 3.013593857228136E+05,      /* I = 97 */
(PID.TID 0000.0001)                 3.018056440786431E+05,      /* I = 98 */
(PID.TID 0000.0001)                 3.026789946729719E+05,      /* I = 99 */
(PID.TID 0000.0001)      . . .
(PID.TID 0000.0001)                 3.026789946729719E+05,      /* I =190 */
(PID.TID 0000.0001)                 3.018056440786431E+05,      /* I =191 */
(PID.TID 0000.0001)                 3.013593857228136E+05,      /* I =192 */
(PID.TID 0000.0001)                 1.114203141013064E+05,      /* I =193 */
(PID.TID 0000.0001)                 1.549545757850771E+05,      /* I =194 */
(PID.TID 0000.0001)                 1.829777599966776E+05,      /* I =195 */
(PID.TID 0000.0001)      . . .
(PID.TID 0000.0001)                 1.829777599966776E+05,      /* I =286 */
(PID.TID 0000.0001)                 1.549545757850771E+05,      /* I =287 */
(PID.TID 0000.0001)                 1.114203141013064E+05,      /* I =288 */
(PID.TID 0000.0001)                 3.013593857228136E+05,      /* I =289 */
(PID.TID 0000.0001)                 3.018056440786431E+05,      /* I =290 */
(PID.TID 0000.0001)                 3.026789946729719E+05,      /* I =291 */
(PID.TID 0000.0001)      . . .
(PID.TID 0000.0001)                 3.026789946729719E+05,      /* I =382 */
(PID.TID 0000.0001)                 3.018056440786431E+05,      /* I =383 */
(PID.TID 0000.0001)                 3.013593857228136E+05       /* I =384 */
(PID.TID 0000.0001)     ;
(PID.TID 0000.0001) dyC =  /* dyC(1,:,1,:) ( units: m ) */
(PID.TID 0000.0001)                 1.114203141013064E+05,      /* J =  1 */
(PID.TID 0000.0001)                 1.391343389937106E+05,      /* J =  2 */
(PID.TID 0000.0001)                 1.709574999026266E+05,      /* J =  3 */
(PID.TID 0000.0001)                 1.946503699269892E+05,      /* J =  4 */
(PID.TID 0000.0001)                 2.135964483342134E+05,      /* J =  5 */
(PID.TID 0000.0001)                 2.294195678257306E+05,      /* J =  6 */
(PID.TID 0000.0001)                 2.429464709770498E+05,      /* J =  7 */
(PID.TID 0000.0001)                 2.546408290696998E+05,      /* J =  8 */
(PID.TID 0000.0001)                 2.647791839299727E+05,      /* J =  9 */
(PID.TID 0000.0001)                 2.735321911346108E+05,      /* J = 10 */
(PID.TID 0000.0001)                 2.810065951609633E+05,      /* J = 11 */
(PID.TID 0000.0001)                 2.872689479506990E+05,      /* J = 12 */
(PID.TID 0000.0001)                 2.923599955312932E+05,      /* J = 13 */
(PID.TID 0000.0001)                 2.963038832565530E+05,      /* J = 14 */
(PID.TID 0000.0001)                 2.991142470004740E+05,      /* J = 15 */
(PID.TID 0000.0001)                 3.007982711627968E+05       /* J = 16 */
(PID.TID 0000.0001)     ;
(PID.TID 0000.0001) dxV =  /* dxV(:,1,:,1) ( units: m ) */
(PID.TID 0000.0001)                 8.015229982413632E+04,      /* I =  1 */
(PID.TID 0000.0001)                 1.333130744933864E+05,      /* I =  2 */
(PID.TID 0000.0001)                 1.691744868129062E+05,      /* I =  3 */
(PID.TID 0000.0001)      . . .
(PID.TID 0000.0001)                 1.937548202849060E+05,      /* I = 94 */
(PID.TID 0000.0001)                 1.691744868129062E+05,      /* I = 95 */
(PID.TID 0000.0001)                 1.333130744933864E+05,      /* I = 96 */
(PID.TID 0000.0001)                 3.013686170436881E+05,      /* I = 97 */
(PID.TID 0000.0001)                 3.015922136961168E+05,      /* I = 98 */
(PID.TID 0000.0001)                 3.022533948177109E+05,      /* I = 99 */
(PID.TID 0000.0001)      . . .
(PID.TID 0000.0001)                 3.033238888442880E+05,      /* I =190 */
(PID.TID 0000.0001)                 3.022533948177109E+05,      /* I =191 */
(PID.TID 0000.0001)                 3.015922136961168E+05,      /* I =192 */
(PID.TID 0000.0001)                 8.015229982413632E+04,      /* I =193 */
(PID.TID 0000.0001)                 1.333130744933864E+05,      /* I =194 */
(PID.TID 0000.0001)                 1.691744868129062E+05,      /* I =195 */
(PID.TID 0000.0001)      . . .
(PID.TID 0000.0001)                 1.937548202849060E+05,      /* I =286 */
(PID.TID 0000.0001)                 1.691744868129062E+05,      /* I =287 */
(PID.TID 0000.0001)                 1.333130744933864E+05,      /* I =288 */
(PID.TID 0000.0001)                 3.013686170436881E+05,      /* I =289 */
(PID.TID 0000.0001)                 3.015922136961168E+05,      /* I =290 */
(PID.TID 0000.0001)                 3.022533948177109E+05,      /* I =291 */
(PID.TID 0000.0001)      . . .
(PID.TID 0000.0001)                 3.033238888442880E+05,      /* I =382 */
(PID.TID 0000.0001)                 3.022533948177109E+05,      /* I =383 */
(PID.TID 0000.0001)                 3.015922136961168E+05       /* I =384 */
(PID.TID 0000.0001)     ;
(PID.TID 0000.0001) dxV =  /* dxV(1,:,1,:) ( units: m ) */
(PID.TID 0000.0001)                 8.015229982413632E+04,      /* J =  1 */
(PID.TID 0000.0001)                 1.362652340208229E+05,      /* J =  2 */
(PID.TID 0000.0001)                 1.701080315742101E+05,      /* J =  3 */
(PID.TID 0000.0001)                 1.942331448101592E+05,      /* J =  4 */
(PID.TID 0000.0001)                 2.133486626971531E+05,      /* J =  5 */
(PID.TID 0000.0001)                 2.292584591272880E+05,      /* J =  6 */
(PID.TID 0000.0001)                 2.428369969078989E+05,      /* J =  7 */
(PID.TID 0000.0001)                 2.545652950875683E+05,      /* J =  8 */
(PID.TID 0000.0001)                 2.647274964828301E+05,      /* J =  9 */
(PID.TID 0000.0001)                 2.734980225206389E+05,      /* J = 10 */
(PID.TID 0000.0001)                 2.809856491525217E+05,      /* J = 11 */
(PID.TID 0000.0001)                 2.872580915202295E+05,      /* J = 12 */
(PID.TID 0000.0001)                 2.923567890694162E+05,      /* J = 13 */
(PID.TID 0000.0001)                 2.963063101754721E+05,      /* J = 14 */
(PID.TID 0000.0001)                 2.991205495886625E+05,      /* J = 15 */
(PID.TID 0000.0001)                 3.008068453676764E+05       /* J = 16 */
(PID.TID 0000.0001)     ;
(PID.TID 0000.0001) dyU =  /* dyU(:,1,:,1) ( units: m ) */
(PID.TID 0000.0001)                 8.015229982413632E+04,      /* I =  1 */
(PID.TID 0000.0001)                 1.362652340208229E+05,      /* I =  2 */
(PID.TID 0000.0001)                 1.701080315742101E+05,      /* I =  3 */
(PID.TID 0000.0001)      . . .
(PID.TID 0000.0001)                 1.942331448101592E+05,      /* I = 94 */
(PID.TID 0000.0001)                 1.701080315742101E+05,      /* I = 95 */
(PID.TID 0000.0001)                 1.362652340208229E+05,      /* I = 96 */
(PID.TID 0000.0001)                 3.013031486919771E+05,      /* I = 97 */
(PID.TID 0000.0001)                 3.015274890091515E+05,      /* I = 98 */
(PID.TID 0000.0001)                 3.021908563699420E+05,      /* I = 99 */
(PID.TID 0000.0001)      . . .
(PID.TID 0000.0001)                 3.032648502024415E+05,      /* I =190 */
(PID.TID 0000.0001)                 3.021908563699420E+05,      /* I =191 */
(PID.TID 0000.0001)                 3.015274890091515E+05,      /* I =192 */
(PID.TID 0000.0001)                 8.015229982413632E+04,      /* I =193 */
(PID.TID 0000.0001)                 1.362652340208229E+05,      /* I =194 */
(PID.TID 0000.0001)                 1.701080315742101E+05,      /* I =195 */
(PID.TID 0000.0001)      . . .
(PID.TID 0000.0001)                 1.942331448101592E+05,      /* I =286 */
(PID.TID 0000.0001)                 1.701080315742101E+05,      /* I =287 */
(PID.TID 0000.0001)                 1.362652340208229E+05,      /* I =288 */
(PID.TID 0000.0001)                 3.013031486919771E+05,      /* I =289 */
(PID.TID 0000.0001)                 3.015274890091515E+05,      /* I =290 */
(PID.TID 0000.0001)                 3.021908563699420E+05,      /* I =291 */
(PID.TID 0000.0001)      . . .
(PID.TID 0000.0001)                 3.032648502024415E+05,      /* I =382 */
(PID.TID 0000.0001)                 3.021908563699420E+05,      /* I =383 */
(PID.TID 0000.0001)                 3.015274890091515E+05       /* I =384 */
(PID.TID 0000.0001)     ;
(PID.TID 0000.0001) dyU =  /* dyU(1,:,1,:) ( units: m ) */
(PID.TID 0000.0001)                 8.015229982413632E+04,      /* J =  1 */
(PID.TID 0000.0001)                 1.333130744933864E+05,      /* J =  2 */
(PID.TID 0000.0001)                 1.691744868129062E+05,      /* J =  3 */
(PID.TID 0000.0001)                 1.937548202849060E+05,      /* J =  4 */
(PID.TID 0000.0001)                 2.130490056267208E+05,      /* J =  5 */
(PID.TID 0000.0001)                 2.290479919481738E+05,      /* J =  6 */
(PID.TID 0000.0001)                 2.426774358027003E+05,      /* J =  7 */
(PID.TID 0000.0001)                 2.544372984215561E+05,      /* J =  8 */
(PID.TID 0000.0001)                 2.646201463834826E+05,      /* J =  9 */
(PID.TID 0000.0001)                 2.734046499619031E+05,      /* J = 10 */
(PID.TID 0000.0001)                 2.809019351693761E+05,      /* J = 11 */
(PID.TID 0000.0001)                 2.871811105274442E+05,      /* J = 12 */
(PID.TID 0000.0001)                 2.922844849381675E+05,      /* J = 13 */
(PID.TID 0000.0001)                 2.962371870847826E+05,      /* J = 14 */
(PID.TID 0000.0001)                 2.990534755671296E+05,      /* J = 15 */
(PID.TID 0000.0001)                 3.007409169495504E+05       /* J = 16 */
(PID.TID 0000.0001)     ;
(PID.TID 0000.0001) rA  =  /* rA (:,1,:,1) ( units: m^2 ) */
(PID.TID 0000.0001)                 1.401900702255611E+10,      /* I =  1 */
(PID.TID 0000.0001)                 2.459906945574446E+10,      /* I =  2 */
(PID.TID 0000.0001)                 3.378518544307869E+10,      /* I =  3 */
(PID.TID 0000.0001)      . . .
(PID.TID 0000.0001)                 3.378518544304265E+10,      /* I = 94 */
(PID.TID 0000.0001)                 2.459906945574446E+10,      /* I = 95 */
(PID.TID 0000.0001)                 1.401900702259215E+10,      /* I = 96 */
(PID.TID 0000.0001)                 9.076111290422060E+10,      /* I = 97 */
(PID.TID 0000.0001)                 9.103111035233499E+10,      /* I = 98 */
(PID.TID 0000.0001)                 9.156064070993231E+10,      /* I = 99 */
(PID.TID 0000.0001)      . . .
(PID.TID 0000.0001)                 9.156064070993231E+10,      /* I =190 */
(PID.TID 0000.0001)                 9.103111035233499E+10,      /* I =191 */
(PID.TID 0000.0001)                 9.076111290418457E+10,      /* I =192 */
(PID.TID 0000.0001)                 1.401900702255611E+10,      /* I =193 */
(PID.TID 0000.0001)                 2.459906945574446E+10,      /* I =194 */
(PID.TID 0000.0001)                 3.378518544307869E+10,      /* I =195 */
(PID.TID 0000.0001)      . . .
(PID.TID 0000.0001)                 3.378518544304265E+10,      /* I =286 */
(PID.TID 0000.0001)                 2.459906945574446E+10,      /* I =287 */
(PID.TID 0000.0001)                 1.401900702259215E+10,      /* I =288 */
(PID.TID 0000.0001)                 9.076111290422060E+10,      /* I =289 */
(PID.TID 0000.0001)                 9.103111035233499E+10,      /* I =290 */
(PID.TID 0000.0001)                 9.156064070993231E+10,      /* I =291 */
(PID.TID 0000.0001)      . . .
(PID.TID 0000.0001)                 9.156064070993231E+10,      /* I =382 */
(PID.TID 0000.0001)                 9.103111035233499E+10,      /* I =383 */
(PID.TID 0000.0001)                 9.076111290418457E+10       /* I =384 */
(PID.TID 0000.0001)     ;
(PID.TID 0000.0001) rA  =  /* rA (1,:,1,:) ( units: m^2 ) */
(PID.TID 0000.0001)                 1.401900702255611E+10,      /* J =  1 */
(PID.TID 0000.0001)                 2.459906945574446E+10,      /* J =  2 */
(PID.TID 0000.0001)                 3.378518544307869E+10,      /* J =  3 */
(PID.TID 0000.0001)                 4.192037169898667E+10,      /* J =  4 */
(PID.TID 0000.0001)                 4.925938996118163E+10,      /* J =  5 */
(PID.TID 0000.0001)                 5.594154126607553E+10,      /* J =  6 */
(PID.TID 0000.0001)                 6.203683527776127E+10,      /* J =  7 */
(PID.TID 0000.0001)                 6.757541173817516E+10,      /* J =  8 */
(PID.TID 0000.0001)                 7.256353271748119E+10,      /* J =  9 */
(PID.TID 0000.0001)                 7.699293007098555E+10,      /* J = 10 */
(PID.TID 0000.0001)                 8.084683449728902E+10,      /* J = 11 */
(PID.TID 0000.0001)                 8.410423102799828E+10,      /* J = 12 */
(PID.TID 0000.0001)                 8.674306976737517E+10,      /* J = 13 */
(PID.TID 0000.0001)                 8.874277443041928E+10,      /* J = 14 */
(PID.TID 0000.0001)                 9.008620045350865E+10,      /* J = 15 */
(PID.TID 0000.0001)                 9.076111290418457E+10       /* J = 16 */
(PID.TID 0000.0001)     ;
(PID.TID 0000.0001) rAw =  /* rAw(:,1,:,1) ( units: m^2 ) */
(PID.TID 0000.0001)                 1.216690346714270E+10,      /* I =  1 */
(PID.TID 0000.0001)                 1.974052138506315E+10,      /* I =  2 */
(PID.TID 0000.0001)                 2.943712825252015E+10,      /* I =  3 */
(PID.TID 0000.0001)      . . .
(PID.TID 0000.0001)                 3.801790263325260E+10,      /* I = 94 */
(PID.TID 0000.0001)                 2.943712825251114E+10,      /* I = 95 */
(PID.TID 0000.0001)                 1.974052138509018E+10,      /* I = 96 */
(PID.TID 0000.0001)                 9.071447638299399E+10,      /* I = 97 */
(PID.TID 0000.0001)                 9.085012105610597E+10,      /* I = 98 */
(PID.TID 0000.0001)                 9.125179254955583E+10,      /* I = 99 */
(PID.TID 0000.0001)      . . .
(PID.TID 0000.0001)                 9.190392048045309E+10,      /* I =190 */
(PID.TID 0000.0001)                 9.125179254954683E+10,      /* I =191 */
(PID.TID 0000.0001)                 9.085012105606993E+10,      /* I =192 */
(PID.TID 0000.0001)                 1.216690346714270E+10,      /* I =193 */
(PID.TID 0000.0001)                 1.974052138506315E+10,      /* I =194 */
(PID.TID 0000.0001)                 2.943712825252015E+10,      /* I =195 */
(PID.TID 0000.0001)      . . .
(PID.TID 0000.0001)                 3.801790263325260E+10,      /* I =286 */
(PID.TID 0000.0001)                 2.943712825251114E+10,      /* I =287 */
(PID.TID 0000.0001)                 1.974052138509018E+10,      /* I =288 */
(PID.TID 0000.0001)                 9.071447638299399E+10,      /* I =289 */
(PID.TID 0000.0001)                 9.085012105610597E+10,      /* I =290 */
(PID.TID 0000.0001)                 9.125179254955583E+10,      /* I =291 */
(PID.TID 0000.0001)      . . .
(PID.TID 0000.0001)                 9.190392048045309E+10,      /* I =382 */
(PID.TID 0000.0001)                 9.125179254954683E+10,      /* I =383 */
(PID.TID 0000.0001)                 9.085012105606993E+10       /* I =384 */
(PID.TID 0000.0001)     ;
(PID.TID 0000.0001) rAw =  /* rAw(1,:,1,:) ( units: m^2 ) */
(PID.TID 0000.0001)                 1.216690346714270E+10,      /* J =  1 */
(PID.TID 0000.0001)                 2.390126200743558E+10,      /* J =  2 */
(PID.TID 0000.0001)                 3.341968103208270E+10,      /* J =  3 */
(PID.TID 0000.0001)                 4.168532893152940E+10,      /* J =  4 */
(PID.TID 0000.0001)                 4.909074590409593E+10,      /* J =  5 */
(PID.TID 0000.0001)                 5.581203765722643E+10,      /* J =  6 */
(PID.TID 0000.0001)                 6.193257577506788E+10,      /* J =  7 */
(PID.TID 0000.0001)                 6.748840226738273E+10,      /* J =  8 */
(PID.TID 0000.0001)                 7.248875782324815E+10,      /* J =  9 */
(PID.TID 0000.0001)                 7.692702995909871E+10,      /* J = 10 */
(PID.TID 0000.0001)                 8.078743937057304E+10,      /* J = 11 */
(PID.TID 0000.0001)                 8.404959656062837E+10,      /* J = 12 */
(PID.TID 0000.0001)                 8.669186205742538E+10,      /* J = 13 */
(PID.TID 0000.0001)                 8.869393350723613E+10,      /* J = 14 */
(PID.TID 0000.0001)                 9.003884657168852E+10,      /* J = 15 */
(PID.TID 0000.0001)                 9.071447638299399E+10       /* J = 16 */
(PID.TID 0000.0001)     ;
(PID.TID 0000.0001) rAs =  /* rAs(:,1,:,1) ( units: m^2 ) */
(PID.TID 0000.0001)                 1.216690346714270E+10,      /* I =  1 */
(PID.TID 0000.0001)                 2.390126200743558E+10,      /* I =  2 */
(PID.TID 0000.0001)                 3.341968103208270E+10,      /* I =  3 */
(PID.TID 0000.0001)      . . .
(PID.TID 0000.0001)                 3.341968103208270E+10,      /* I = 94 */
(PID.TID 0000.0001)                 2.390126200743558E+10,      /* I = 95 */
(PID.TID 0000.0001)                 1.216690346714270E+10,      /* I = 96 */
(PID.TID 0000.0001)                 9.083293515008307E+10,      /* I = 97 */
(PID.TID 0000.0001)                 9.110170898494536E+10,      /* I = 98 */
(PID.TID 0000.0001)                 9.162886297688426E+10,      /* I = 99 */
(PID.TID 0000.0001)      . . .
(PID.TID 0000.0001)                 9.162886297688426E+10,      /* I =190 */
(PID.TID 0000.0001)                 9.110170898494536E+10,      /* I =191 */
(PID.TID 0000.0001)                 9.083293515008307E+10,      /* I =192 */
(PID.TID 0000.0001)                 1.216690346714270E+10,      /* I =193 */
(PID.TID 0000.0001)                 2.390126200743558E+10,      /* I =194 */
(PID.TID 0000.0001)                 3.341968103208270E+10,      /* I =195 */
(PID.TID 0000.0001)      . . .
(PID.TID 0000.0001)                 3.341968103208270E+10,      /* I =286 */
(PID.TID 0000.0001)                 2.390126200743558E+10,      /* I =287 */
(PID.TID 0000.0001)                 1.216690346714270E+10,      /* I =288 */
(PID.TID 0000.0001)                 9.083293515008307E+10,      /* I =289 */
(PID.TID 0000.0001)                 9.110170898494536E+10,      /* I =290 */
(PID.TID 0000.0001)                 9.162886297688426E+10,      /* I =291 */
(PID.TID 0000.0001)      . . .
(PID.TID 0000.0001)                 9.162886297688426E+10,      /* I =382 */
(PID.TID 0000.0001)                 9.110170898494536E+10,      /* I =383 */
(PID.TID 0000.0001)                 9.083293515008307E+10       /* I =384 */
(PID.TID 0000.0001)     ;
(PID.TID 0000.0001) rAs =  /* rAs(1,:,1,:) ( units: m^2 ) */
(PID.TID 0000.0001)                 1.216690346714270E+10,      /* J =  1 */
(PID.TID 0000.0001)                 1.974052138506315E+10,      /* J =  2 */
(PID.TID 0000.0001)                 2.943712825252015E+10,      /* J =  3 */
(PID.TID 0000.0001)                 3.801790263324359E+10,      /* J =  4 */
(PID.TID 0000.0001)                 4.571243814189866E+10,      /* J =  5 */
(PID.TID 0000.0001)                 5.269930713599979E+10,      /* J =  6 */
(PID.TID 0000.0001)                 5.907428494299063E+10,      /* J =  7 */
(PID.TID 0000.0001)                 6.488320895111514E+10,      /* J =  8 */
(PID.TID 0000.0001)                 7.014205907741882E+10,      /* J =  9 */
(PID.TID 0000.0001)                 7.484854821847499E+10,      /* J = 10 */
(PID.TID 0000.0001)                 7.898934631431560E+10,      /* J = 11 */
(PID.TID 0000.0001)                 8.254500894894537E+10,      /* J = 12 */
(PID.TID 0000.0001)                 8.549360686473492E+10,      /* J = 13 */
(PID.TID 0000.0001)                 8.781353403175085E+10,      /* J = 14 */
(PID.TID 0000.0001)                 8.948571540392021E+10,      /* J = 15 */
(PID.TID 0000.0001)                 9.049530583086168E+10       /* J = 16 */
(PID.TID 0000.0001)     ;
(PID.TID 0000.0001) globalArea = /* Integrated horizontal Area (m^2) */
(PID.TID 0000.0001)                 3.638867375081599E+14
(PID.TID 0000.0001)     ;
(PID.TID 0000.0001) // =======================================================
(PID.TID 0000.0001) // End of Model config. summary
(PID.TID 0000.0001) // =======================================================
(PID.TID 0000.0001) 
(PID.TID 0000.0001) == Packages configuration : Check & print summary ==
(PID.TID 0000.0001) 
(PID.TID 0000.0001) GMREDI_CHECK: #define GMREDI
(PID.TID 0000.0001) GM_AdvForm =     /* if FALSE => use SkewFlux Form */
(PID.TID 0000.0001)                   T
(PID.TID 0000.0001)     ;
(PID.TID 0000.0001) GM_InMomAsStress = /* if TRUE => apply as Eddy Stress */
(PID.TID 0000.0001)                   F
(PID.TID 0000.0001)     ;
(PID.TID 0000.0001) GM_AdvSeparate = /* Calc Bolus & Euler Adv. separately */
(PID.TID 0000.0001)                   F
(PID.TID 0000.0001)     ;
(PID.TID 0000.0001) GM_ExtraDiag =   /* Tensor Extra Diag (line 1&2) non 0 */
(PID.TID 0000.0001)                   T
(PID.TID 0000.0001)     ;
(PID.TID 0000.0001) GM_isopycK =    /* Background Isopyc. Diffusivity [m^2/s] */
(PID.TID 0000.0001)                 8.000000000000000E+02
(PID.TID 0000.0001)     ;
(PID.TID 0000.0001) GM_skewflx*K =  /* Background GM_SkewFlx Diffusivity [m^2/s] */
(PID.TID 0000.0001)                 0.000000000000000E+00
(PID.TID 0000.0001)     ;
(PID.TID 0000.0001) GM_advec*K =    /* Backg. GM-Advec(=Bolus) Diffusivity [m^2/s]*/
(PID.TID 0000.0001)                 8.000000000000000E+02
(PID.TID 0000.0001)     ;
(PID.TID 0000.0001) GM_Kmin_horiz = /* Minimum Horizontal Diffusivity [m^2/s] */
(PID.TID 0000.0001)                 5.000000000000000E+01
(PID.TID 0000.0001)     ;
(PID.TID 0000.0001) GM_Visbeck_alpha = /* Visbeck alpha coeff. [-] */
(PID.TID 0000.0001)                 0.000000000000000E+00
(PID.TID 0000.0001)     ;
(PID.TID 0000.0001) GM_Small_Number =  /* epsilon used in slope calc */
(PID.TID 0000.0001)                 9.999999999999999E-21
(PID.TID 0000.0001)     ;
(PID.TID 0000.0001) GM_slopeSqCutoff = /* Slope^2 cut-off value */
(PID.TID 0000.0001)                 1.000000000000000E+48
(PID.TID 0000.0001)     ;
(PID.TID 0000.0001) GM_taper_scheme =  /* Type of Tapering/Clipping scheme */
(PID.TID 0000.0001)               'gkw91                                   '
(PID.TID 0000.0001)     ;
(PID.TID 0000.0001) GM_maxSlope =  /* Maximum Slope (Tapering/Clipping) */
(PID.TID 0000.0001)                 1.000000000000000E-02
(PID.TID 0000.0001)     ;
(PID.TID 0000.0001) GM_facTrL2dz = /* Minimum Trans.Layer Thick. (factor of dz) */
(PID.TID 0000.0001)                 1.000000000000000E+00
(PID.TID 0000.0001)     ;
(PID.TID 0000.0001) GM_facTrL2ML = /* Max.Trans.Layer Thick. (factor of MxL Depth)*/
(PID.TID 0000.0001)                 5.000000000000000E+00
(PID.TID 0000.0001)     ;
(PID.TID 0000.0001) GM_maxTransLay = /* Maximum Transition Layer Thickness [m] */
(PID.TID 0000.0001)                 5.000000000000000E+02
(PID.TID 0000.0001)     ;
(PID.TID 0000.0001) GM_UseBVP = /* if TRUE => use bvp a la Ferrari et al. (2010) */
(PID.TID 0000.0001)                   F
(PID.TID 0000.0001)     ;
(PID.TID 0000.0001) GM_BVP_ModeNumber = /* Vertical mode number for BVP wave speed */
(PID.TID 0000.0001)                       1
(PID.TID 0000.0001)     ;
(PID.TID 0000.0001) GM_BVP_cMin = /* Minimum wave speed for BVP [m/s] */
(PID.TID 0000.0001)                 1.000000000000000E-01
(PID.TID 0000.0001)     ;
(PID.TID 0000.0001) GM_useSubMeso = /* if TRUE => use Sub-Meso param. (B.Fox-Kemper) */
(PID.TID 0000.0001)                   F
(PID.TID 0000.0001)     ;
(PID.TID 0000.0001) subMeso_Ceff = /* efficiency coeff. of Mixed-Layer Eddies [-] */
(PID.TID 0000.0001)                 7.000000000000001E-02
(PID.TID 0000.0001)     ;
(PID.TID 0000.0001) subMeso_invTau = /* inverse of Sub-Meso mixing time-scale [/s] */
(PID.TID 0000.0001)                 2.000000000000000E-06
(PID.TID 0000.0001)     ;
(PID.TID 0000.0001) subMeso_LfMin = /* minimum length-scale "Lf" [m] */
(PID.TID 0000.0001)                 1.000000000000000E+03
(PID.TID 0000.0001)     ;
(PID.TID 0000.0001) subMeso_Lmax = /* maximum grid-scale length [m] */
(PID.TID 0000.0001)                 1.100000000000000E+05
(PID.TID 0000.0001)     ;
(PID.TID 0000.0001) GAD_CHECK: #define ALLOW_GENERIC_ADVDIFF
(PID.TID 0000.0001) // =======================================================
(PID.TID 0000.0001) // CONFIG_CHECK : Normal End
(PID.TID 0000.0001) // =======================================================
(PID.TID 0000.0001) 
(PID.TID 0000.0001)  MDS_READ_META: opening file: pickup.0000072000.meta
(PID.TID 0000.0001)  nRecords = 123 ; filePrec =  64 ; fileIter =     72000
(PID.TID 0000.0001)     nDims =   2 , dims:
(PID.TID 0000.0001)    1: 192   1 192
(PID.TID 0000.0001)    2:  32   1  32
(PID.TID 0000.0001)     nFlds =  11 , nFl3D =   8 , fields:
(PID.TID 0000.0001)  >Uvel    < >GuNm1   < >Vvel    < >GvNm1   < >Theta   < >GtNm1   < >Salt    < >GsNm1   < >EtaN    < >dEtaHdt < >EtaH    <
(PID.TID 0000.0001)   nTimRec =   0 , timeList:
(PID.TID 0000.0001) READ_MFLDS_3D_RL: read field: "Uvel    ", #   1 in fldList, rec=   1
(PID.TID 0000.0001)  MDS_READ_FIELD: opening global file: pickup.0000072000
(PID.TID 0000.0001) READ_MFLDS_3D_RL: read field: "Vvel    ", #   3 in fldList, rec=   3
(PID.TID 0000.0001)  MDS_READ_FIELD: opening global file: pickup.0000072000
(PID.TID 0000.0001) READ_MFLDS_3D_RL: read field: "Theta   ", #   5 in fldList, rec=   5
(PID.TID 0000.0001)  MDS_READ_FIELD: opening global file: pickup.0000072000
(PID.TID 0000.0001) READ_MFLDS_3D_RL: read field: "Salt    ", #   7 in fldList, rec=   7
(PID.TID 0000.0001)  MDS_READ_FIELD: opening global file: pickup.0000072000
(PID.TID 0000.0001) READ_MFLDS_3D_RL: read field: "GuNm1   ", #   2 in fldList, rec=   2
(PID.TID 0000.0001)  MDS_READ_FIELD: opening global file: pickup.0000072000
(PID.TID 0000.0001) READ_MFLDS_3D_RL: read field: "GvNm1   ", #   4 in fldList, rec=   4
(PID.TID 0000.0001)  MDS_READ_FIELD: opening global file: pickup.0000072000
(PID.TID 0000.0001) READ_MFLDS_3D_RL: read field: "GtNm1   ", #   6 in fldList, rec=   6
(PID.TID 0000.0001)  MDS_READ_FIELD: opening global file: pickup.0000072000
(PID.TID 0000.0001) READ_MFLDS_3D_RL: read field: "GsNm1   ", #   8 in fldList, rec=   8
(PID.TID 0000.0001)  MDS_READ_FIELD: opening global file: pickup.0000072000
(PID.TID 0000.0001) READ_MFLDS_3D_RL: read field: "EtaN    ", #   9 in fldList, rec= 121
(PID.TID 0000.0001)  MDS_READ_FIELD: opening global file: pickup.0000072000
(PID.TID 0000.0001) READ_MFLDS_3D_RL: read field: "dEtaHdt ", #  10 in fldList, rec= 122
(PID.TID 0000.0001)  MDS_READ_FIELD: opening global file: pickup.0000072000
(PID.TID 0000.0001) READ_MFLDS_3D_RL: read field: "EtaH    ", #  11 in fldList, rec= 123
(PID.TID 0000.0001)  MDS_READ_FIELD: opening global file: pickup.0000072000
(PID.TID 0000.0001) READ_MFLDS_CHECK: - normal end ; reset MFLDS file-name: pickup.0000072000
(PID.TID 0000.0001)  MDS_READ_FIELD: opening global file: trenberth_taux.bin
(PID.TID 0000.0001)  MDS_READ_FIELD: opening global file: trenberth_tauy.bin
(PID.TID 0000.0001)  MDS_READ_FIELD: opening global file: shiQnet_cs32.bin
(PID.TID 0000.0001)  MDS_READ_FIELD: opening global file: shiEmPR_cs32.bin
(PID.TID 0000.0001)  MDS_READ_FIELD: opening global file: lev_surfT_cs_12m.bin
(PID.TID 0000.0001)  MDS_READ_FIELD: opening global file: lev_surfS_cs_12m.bin
(PID.TID 0000.0001)  write diagnostics summary to file ioUnit:      6
Iter.Nb:     72000 ; Time(s):  6.2208000000000E+09
------------------------------------------------------------------------
2D/3D diagnostics: Number of lists:     1
------------------------------------------------------------------------
listId=    1 ; file name: oceDiag
 nFlds, nActive,       freq     &     phase        , nLev               
    8  |    8  |    864000.000000         0.000000 |  15
 levels:   1   2   3   4   5   6   7   8   9  10  11  12  13  14  15
 diag# | name   |   ipt  |  iMate | kLev|   count |   mate.C|           
    78 |DRHODR  |      1 |      0 |  15 |       0 |
    64 |RHOAnoma|     16 |      0 |  15 |       0 |
    79 |CONVADJ |     31 |      0 |  15 |       0 |
   200 |GM_Kwx  |     46 |     61 |  15 |       0 |       0 |
   201 |GM_Kwy  |     61 |     46 |  15 |       0 |       0 |
   202 |GM_Kwz  |     76 |      0 |  15 |       0 |
   203 |GM_PsiX |     91 |    106 |  15 |       0 |       0 |
   204 |GM_PsiY |    106 |     91 |  15 |       0 |       0 |
------------------------------------------------------------------------
Global & Regional Statistics diagnostics: Number of lists:     1
------------------------------------------------------------------------
listId=   1 ; file name: dynStDiag
 nFlds, nActive,       freq     &     phase        |                    
    5  |    5  |   -864000.000000    432000.000000 |
 Regions:   0
 diag# | name   |   ipt  |  iMate |    Volume   |   mate-Vol. |         
    23 |ETAN    |      1 |      0 | 0.00000E+00 |
    30 |UVEL    |      2 |      0 | 0.00000E+00 |
    31 |VVEL    |     17 |      0 | 0.00000E+00 |
    32 |WVEL    |     32 |      0 | 0.00000E+00 |
    26 |THETA   |     47 |      0 | 0.00000E+00 |
------------------------------------------------------------------------
(PID.TID 0000.0001) // =======================================================
(PID.TID 0000.0001) // Model current state
(PID.TID 0000.0001) // =======================================================
(PID.TID 0000.0001) 
(PID.TID 0000.0001) // =======================================================
(PID.TID 0000.0001) // Begin MONITOR dynamic field statistics
(PID.TID 0000.0001) // =======================================================
(PID.TID 0000.0001) %MON time_tsnumber                =                 72000
(PID.TID 0000.0001) %MON time_secondsf                =   6.2208000000000E+09
(PID.TID 0000.0001) %MON dynstat_eta_max              =   9.2249308874653E-01
(PID.TID 0000.0001) %MON dynstat_eta_min              =  -1.6181619580030E+00
(PID.TID 0000.0001) %MON dynstat_eta_mean             =   1.4386344596806E-14
(PID.TID 0000.0001) %MON dynstat_eta_sd               =   5.9907976973986E-01
(PID.TID 0000.0001) %MON dynstat_eta_del2             =   7.8581345364806E-04
(PID.TID 0000.0001) %MON dynstat_uvel_max             =   1.8639442347386E-01
(PID.TID 0000.0001) %MON dynstat_uvel_min             =  -2.8803502100767E-01
(PID.TID 0000.0001) %MON dynstat_uvel_mean            =  -4.8914430325890E-04
(PID.TID 0000.0001) %MON dynstat_uvel_sd              =   1.2021379389426E-02
(PID.TID 0000.0001) %MON dynstat_uvel_del2            =   5.1214215649781E-05
(PID.TID 0000.0001) %MON dynstat_vvel_max             =   1.7346247050018E-01
(PID.TID 0000.0001) %MON dynstat_vvel_min             =  -2.2519444280963E-01
(PID.TID 0000.0001) %MON dynstat_vvel_mean            =  -4.0398186384005E-04
(PID.TID 0000.0001) %MON dynstat_vvel_sd              =   1.2638380334010E-02
(PID.TID 0000.0001) %MON dynstat_vvel_del2            =   5.0639130168720E-05
(PID.TID 0000.0001) %MON dynstat_wvel_max             =   1.0315548206230E-04
(PID.TID 0000.0001) %MON dynstat_wvel_min             =  -2.0412092606640E-04
(PID.TID 0000.0001) %MON dynstat_wvel_mean            =   1.3594270097563E-10
(PID.TID 0000.0001) %MON dynstat_wvel_sd              =   3.8382293649569E-06
(PID.TID 0000.0001) %MON dynstat_wvel_del2            =   2.6457320450043E-08
(PID.TID 0000.0001) %MON dynstat_theta_max            =   3.0925958904704E+01
(PID.TID 0000.0001) %MON dynstat_theta_min            =  -3.0175293673864E+00
(PID.TID 0000.0001) %MON dynstat_theta_mean           =   3.9091304559860E+00
(PID.TID 0000.0001) %MON dynstat_theta_sd             =   4.5711443147581E+00
(PID.TID 0000.0001) %MON dynstat_theta_del2           =   2.6590891135790E-03
(PID.TID 0000.0001) %MON dynstat_salt_max             =   4.1386265990462E+01
(PID.TID 0000.0001) %MON dynstat_salt_min             =   1.8383410676806E+01
(PID.TID 0000.0001) %MON dynstat_salt_mean            =   3.4772068623474E+01
(PID.TID 0000.0001) %MON dynstat_salt_sd              =   5.3145226117181E-01
(PID.TID 0000.0001) %MON dynstat_salt_del2            =   8.0693627005697E-04
(PID.TID 0000.0001) %MON forcing_qnet_max             =   4.6211611868841E+02
(PID.TID 0000.0001) %MON forcing_qnet_min             =  -2.0410376912710E+02
(PID.TID 0000.0001) %MON forcing_qnet_mean            =  -1.2329247921290E+01
(PID.TID 0000.0001) %MON forcing_qnet_sd              =   1.1327998988989E+02
(PID.TID 0000.0001) %MON forcing_qnet_del2            =   4.4323506322358E-01
(PID.TID 0000.0001) %MON forcing_qsw_max              =   0.0000000000000E+00
(PID.TID 0000.0001) %MON forcing_qsw_min              =   0.0000000000000E+00
(PID.TID 0000.0001) %MON forcing_qsw_mean             =   0.0000000000000E+00
(PID.TID 0000.0001) %MON forcing_qsw_sd               =   0.0000000000000E+00
(PID.TID 0000.0001) %MON forcing_qsw_del2             =   0.0000000000000E+00
(PID.TID 0000.0001) %MON forcing_empmr_max            =   7.6494447208479E-05
(PID.TID 0000.0001) %MON forcing_empmr_min            =  -1.5362614137596E-04
(PID.TID 0000.0001) %MON forcing_empmr_mean           =  -2.7256318706594E-21
(PID.TID 0000.0001) %MON forcing_empmr_sd             =   2.4051723601802E-05
(PID.TID 0000.0001) %MON forcing_empmr_del2           =   1.2276157049243E-07
(PID.TID 0000.0001) %MON forcing_fu_max               =   2.4892781143428E-01
(PID.TID 0000.0001) %MON forcing_fu_min               =  -2.5159107438040E-01
(PID.TID 0000.0001) %MON forcing_fu_mean              =  -3.8956966288612E-03
(PID.TID 0000.0001) %MON forcing_fu_sd                =   6.5480383395885E-02
(PID.TID 0000.0001) %MON forcing_fu_del2              =   2.3114393556995E-04
(PID.TID 0000.0001) %MON forcing_fv_max               =   2.9305960402537E-01
(PID.TID 0000.0001) %MON forcing_fv_min               =  -3.3950131228473E-01
(PID.TID 0000.0001) %MON forcing_fv_mean              =  -1.3743384707768E-02
(PID.TID 0000.0001) %MON forcing_fv_sd                =   7.6816469815204E-02
(PID.TID 0000.0001) %MON forcing_fv_del2              =   2.5671701728584E-04
(PID.TID 0000.0001) %MON advcfl_uvel_max              =   8.1692195603793E-02
(PID.TID 0000.0001) %MON advcfl_vvel_max              =   7.5609847114589E-02
(PID.TID 0000.0001) %MON advcfl_wvel_max              =   6.6551124574102E-02
(PID.TID 0000.0001) %MON advcfl_W_hf_max              =   7.3510960005834E-02
(PID.TID 0000.0001) %MON pe_b_mean                    =   4.7811655460464E-04
(PID.TID 0000.0001) %MON ke_max                       =   4.0700637549387E-02
(PID.TID 0000.0001) %MON ke_mean                      =   1.4067882101803E-04
(PID.TID 0000.0001) %MON ke_vol                       =   1.3398024453628E+18
(PID.TID 0000.0001) %MON vort_r_min                   =  -1.1843904755479E-06
(PID.TID 0000.0001) %MON vort_r_max                   =   1.2148454936551E-06
(PID.TID 0000.0001) %MON vort_a_mean                  =  -2.0549865324846E-05
(PID.TID 0000.0001) %MON vort_a_sd                    =   7.5259517155846E-05
(PID.TID 0000.0001) %MON vort_p_mean                  =  -2.4783469227166E-05
(PID.TID 0000.0001) %MON vort_p_sd                    =   1.2812074522595E-04
(PID.TID 0000.0001) %MON surfExpan_theta_mean         =   4.6885453665042E-08
(PID.TID 0000.0001) %MON surfExpan_salt_mean          =   1.4400775280523E-08
(PID.TID 0000.0001) // =======================================================
(PID.TID 0000.0001) // End MONITOR dynamic field statistics
(PID.TID 0000.0001) // =======================================================
 EXTERNAL_FIELDS_LOAD,     72000 : iP,iLd,i0,i1=   12    0   12    1 ; Wght=  0.5000000000  0.5000000000
 EXTERNAL_FIELDS_LOAD, it=     72000 : Reading new data, i0,i1=   12    1 (prev=   12    0 )
(PID.TID 0000.0001)  MDS_READ_FIELD: opening global file: trenberth_taux.bin
(PID.TID 0000.0001)  MDS_READ_FIELD: opening global file: trenberth_taux.bin
(PID.TID 0000.0001)  MDS_READ_FIELD: opening global file: trenberth_tauy.bin
(PID.TID 0000.0001)  MDS_READ_FIELD: opening global file: trenberth_tauy.bin
(PID.TID 0000.0001)  MDS_READ_FIELD: opening global file: shiQnet_cs32.bin
(PID.TID 0000.0001)  MDS_READ_FIELD: opening global file: shiQnet_cs32.bin
(PID.TID 0000.0001)  MDS_READ_FIELD: opening global file: shiEmPR_cs32.bin
(PID.TID 0000.0001)  MDS_READ_FIELD: opening global file: shiEmPR_cs32.bin
(PID.TID 0000.0001)  MDS_READ_FIELD: opening global file: lev_surfT_cs_12m.bin
(PID.TID 0000.0001)  MDS_READ_FIELD: opening global file: lev_surfT_cs_12m.bin
(PID.TID 0000.0001)  MDS_READ_FIELD: opening global file: lev_surfS_cs_12m.bin
(PID.TID 0000.0001)  MDS_READ_FIELD: opening global file: lev_surfS_cs_12m.bin
(PID.TID 0000.0001) SOLVE_FOR_PRESSURE: putPmEinXvector =    F
(PID.TID 0000.0001) SOLVE_FOR_PRESSURE: zeroPsNH=    F , zeroMeanPnh=    F
(PID.TID 0000.0001) SOLVE_FOR_PRESSURE: oldFreeSurfTerm =    F
 cg2d: Sum(rhs),rhsMax =  -9.57811607804615E-12  4.28468236708513E+00
(PID.TID 0000.0001)                    cg2d_init_res =    1.51810352480551E-01
(PID.TID 0000.0001)                       cg2d_iters =    62
(PID.TID 0000.0001)                         cg2d_res =    5.38317007069156E-07
(PID.TID 0000.0001) // =======================================================
(PID.TID 0000.0001) // Begin MONITOR dynamic field statistics
(PID.TID 0000.0001) // =======================================================
(PID.TID 0000.0001) %MON time_tsnumber                =                 72001
(PID.TID 0000.0001) %MON time_secondsf                =   6.2208864000000E+09
(PID.TID 0000.0001) %MON dynstat_eta_max              =   9.2094984872297E-01
(PID.TID 0000.0001) %MON dynstat_eta_min              =  -1.6187595699294E+00
(PID.TID 0000.0001) %MON dynstat_eta_mean             =   1.4056571654759E-14
(PID.TID 0000.0001) %MON dynstat_eta_sd               =   5.9916413535173E-01
(PID.TID 0000.0001) %MON dynstat_eta_del2             =   7.8676230826254E-04
(PID.TID 0000.0001) %MON dynstat_uvel_max             =   1.8681303986206E-01
(PID.TID 0000.0001) %MON dynstat_uvel_min             =  -2.8776693712968E-01
(PID.TID 0000.0001) %MON dynstat_uvel_mean            =  -4.8913555680796E-04
(PID.TID 0000.0001) %MON dynstat_uvel_sd              =   1.2021098501358E-02
(PID.TID 0000.0001) %MON dynstat_uvel_del2            =   5.1197752744022E-05
(PID.TID 0000.0001) %MON dynstat_vvel_max             =   1.7374436243240E-01
(PID.TID 0000.0001) %MON dynstat_vvel_min             =  -2.2518000949131E-01
(PID.TID 0000.0001) %MON dynstat_vvel_mean            =  -4.0379443523438E-04
(PID.TID 0000.0001) %MON dynstat_vvel_sd              =   1.2641329518568E-02
(PID.TID 0000.0001) %MON dynstat_vvel_del2            =   5.0606386271680E-05
(PID.TID 0000.0001) %MON dynstat_wvel_max             =   1.0320176431136E-04
(PID.TID 0000.0001) %MON dynstat_wvel_min             =  -2.0437499942328E-04
(PID.TID 0000.0001) %MON dynstat_wvel_mean            =   1.1066087559539E-10
(PID.TID 0000.0001) %MON dynstat_wvel_sd              =   3.8362184385023E-06
(PID.TID 0000.0001) %MON dynstat_wvel_del2            =   2.6458196227492E-08
(PID.TID 0000.0001) %MON dynstat_theta_max            =   3.0941314332787E+01
(PID.TID 0000.0001) %MON dynstat_theta_min            =  -3.0794542961896E+00
(PID.TID 0000.0001) %MON dynstat_theta_mean           =   3.9091876983491E+00
(PID.TID 0000.0001) %MON dynstat_theta_sd             =   4.5711714428745E+00
(PID.TID 0000.0001) %MON dynstat_theta_del2           =   2.6620561000535E-03
(PID.TID 0000.0001) %MON dynstat_salt_max             =   4.1386888351496E+01
(PID.TID 0000.0001) %MON dynstat_salt_min             =   1.8383730367688E+01
(PID.TID 0000.0001) %MON dynstat_salt_mean            =   3.4772068985008E+01
(PID.TID 0000.0001) %MON dynstat_salt_sd              =   5.3145843346428E-01
(PID.TID 0000.0001) %MON dynstat_salt_del2            =   8.0837294845459E-04
(PID.TID 0000.0001) %MON forcing_qnet_max             =   4.5344826813507E+02
(PID.TID 0000.0001) %MON forcing_qnet_min             =  -2.1502574251756E+02
(PID.TID 0000.0001) %MON forcing_qnet_mean            =  -1.2145822391644E+01
(PID.TID 0000.0001) %MON forcing_qnet_sd              =   1.1565376981455E+02
(PID.TID 0000.0001) %MON forcing_qnet_del2            =   4.1640148928199E-01
(PID.TID 0000.0001) %MON forcing_qsw_max              =   0.0000000000000E+00
(PID.TID 0000.0001) %MON forcing_qsw_min              =   0.0000000000000E+00
(PID.TID 0000.0001) %MON forcing_qsw_mean             =   0.0000000000000E+00
(PID.TID 0000.0001) %MON forcing_qsw_sd               =   0.0000000000000E+00
(PID.TID 0000.0001) %MON forcing_qsw_del2             =   0.0000000000000E+00
(PID.TID 0000.0001) %MON forcing_empmr_max            =   7.6494447208479E-05
(PID.TID 0000.0001) %MON forcing_empmr_min            =  -1.5362614137596E-04
(PID.TID 0000.0001) %MON forcing_empmr_mean           =  -2.7256318706594E-21
(PID.TID 0000.0001) %MON forcing_empmr_sd             =   2.4051723601802E-05
(PID.TID 0000.0001) %MON forcing_empmr_del2           =   1.2276157049243E-07
(PID.TID 0000.0001) %MON forcing_fu_max               =   2.4760613571392E-01
(PID.TID 0000.0001) %MON forcing_fu_min               =  -2.0293190974520E-01
(PID.TID 0000.0001) %MON forcing_fu_mean              =  -4.5478806648627E-03
(PID.TID 0000.0001) %MON forcing_fu_sd                =   6.3937396831278E-02
(PID.TID 0000.0001) %MON forcing_fu_del2              =   2.0509729664672E-04
(PID.TID 0000.0001) %MON forcing_fv_max               =   2.5281098043587E-01
(PID.TID 0000.0001) %MON forcing_fv_min               =  -3.2691992401999E-01
(PID.TID 0000.0001) %MON forcing_fv_mean              =  -1.3684501518858E-02
(PID.TID 0000.0001) %MON forcing_fv_sd                =   7.5153512230531E-02
(PID.TID 0000.0001) %MON forcing_fv_del2              =   2.3373863441584E-04
(PID.TID 0000.0001) %MON advcfl_uvel_max              =   8.1616161930796E-02
(PID.TID 0000.0001) %MON advcfl_vvel_max              =   7.5732719836490E-02
(PID.TID 0000.0001) %MON advcfl_wvel_max              =   6.6633962076120E-02
(PID.TID 0000.0001) %MON advcfl_W_hf_max              =   7.3602473808603E-02
(PID.TID 0000.0001) %MON pe_b_mean                    =   4.7825122593863E-04
(PID.TID 0000.0001) %MON ke_max                       =   4.0598961123943E-02
(PID.TID 0000.0001) %MON ke_mean                      =   1.4071022489799E-04
(PID.TID 0000.0001) %MON ke_vol                       =   1.3398024453628E+18
(PID.TID 0000.0001) %MON vort_r_min                   =  -1.1880732749686E-06
(PID.TID 0000.0001) %MON vort_r_max                   =   1.2156883111337E-06
(PID.TID 0000.0001) %MON vort_a_mean                  =  -2.0549865324846E-05
(PID.TID 0000.0001) %MON vort_a_sd                    =   7.5259516952646E-05
(PID.TID 0000.0001) %MON vort_p_mean                  =  -2.4783469220072E-05
(PID.TID 0000.0001) %MON vort_p_sd                    =   1.2812073964458E-04
(PID.TID 0000.0001) %MON surfExpan_theta_mean         =   4.9821553820729E-08
(PID.TID 0000.0001) %MON surfExpan_salt_mean          =   1.4060515079861E-08
(PID.TID 0000.0001) // =======================================================
(PID.TID 0000.0001) // End MONITOR dynamic field statistics
(PID.TID 0000.0001) // =======================================================
 EXTERNAL_FIELDS_LOAD,     72001 : iP,iLd,i0,i1=   12    1   12    1 ; Wght=  0.4666666667  0.5333333333
 cg2d: Sum(rhs),rhsMax =  -9.74864633462857E-12  4.28004243445923E+00
(PID.TID 0000.0001)                    cg2d_init_res =    1.51403695691496E-01
(PID.TID 0000.0001)                       cg2d_iters =    62
(PID.TID 0000.0001)                         cg2d_res =    4.79154030590251E-07
(PID.TID 0000.0001) // =======================================================
(PID.TID 0000.0001) // Begin MONITOR dynamic field statistics
(PID.TID 0000.0001) // =======================================================
(PID.TID 0000.0001) %MON time_tsnumber                =                 72002
(PID.TID 0000.0001) %MON time_secondsf                =   6.2209728000000E+09
(PID.TID 0000.0001) %MON dynstat_eta_max              =   9.1913598230647E-01
(PID.TID 0000.0001) %MON dynstat_eta_min              =  -1.6184825895060E+00
(PID.TID 0000.0001) %MON dynstat_eta_mean             =   1.4193977047279E-14
(PID.TID 0000.0001) %MON dynstat_eta_sd               =   5.9914629735389E-01
(PID.TID 0000.0001) %MON dynstat_eta_del2             =   7.8697019251168E-04
(PID.TID 0000.0001) %MON dynstat_uvel_max             =   1.8714679879095E-01
(PID.TID 0000.0001) %MON dynstat_uvel_min             =  -2.8748492987753E-01
(PID.TID 0000.0001) %MON dynstat_uvel_mean            =  -4.8903187703003E-04
(PID.TID 0000.0001) %MON dynstat_uvel_sd              =   1.2020101410411E-02
(PID.TID 0000.0001) %MON dynstat_uvel_del2            =   5.1179010693971E-05
(PID.TID 0000.0001) %MON dynstat_vvel_max             =   1.7398686305158E-01
(PID.TID 0000.0001) %MON dynstat_vvel_min             =  -2.2515729377527E-01
(PID.TID 0000.0001) %MON dynstat_vvel_mean            =  -4.0366002862247E-04
(PID.TID 0000.0001) %MON dynstat_vvel_sd              =   1.2643785218699E-02
(PID.TID 0000.0001) %MON dynstat_vvel_del2            =   5.0573721796445E-05
(PID.TID 0000.0001) %MON dynstat_wvel_max             =   1.0332757215414E-04
(PID.TID 0000.0001) %MON dynstat_wvel_min             =  -2.0465460668405E-04
(PID.TID 0000.0001) %MON dynstat_wvel_mean            =   1.3244791094434E-10
(PID.TID 0000.0001) %MON dynstat_wvel_sd              =   3.8343025367015E-06
(PID.TID 0000.0001) %MON dynstat_wvel_del2            =   2.6458909060596E-08
(PID.TID 0000.0001) %MON dynstat_theta_max            =   3.0956139592899E+01
(PID.TID 0000.0001) %MON dynstat_theta_min            =  -3.1241213886452E+00
(PID.TID 0000.0001) %MON dynstat_theta_mean           =   3.9092457034385E+00
(PID.TID 0000.0001) %MON dynstat_theta_sd             =   4.5711995142461E+00
(PID.TID 0000.0001) %MON dynstat_theta_del2           =   2.6633597056878E-03
(PID.TID 0000.0001) %MON dynstat_salt_max             =   4.1387502518721E+01
(PID.TID 0000.0001) %MON dynstat_salt_min             =   1.8384045086419E+01
(PID.TID 0000.0001) %MON dynstat_salt_mean            =   3.4772069367533E+01
(PID.TID 0000.0001) %MON dynstat_salt_sd              =   5.3146188825777E-01
(PID.TID 0000.0001) %MON dynstat_salt_del2            =   8.0934200054527E-04
(PID.TID 0000.0001) %MON forcing_qnet_max             =   4.5335380716717E+02
(PID.TID 0000.0001) %MON forcing_qnet_min             =  -2.1405338853096E+02
(PID.TID 0000.0001) %MON forcing_qnet_mean            =  -1.2158050760287E+01
(PID.TID 0000.0001) %MON forcing_qnet_sd              =   1.1544877109799E+02
(PID.TID 0000.0001) %MON forcing_qnet_del2            =   4.1737635676168E-01
(PID.TID 0000.0001) %MON forcing_qsw_max              =   0.0000000000000E+00
(PID.TID 0000.0001) %MON forcing_qsw_min              =   0.0000000000000E+00
(PID.TID 0000.0001) %MON forcing_qsw_mean             =   0.0000000000000E+00
(PID.TID 0000.0001) %MON forcing_qsw_sd               =   0.0000000000000E+00
(PID.TID 0000.0001) %MON forcing_qsw_del2             =   0.0000000000000E+00
(PID.TID 0000.0001) %MON forcing_empmr_max            =   7.6494447208479E-05
(PID.TID 0000.0001) %MON forcing_empmr_min            =  -1.5362614137596E-04
(PID.TID 0000.0001) %MON forcing_empmr_mean           =  -2.7256318706594E-21
(PID.TID 0000.0001) %MON forcing_empmr_sd             =   2.4051723601802E-05
(PID.TID 0000.0001) %MON forcing_empmr_del2           =   1.2276157049243E-07
(PID.TID 0000.0001) %MON forcing_fu_max               =   2.4755808644372E-01
(PID.TID 0000.0001) %MON forcing_fu_min               =  -2.0607770640355E-01
(PID.TID 0000.0001) %MON forcing_fu_mean              =  -4.5044017291293E-03
(PID.TID 0000.0001) %MON forcing_fu_sd                =   6.3947166868600E-02
(PID.TID 0000.0001) %MON forcing_fu_del2              =   2.0524826999043E-04
(PID.TID 0000.0001) %MON forcing_fv_max               =   2.5549422200851E-01
(PID.TID 0000.0001) %MON forcing_fv_min               =  -3.2770782795392E-01
(PID.TID 0000.0001) %MON forcing_fv_mean              =  -1.3688427064785E-02
(PID.TID 0000.0001) %MON forcing_fv_sd                =   7.5192943168452E-02
(PID.TID 0000.0001) %MON forcing_fv_del2              =   2.3392164091250E-04
(PID.TID 0000.0001) %MON advcfl_uvel_max              =   8.1536179324779E-02
(PID.TID 0000.0001) %MON advcfl_vvel_max              =   7.5838422439989E-02
(PID.TID 0000.0001) %MON advcfl_wvel_max              =   6.6725124594346E-02
(PID.TID 0000.0001) %MON advcfl_W_hf_max              =   7.3703198969012E-02
(PID.TID 0000.0001) %MON pe_b_mean                    =   4.7822274987727E-04
(PID.TID 0000.0001) %MON ke_max                       =   4.0493870926776E-02
(PID.TID 0000.0001) %MON ke_mean                      =   1.4072791750548E-04
(PID.TID 0000.0001) %MON ke_vol                       =   1.3398024453628E+18
(PID.TID 0000.0001) %MON vort_r_min                   =  -1.1920492548652E-06
(PID.TID 0000.0001) %MON vort_r_max                   =   1.2168186927274E-06
(PID.TID 0000.0001) %MON vort_a_mean                  =  -2.0549865324846E-05
(PID.TID 0000.0001) %MON vort_a_sd                    =   7.5259516742447E-05
(PID.TID 0000.0001) %MON vort_p_mean                  =  -2.4783469212065E-05
(PID.TID 0000.0001) %MON vort_p_sd                    =   1.2812073725510E-04
(PID.TID 0000.0001) %MON surfExpan_theta_mean         =   4.8401790972818E-08
(PID.TID 0000.0001) %MON surfExpan_salt_mean          =   1.4088592292988E-08
(PID.TID 0000.0001) // =======================================================
(PID.TID 0000.0001) // End MONITOR dynamic field statistics
(PID.TID 0000.0001) // =======================================================
 EXTERNAL_FIELDS_LOAD,     72002 : iP,iLd,i0,i1=   12    1   12    1 ; Wght=  0.4333333333  0.5666666667
 cg2d: Sum(rhs),rhsMax =  -9.60653778747655E-12  4.27731817879412E+00
(PID.TID 0000.0001)                    cg2d_init_res =    1.53364315257948E-01
(PID.TID 0000.0001)                       cg2d_iters =    61
(PID.TID 0000.0001)                         cg2d_res =    5.72596872138082E-07
(PID.TID 0000.0001) // =======================================================
(PID.TID 0000.0001) // Begin MONITOR dynamic field statistics
(PID.TID 0000.0001) // =======================================================
(PID.TID 0000.0001) %MON time_tsnumber                =                 72003
(PID.TID 0000.0001) %MON time_secondsf                =   6.2210592000000E+09
(PID.TID 0000.0001) %MON dynstat_eta_max              =   9.1745493613676E-01
(PID.TID 0000.0001) %MON dynstat_eta_min              =  -1.6178886208273E+00
(PID.TID 0000.0001) %MON dynstat_eta_mean             =   1.4510009450074E-14
(PID.TID 0000.0001) %MON dynstat_eta_sd               =   5.9906764597794E-01
(PID.TID 0000.0001) %MON dynstat_eta_del2             =   7.8731379712496E-04
(PID.TID 0000.0001) %MON dynstat_uvel_max             =   1.8741552170415E-01
(PID.TID 0000.0001) %MON dynstat_uvel_min             =  -2.8718897410670E-01
(PID.TID 0000.0001) %MON dynstat_uvel_mean            =  -4.8877423994927E-04
(PID.TID 0000.0001) %MON dynstat_uvel_sd              =   1.2018889592303E-02
(PID.TID 0000.0001) %MON dynstat_uvel_del2            =   5.1159272481228E-05
(PID.TID 0000.0001) %MON dynstat_vvel_max             =   1.7419982137533E-01
(PID.TID 0000.0001) %MON dynstat_vvel_min             =  -2.2512629812323E-01
(PID.TID 0000.0001) %MON dynstat_vvel_mean            =  -4.0359839224627E-04
(PID.TID 0000.0001) %MON dynstat_vvel_sd              =   1.2646216363635E-02
(PID.TID 0000.0001) %MON dynstat_vvel_del2            =   5.0541987414375E-05
(PID.TID 0000.0001) %MON dynstat_wvel_max             =   1.0351650843866E-04
(PID.TID 0000.0001) %MON dynstat_wvel_min             =  -2.0488441433934E-04
(PID.TID 0000.0001) %MON dynstat_wvel_mean            =   1.4004639291663E-10
(PID.TID 0000.0001) %MON dynstat_wvel_sd              =   3.8321596365400E-06
(PID.TID 0000.0001) %MON dynstat_wvel_del2            =   2.6458711557664E-08
(PID.TID 0000.0001) %MON dynstat_theta_max            =   3.0970445773692E+01
(PID.TID 0000.0001) %MON dynstat_theta_min            =  -3.1690508764658E+00
(PID.TID 0000.0001) %MON dynstat_theta_mean           =   3.9093037470401E+00
(PID.TID 0000.0001) %MON dynstat_theta_sd             =   4.5712311580543E+00
(PID.TID 0000.0001) %MON dynstat_theta_del2           =   2.6711475810507E-03
(PID.TID 0000.0001) %MON dynstat_salt_max             =   4.1388107714781E+01
(PID.TID 0000.0001) %MON dynstat_salt_min             =   1.8384367184894E+01
(PID.TID 0000.0001) %MON dynstat_salt_mean            =   3.4772069768165E+01
(PID.TID 0000.0001) %MON dynstat_salt_sd              =   5.3146312130002E-01
(PID.TID 0000.0001) %MON dynstat_salt_del2            =   8.1244395653622E-04
(PID.TID 0000.0001) %MON forcing_qnet_max             =   4.5325934619927E+02
(PID.TID 0000.0001) %MON forcing_qnet_min             =  -2.1308103454435E+02
(PID.TID 0000.0001) %MON forcing_qnet_mean            =  -1.2170279128930E+01
(PID.TID 0000.0001) %MON forcing_qnet_sd              =   1.1525031618572E+02
(PID.TID 0000.0001) %MON forcing_qnet_del2            =   4.1847271762860E-01
(PID.TID 0000.0001) %MON forcing_qsw_max              =   0.0000000000000E+00
(PID.TID 0000.0001) %MON forcing_qsw_min              =   0.0000000000000E+00
(PID.TID 0000.0001) %MON forcing_qsw_mean             =   0.0000000000000E+00
(PID.TID 0000.0001) %MON forcing_qsw_sd               =   0.0000000000000E+00
(PID.TID 0000.0001) %MON forcing_qsw_del2             =   0.0000000000000E+00
(PID.TID 0000.0001) %MON forcing_empmr_max            =   7.6494447208479E-05
(PID.TID 0000.0001) %MON forcing_empmr_min            =  -1.5362614137596E-04
(PID.TID 0000.0001) %MON forcing_empmr_mean           =  -2.7256318706594E-21
(PID.TID 0000.0001) %MON forcing_empmr_sd             =   2.4051723601802E-05
(PID.TID 0000.0001) %MON forcing_empmr_del2           =   1.2276157049243E-07
(PID.TID 0000.0001) %MON forcing_fu_max               =   2.4751003717351E-01
(PID.TID 0000.0001) %MON forcing_fu_min               =  -2.0922350306190E-01
(PID.TID 0000.0001) %MON forcing_fu_mean              =  -4.4609227933959E-03
(PID.TID 0000.0001) %MON forcing_fu_sd                =   6.3970406478471E-02
(PID.TID 0000.0001) %MON forcing_fu_del2              =   2.0564087338622E-04
(PID.TID 0000.0001) %MON forcing_fv_max               =   2.5817746358114E-01
(PID.TID 0000.0001) %MON forcing_fv_min               =  -3.2849573188785E-01
(PID.TID 0000.0001) %MON forcing_fv_mean              =  -1.3692352610712E-02
(PID.TID 0000.0001) %MON forcing_fv_sd                =   7.5242720295677E-02
(PID.TID 0000.0001) %MON forcing_fv_del2              =   2.3430754301775E-04
(PID.TID 0000.0001) %MON advcfl_uvel_max              =   8.1452240654279E-02
(PID.TID 0000.0001) %MON advcfl_vvel_max              =   7.5931247973111E-02
(PID.TID 0000.0001) %MON advcfl_wvel_max              =   6.6800050561958E-02
(PID.TID 0000.0001) %MON advcfl_W_hf_max              =   7.3785963879547E-02
(PID.TID 0000.0001) %MON pe_b_mean                    =   4.7809720321633E-04
(PID.TID 0000.0001) %MON ke_max                       =   4.0385392647541E-02
(PID.TID 0000.0001) %MON ke_mean                      =   1.4074291807489E-04
(PID.TID 0000.0001) %MON ke_vol                       =   1.3398024453628E+18
(PID.TID 0000.0001) %MON vort_r_min                   =  -1.1963277685884E-06
(PID.TID 0000.0001) %MON vort_r_max                   =   1.2181973234986E-06
(PID.TID 0000.0001) %MON vort_a_mean                  =  -2.0549865324846E-05
(PID.TID 0000.0001) %MON vort_a_sd                    =   7.5259516567428E-05
(PID.TID 0000.0001) %MON vort_p_mean                  =  -2.4783469206023E-05
(PID.TID 0000.0001) %MON vort_p_sd                    =   1.2812073471229E-04
(PID.TID 0000.0001) %MON surfExpan_theta_mean         =   4.7445623423219E-08
(PID.TID 0000.0001) %MON surfExpan_salt_mean          =   1.4101522500706E-08
(PID.TID 0000.0001) // =======================================================
(PID.TID 0000.0001) // End MONITOR dynamic field statistics
(PID.TID 0000.0001) // =======================================================
 EXTERNAL_FIELDS_LOAD,     72003 : iP,iLd,i0,i1=   12    1   12    1 ; Wght=  0.4000000000  0.6000000000
 cg2d: Sum(rhs),rhsMax =  -9.49285094975494E-12  4.27505598750030E+00
(PID.TID 0000.0001)                    cg2d_init_res =    1.81699976121353E-01
(PID.TID 0000.0001)                       cg2d_iters =    62
(PID.TID 0000.0001)                         cg2d_res =    4.81370842994723E-07
(PID.TID 0000.0001) // =======================================================
(PID.TID 0000.0001) // Begin MONITOR dynamic field statistics
(PID.TID 0000.0001) // =======================================================
(PID.TID 0000.0001) %MON time_tsnumber                =                 72004
(PID.TID 0000.0001) %MON time_secondsf                =   6.2211456000000E+09
(PID.TID 0000.0001) %MON dynstat_eta_max              =   9.1588185532826E-01
(PID.TID 0000.0001) %MON dynstat_eta_min              =  -1.6172915433683E+00
(PID.TID 0000.0001) %MON dynstat_eta_mean             =   1.4207717586531E-14
(PID.TID 0000.0001) %MON dynstat_eta_sd               =   5.9896382451676E-01
(PID.TID 0000.0001) %MON dynstat_eta_del2             =   7.8777225115009E-04
(PID.TID 0000.0001) %MON dynstat_uvel_max             =   1.8761472454405E-01
(PID.TID 0000.0001) %MON dynstat_uvel_min             =  -2.8687870423071E-01
(PID.TID 0000.0001) %MON dynstat_uvel_mean            =  -4.8840740088635E-04
(PID.TID 0000.0001) %MON dynstat_uvel_sd              =   1.2017410194918E-02
(PID.TID 0000.0001) %MON dynstat_uvel_del2            =   5.1138381100622E-05
(PID.TID 0000.0001) %MON dynstat_vvel_max             =   1.7438123995683E-01
(PID.TID 0000.0001) %MON dynstat_vvel_min             =  -2.2508733119716E-01
(PID.TID 0000.0001) %MON dynstat_vvel_mean            =  -4.0354268239145E-04
(PID.TID 0000.0001) %MON dynstat_vvel_sd              =   1.2648433791663E-02
(PID.TID 0000.0001) %MON dynstat_vvel_del2            =   5.0511037515150E-05
(PID.TID 0000.0001) %MON dynstat_wvel_max             =   1.0376718306232E-04
(PID.TID 0000.0001) %MON dynstat_wvel_min             =  -2.0506039987837E-04
(PID.TID 0000.0001) %MON dynstat_wvel_mean            =   1.3636145975138E-10
(PID.TID 0000.0001) %MON dynstat_wvel_sd              =   3.8298596480853E-06
(PID.TID 0000.0001) %MON dynstat_wvel_del2            =   2.6457446042192E-08
(PID.TID 0000.0001) %MON dynstat_theta_max            =   3.0984251031488E+01
(PID.TID 0000.0001) %MON dynstat_theta_min            =  -3.2142064426509E+00
(PID.TID 0000.0001) %MON dynstat_theta_mean           =   3.9093618553021E+00
(PID.TID 0000.0001) %MON dynstat_theta_sd             =   4.5712738491363E+00
(PID.TID 0000.0001) %MON dynstat_theta_del2           =   2.6749283156463E-03
(PID.TID 0000.0001) %MON dynstat_salt_max             =   4.1388703520345E+01
(PID.TID 0000.0001) %MON dynstat_salt_min             =   1.8384696560030E+01
(PID.TID 0000.0001) %MON dynstat_salt_mean            =   3.4772070185941E+01
(PID.TID 0000.0001) %MON dynstat_salt_sd              =   5.3146688536072E-01
(PID.TID 0000.0001) %MON dynstat_salt_del2            =   8.1374950332453E-04
(PID.TID 0000.0001) %MON forcing_qnet_max             =   4.5316488523137E+02
(PID.TID 0000.0001) %MON forcing_qnet_min             =  -2.1210868055774E+02
(PID.TID 0000.0001) %MON forcing_qnet_mean            =  -1.2182507497573E+01
(PID.TID 0000.0001) %MON forcing_qnet_sd              =   1.1505843893838E+02
(PID.TID 0000.0001) %MON forcing_qnet_del2            =   4.1968961974738E-01
(PID.TID 0000.0001) %MON forcing_qsw_max              =   0.0000000000000E+00
(PID.TID 0000.0001) %MON forcing_qsw_min              =   0.0000000000000E+00
(PID.TID 0000.0001) %MON forcing_qsw_mean             =   0.0000000000000E+00
(PID.TID 0000.0001) %MON forcing_qsw_sd               =   0.0000000000000E+00
(PID.TID 0000.0001) %MON forcing_qsw_del2             =   0.0000000000000E+00
(PID.TID 0000.0001) %MON forcing_empmr_max            =   7.6494447208479E-05
(PID.TID 0000.0001) %MON forcing_empmr_min            =  -1.5362614137596E-04
(PID.TID 0000.0001) %MON forcing_empmr_mean           =  -2.7256318706594E-21
(PID.TID 0000.0001) %MON forcing_empmr_sd             =   2.4051723601802E-05
(PID.TID 0000.0001) %MON forcing_empmr_del2           =   1.2276157049243E-07
(PID.TID 0000.0001) %MON forcing_fu_max               =   2.4746198790331E-01
(PID.TID 0000.0001) %MON forcing_fu_min               =  -2.1236929972025E-01
(PID.TID 0000.0001) %MON forcing_fu_mean              =  -4.4174438576624E-03
(PID.TID 0000.0001) %MON forcing_fu_sd                =   6.4007100989353E-02
(PID.TID 0000.0001) %MON forcing_fu_del2              =   2.0627372714610E-04
(PID.TID 0000.0001) %MON forcing_fv_max               =   2.6086070515377E-01
(PID.TID 0000.0001) %MON forcing_fv_min               =  -3.2928363582178E-01
(PID.TID 0000.0001) %MON forcing_fv_mean              =  -1.3696278156640E-02
(PID.TID 0000.0001) %MON forcing_fv_sd                =   7.5302823094907E-02
(PID.TID 0000.0001) %MON forcing_fv_del2              =   2.3489534074143E-04
(PID.TID 0000.0001) %MON advcfl_uvel_max              =   8.1364242232037E-02
(PID.TID 0000.0001) %MON advcfl_vvel_max              =   7.6010325776925E-02
(PID.TID 0000.0001) %MON advcfl_wvel_max              =   6.6857428488645E-02
(PID.TID 0000.0001) %MON advcfl_W_hf_max              =   7.3849351884081E-02
(PID.TID 0000.0001) %MON pe_b_mean                    =   4.7793150423590E-04
(PID.TID 0000.0001) %MON ke_max                       =   4.0273487174184E-02
(PID.TID 0000.0001) %MON ke_mean                      =   1.4075241858552E-04
(PID.TID 0000.0001) %MON ke_vol                       =   1.3398024453628E+18
(PID.TID 0000.0001) %MON vort_r_min                   =  -1.2008697177237E-06
(PID.TID 0000.0001) %MON vort_r_max                   =   1.2197971190246E-06
(PID.TID 0000.0001) %MON vort_a_mean                  =  -2.0549865324846E-05
(PID.TID 0000.0001) %MON vort_a_sd                    =   7.5259516417559E-05
(PID.TID 0000.0001) %MON vort_p_mean                  =  -2.4783469202400E-05
(PID.TID 0000.0001) %MON vort_p_sd                    =   1.2812073128028E-04
(PID.TID 0000.0001) %MON surfExpan_theta_mean         =   4.7022337594446E-08
(PID.TID 0000.0001) %MON surfExpan_salt_mean          =   1.4117139320667E-08
(PID.TID 0000.0001) // =======================================================
(PID.TID 0000.0001) // End MONITOR dynamic field statistics
(PID.TID 0000.0001) // =======================================================
 EXTERNAL_FIELDS_LOAD,     72004 : iP,iLd,i0,i1=   12    1   12    1 ; Wght=  0.3666666667  0.6333333333
 cg2d: Sum(rhs),rhsMax =  -9.52127265918534E-12  4.27303534904543E+00
(PID.TID 0000.0001)                    cg2d_init_res =    1.50105044779240E-01
(PID.TID 0000.0001)                       cg2d_iters =    62
(PID.TID 0000.0001)                         cg2d_res =    4.63709087631403E-07
(PID.TID 0000.0001) // =======================================================
(PID.TID 0000.0001) // Begin MONITOR dynamic field statistics
(PID.TID 0000.0001) // =======================================================
(PID.TID 0000.0001) %MON time_tsnumber                =                 72005
(PID.TID 0000.0001) %MON time_secondsf                =   6.2212320000000E+09
(PID.TID 0000.0001) %MON dynstat_eta_max              =   9.1437196237710E-01
(PID.TID 0000.0001) %MON dynstat_eta_min              =  -1.6167525378706E+00
(PID.TID 0000.0001) %MON dynstat_eta_mean             =   1.4372604057554E-14
(PID.TID 0000.0001) %MON dynstat_eta_sd               =   5.9885175414233E-01
(PID.TID 0000.0001) %MON dynstat_eta_del2             =   7.8825163477543E-04
(PID.TID 0000.0001) %MON dynstat_uvel_max             =   1.8774219546911E-01
(PID.TID 0000.0001) %MON dynstat_uvel_min             =  -2.8655402145599E-01
(PID.TID 0000.0001) %MON dynstat_uvel_mean            =  -4.8798686974137E-04
(PID.TID 0000.0001) %MON dynstat_uvel_sd              =   1.2015727155791E-02
(PID.TID 0000.0001) %MON dynstat_uvel_del2            =   5.1116857604411E-05
(PID.TID 0000.0001) %MON dynstat_vvel_max             =   1.7453018817137E-01
(PID.TID 0000.0001) %MON dynstat_vvel_min             =  -2.2504065166429E-01
(PID.TID 0000.0001) %MON dynstat_vvel_mean            =  -4.0342194807984E-04
(PID.TID 0000.0001) %MON dynstat_vvel_sd              =   1.2650365434817E-02
(PID.TID 0000.0001) %MON dynstat_vvel_del2            =   5.0481122710603E-05
(PID.TID 0000.0001) %MON dynstat_wvel_max             =   1.0407390733086E-04
(PID.TID 0000.0001) %MON dynstat_wvel_min             =  -2.0518280891744E-04
(PID.TID 0000.0001) %MON dynstat_wvel_mean            =   1.2515957275248E-10
(PID.TID 0000.0001) %MON dynstat_wvel_sd              =   3.8274652274764E-06
(PID.TID 0000.0001) %MON dynstat_wvel_del2            =   2.6455909605131E-08
(PID.TID 0000.0001) %MON dynstat_theta_max            =   3.0997573425732E+01
(PID.TID 0000.0001) %MON dynstat_theta_min            =  -3.2595392744491E+00
(PID.TID 0000.0001) %MON dynstat_theta_mean           =   3.9094200547721E+00
(PID.TID 0000.0001) %MON dynstat_theta_sd             =   4.5713230270203E+00
(PID.TID 0000.0001) %MON dynstat_theta_del2           =   2.6780596977673E-03
(PID.TID 0000.0001) %MON dynstat_salt_max             =   4.1389290585439E+01
(PID.TID 0000.0001) %MON dynstat_salt_min             =   1.8385033075517E+01
(PID.TID 0000.0001) %MON dynstat_salt_mean            =   3.4772070620898E+01
(PID.TID 0000.0001) %MON dynstat_salt_sd              =   5.3147070998064E-01
(PID.TID 0000.0001) %MON dynstat_salt_del2            =   8.1486096876107E-04
(PID.TID 0000.0001) %MON forcing_qnet_max             =   4.5307042426348E+02
(PID.TID 0000.0001) %MON forcing_qnet_min             =  -2.1113632657113E+02
(PID.TID 0000.0001) %MON forcing_qnet_mean            =  -1.2194735866217E+01
(PID.TID 0000.0001) %MON forcing_qnet_sd              =   1.1487317231679E+02
(PID.TID 0000.0001) %MON forcing_qnet_del2            =   4.2102601790904E-01
(PID.TID 0000.0001) %MON forcing_qsw_max              =   0.0000000000000E+00
(PID.TID 0000.0001) %MON forcing_qsw_min              =   0.0000000000000E+00
(PID.TID 0000.0001) %MON forcing_qsw_mean             =   0.0000000000000E+00
(PID.TID 0000.0001) %MON forcing_qsw_sd               =   0.0000000000000E+00
(PID.TID 0000.0001) %MON forcing_qsw_del2             =   0.0000000000000E+00
(PID.TID 0000.0001) %MON forcing_empmr_max            =   7.6494447208479E-05
(PID.TID 0000.0001) %MON forcing_empmr_min            =  -1.5362614137596E-04
(PID.TID 0000.0001) %MON forcing_empmr_mean           =  -2.5159678806086E-21
(PID.TID 0000.0001) %MON forcing_empmr_sd             =   2.4051723601802E-05
(PID.TID 0000.0001) %MON forcing_empmr_del2           =   1.2276157049243E-07
(PID.TID 0000.0001) %MON forcing_fu_max               =   2.4741393863310E-01
(PID.TID 0000.0001) %MON forcing_fu_min               =  -2.1551509637860E-01
(PID.TID 0000.0001) %MON forcing_fu_mean              =  -4.3739649219290E-03
(PID.TID 0000.0001) %MON forcing_fu_sd                =   6.4057227278753E-02
(PID.TID 0000.0001) %MON forcing_fu_del2              =   2.0714462929353E-04
(PID.TID 0000.0001) %MON forcing_fv_max               =   2.6354394672640E-01
(PID.TID 0000.0001) %MON forcing_fv_min               =  -3.3007153975572E-01
(PID.TID 0000.0001) %MON forcing_fv_mean              =  -1.3700203702567E-02
(PID.TID 0000.0001) %MON forcing_fv_sd                =   7.5373226864996E-02
(PID.TID 0000.0001) %MON forcing_fv_del2              =   2.3568352349763E-04
(PID.TID 0000.0001) %MON advcfl_uvel_max              =   8.1272156038321E-02
(PID.TID 0000.0001) %MON advcfl_vvel_max              =   7.6075250205226E-02
(PID.TID 0000.0001) %MON advcfl_wvel_max              =   6.6897338454591E-02
(PID.TID 0000.0001) %MON advcfl_W_hf_max              =   7.3893447867315E-02
(PID.TID 0000.0001) %MON pe_b_mean                    =   4.7775267222793E-04
(PID.TID 0000.0001) %MON ke_max                       =   4.0158198372792E-02
(PID.TID 0000.0001) %MON ke_mean                      =   1.4075627702221E-04
(PID.TID 0000.0001) %MON ke_vol                       =   1.3398024453628E+18
(PID.TID 0000.0001) %MON vort_r_min                   =  -1.2056469054197E-06
(PID.TID 0000.0001) %MON vort_r_max                   =   1.2215887051276E-06
(PID.TID 0000.0001) %MON vort_a_mean                  =  -2.0549865324846E-05
(PID.TID 0000.0001) %MON vort_a_sd                    =   7.5259516289760E-05
(PID.TID 0000.0001) %MON vort_p_mean                  =  -2.4783469197249E-05
(PID.TID 0000.0001) %MON vort_p_sd                    =   1.2812072732432E-04
(PID.TID 0000.0001) %MON surfExpan_theta_mean         =   4.6898799710224E-08
(PID.TID 0000.0001) %MON surfExpan_salt_mean          =   1.4135402659255E-08
(PID.TID 0000.0001) // =======================================================
(PID.TID 0000.0001) // End MONITOR dynamic field statistics
(PID.TID 0000.0001) // =======================================================
 EXTERNAL_FIELDS_LOAD,     72005 : iP,iLd,i0,i1=   12    1   12    1 ; Wght=  0.3333333333  0.6666666667
 cg2d: Sum(rhs),rhsMax =  -9.49285094975494E-12  4.27126141345842E+00
(PID.TID 0000.0001)                    cg2d_init_res =    1.50208869725869E-01
(PID.TID 0000.0001)                       cg2d_iters =    62
(PID.TID 0000.0001)                         cg2d_res =    4.88052721402020E-07
(PID.TID 0000.0001) // =======================================================
(PID.TID 0000.0001) // Begin MONITOR dynamic field statistics
(PID.TID 0000.0001) // =======================================================
(PID.TID 0000.0001) %MON time_tsnumber                =                 72006
(PID.TID 0000.0001) %MON time_secondsf                =   6.2213184000000E+09
(PID.TID 0000.0001) %MON dynstat_eta_max              =   9.1292153927544E-01
(PID.TID 0000.0001) %MON dynstat_eta_min              =  -1.6162501094010E+00
(PID.TID 0000.0001) %MON dynstat_eta_mean             =   1.4317641900547E-14
(PID.TID 0000.0001) %MON dynstat_eta_sd               =   5.9873907651774E-01
(PID.TID 0000.0001) %MON dynstat_eta_del2             =   7.8876283980687E-04
(PID.TID 0000.0001) %MON dynstat_uvel_max             =   1.8779690126504E-01
(PID.TID 0000.0001) %MON dynstat_uvel_min             =  -2.8621498087974E-01
(PID.TID 0000.0001) %MON dynstat_uvel_mean            =  -4.8754142181780E-04
(PID.TID 0000.0001) %MON dynstat_uvel_sd              =   1.2013916222439E-02
(PID.TID 0000.0001) %MON dynstat_uvel_del2            =   5.1095040633918E-05
(PID.TID 0000.0001) %MON dynstat_vvel_max             =   1.7464586844159E-01
(PID.TID 0000.0001) %MON dynstat_vvel_min             =  -2.2498650876950E-01
(PID.TID 0000.0001) %MON dynstat_vvel_mean            =  -4.0319946297737E-04
(PID.TID 0000.0001) %MON dynstat_vvel_sd              =   1.2651952155055E-02
(PID.TID 0000.0001) %MON dynstat_vvel_del2            =   5.0452469059380E-05
(PID.TID 0000.0001) %MON dynstat_wvel_max             =   1.0443190476023E-04
(PID.TID 0000.0001) %MON dynstat_wvel_min             =  -2.0525181615463E-04
(PID.TID 0000.0001) %MON dynstat_wvel_mean            =   1.1508788085584E-10
(PID.TID 0000.0001) %MON dynstat_wvel_sd              =   3.8250204184809E-06
(PID.TID 0000.0001) %MON dynstat_wvel_del2            =   2.6454224589449E-08
(PID.TID 0000.0001) %MON dynstat_theta_max            =   3.1010430182303E+01
(PID.TID 0000.0001) %MON dynstat_theta_min            =  -3.3050247552916E+00
(PID.TID 0000.0001) %MON dynstat_theta_mean           =   3.9094783075202E+00
(PID.TID 0000.0001) %MON dynstat_theta_sd             =   4.5713778639663E+00
(PID.TID 0000.0001) %MON dynstat_theta_del2           =   2.6818781111599E-03
(PID.TID 0000.0001) %MON dynstat_salt_max             =   4.1389870537152E+01
(PID.TID 0000.0001) %MON dynstat_salt_min             =   1.8385376615942E+01
(PID.TID 0000.0001) %MON dynstat_salt_mean            =   3.4772071072581E+01
(PID.TID 0000.0001) %MON dynstat_salt_sd              =   5.3147385660318E-01
(PID.TID 0000.0001) %MON dynstat_salt_del2            =   8.1610677240169E-04
(PID.TID 0000.0001) %MON forcing_qnet_max             =   4.5297596329558E+02
(PID.TID 0000.0001) %MON forcing_qnet_min             =  -2.1016397258453E+02
(PID.TID 0000.0001) %MON forcing_qnet_mean            =  -1.2206964234860E+01
(PID.TID 0000.0001) %MON forcing_qnet_sd              =   1.1469454835547E+02
(PID.TID 0000.0001) %MON forcing_qnet_del2            =   4.2248077813955E-01
(PID.TID 0000.0001) %MON forcing_qsw_max              =   0.0000000000000E+00
(PID.TID 0000.0001) %MON forcing_qsw_min              =   0.0000000000000E+00
(PID.TID 0000.0001) %MON forcing_qsw_mean             =   0.0000000000000E+00
(PID.TID 0000.0001) %MON forcing_qsw_sd               =   0.0000000000000E+00
(PID.TID 0000.0001) %MON forcing_qsw_del2             =   0.0000000000000E+00
(PID.TID 0000.0001) %MON forcing_empmr_max            =   7.6494447208479E-05
(PID.TID 0000.0001) %MON forcing_empmr_min            =  -1.5362614137596E-04
(PID.TID 0000.0001) %MON forcing_empmr_mean           =  -2.9352958607101E-21
(PID.TID 0000.0001) %MON forcing_empmr_sd             =   2.4051723601802E-05
(PID.TID 0000.0001) %MON forcing_empmr_del2           =   1.2276157049243E-07
(PID.TID 0000.0001) %MON forcing_fu_max               =   2.4736588936290E-01
(PID.TID 0000.0001) %MON forcing_fu_min               =  -2.1866089303695E-01
(PID.TID 0000.0001) %MON forcing_fu_mean              =  -4.3304859861956E-03
(PID.TID 0000.0001) %MON forcing_fu_sd                =   6.4120753845867E-02
(PID.TID 0000.0001) %MON forcing_fu_del2              =   2.0825059330114E-04
(PID.TID 0000.0001) %MON forcing_fv_max               =   2.6622718829904E-01
(PID.TID 0000.0001) %MON forcing_fv_min               =  -3.3085944368965E-01
(PID.TID 0000.0001) %MON forcing_fv_mean              =  -1.3704129248494E-02
(PID.TID 0000.0001) %MON forcing_fv_sd                =   7.5453902771370E-02
(PID.TID 0000.0001) %MON forcing_fv_del2              =   2.3667008926707E-04
(PID.TID 0000.0001) %MON advcfl_uvel_max              =   8.1175997699742E-02
(PID.TID 0000.0001) %MON advcfl_vvel_max              =   7.6125673605288E-02
(PID.TID 0000.0001) %MON advcfl_wvel_max              =   6.6919837417961E-02
(PID.TID 0000.0001) %MON advcfl_W_hf_max              =   7.3918311510032E-02
(PID.TID 0000.0001) %MON pe_b_mean                    =   4.7757290496010E-04
(PID.TID 0000.0001) %MON ke_max                       =   4.0039620378688E-02
(PID.TID 0000.0001) %MON ke_mean                      =   1.4075463378808E-04
(PID.TID 0000.0001) %MON ke_vol                       =   1.3398024453628E+18
(PID.TID 0000.0001) %MON vort_r_min                   =  -1.2106308625892E-06
(PID.TID 0000.0001) %MON vort_r_max                   =   1.2235375650396E-06
(PID.TID 0000.0001) %MON vort_a_mean                  =  -2.0549865324846E-05
(PID.TID 0000.0001) %MON vort_a_sd                    =   7.5259516181813E-05
(PID.TID 0000.0001) %MON vort_p_mean                  =  -2.4783469187933E-05
(PID.TID 0000.0001) %MON vort_p_sd                    =   1.2812072326306E-04
(PID.TID 0000.0001) %MON surfExpan_theta_mean         =   4.6966086815578E-08
(PID.TID 0000.0001) %MON surfExpan_salt_mean          =   1.4152916202569E-08
(PID.TID 0000.0001) // =======================================================
(PID.TID 0000.0001) // End MONITOR dynamic field statistics
(PID.TID 0000.0001) // =======================================================
 Compute Stats, Diag. #     23  ETAN      vol(   0 ): 3.639E+14  Parms: SM      M1      
 Compute Stats, Diag. #     30  UVEL      vol(   0 ): 1.231E+18  Parms: UUR     MR      
 Compute Stats, Diag. #     31  VVEL      vol(   0 ): 1.243E+18  Parms: VVR     MR      
 Compute Stats, Diag. #     32  WVEL      vol(   0 ): 1.315E+18  Parms: WM      LR      
 Compute Stats, Diag. #     26  THETA     vol(   0 ): 1.340E+18  Parms: SMR     MR      
 EXTERNAL_FIELDS_LOAD,     72006 : iP,iLd,i0,i1=   12    1   12    1 ; Wght=  0.3000000000  0.7000000000
 cg2d: Sum(rhs),rhsMax =  -9.43600753089413E-12  4.26972554025125E+00
(PID.TID 0000.0001)                    cg2d_init_res =    1.50544223904888E-01
(PID.TID 0000.0001)                       cg2d_iters =    62
(PID.TID 0000.0001)                         cg2d_res =    5.01890843477005E-07
(PID.TID 0000.0001) // =======================================================
(PID.TID 0000.0001) // Begin MONITOR dynamic field statistics
(PID.TID 0000.0001) // =======================================================
(PID.TID 0000.0001) %MON time_tsnumber                =                 72007
(PID.TID 0000.0001) %MON time_secondsf                =   6.2214048000000E+09
(PID.TID 0000.0001) %MON dynstat_eta_max              =   9.1147169874054E-01
(PID.TID 0000.0001) %MON dynstat_eta_min              =  -1.6157594502200E+00
(PID.TID 0000.0001) %MON dynstat_eta_mean             =   1.4193977047279E-14
(PID.TID 0000.0001) %MON dynstat_eta_sd               =   5.9862879782828E-01
(PID.TID 0000.0001) %MON dynstat_eta_del2             =   7.8930196585042E-04
(PID.TID 0000.0001) %MON dynstat_uvel_max             =   1.8777891520593E-01
(PID.TID 0000.0001) %MON dynstat_uvel_min             =  -2.8586164020949E-01
(PID.TID 0000.0001) %MON dynstat_uvel_mean            =  -4.8708543430805E-04
(PID.TID 0000.0001) %MON dynstat_uvel_sd              =   1.2012056497947E-02
(PID.TID 0000.0001) %MON dynstat_uvel_del2            =   5.1073335409583E-05
(PID.TID 0000.0001) %MON dynstat_vvel_max             =   1.7472771708850E-01
(PID.TID 0000.0001) %MON dynstat_vvel_min             =  -2.2492520793706E-01
(PID.TID 0000.0001) %MON dynstat_vvel_mean            =  -4.0287349852877E-04
(PID.TID 0000.0001) %MON dynstat_vvel_sd              =   1.2653139204252E-02
(PID.TID 0000.0001) %MON dynstat_vvel_del2            =   5.0425251723423E-05
(PID.TID 0000.0001) %MON dynstat_wvel_max             =   1.0483410570156E-04
(PID.TID 0000.0001) %MON dynstat_wvel_min             =  -2.0526798155040E-04
(PID.TID 0000.0001) %MON dynstat_wvel_mean            =   1.0814048636685E-10
(PID.TID 0000.0001) %MON dynstat_wvel_sd              =   3.8225619533202E-06
(PID.TID 0000.0001) %MON dynstat_wvel_del2            =   2.6452556898721E-08
(PID.TID 0000.0001) %MON dynstat_theta_max            =   3.1022837676995E+01
(PID.TID 0000.0001) %MON dynstat_theta_min            =  -3.3506365913490E+00
(PID.TID 0000.0001) %MON dynstat_theta_mean           =   3.9095366384339E+00
(PID.TID 0000.0001) %MON dynstat_theta_sd             =   4.5714386488326E+00
(PID.TID 0000.0001) %MON dynstat_theta_del2           =   2.6883357191665E-03
(PID.TID 0000.0001) %MON dynstat_salt_max             =   4.1390445644925E+01
(PID.TID 0000.0001) %MON dynstat_salt_min             =   1.8385727087672E+01
(PID.TID 0000.0001) %MON dynstat_salt_mean            =   3.4772071541640E+01
(PID.TID 0000.0001) %MON dynstat_salt_sd              =   5.3147648180734E-01
(PID.TID 0000.0001) %MON dynstat_salt_del2            =   8.1810172084208E-04
(PID.TID 0000.0001) %MON forcing_qnet_max             =   4.5288150232768E+02
(PID.TID 0000.0001) %MON forcing_qnet_min             =  -2.0919161859792E+02
(PID.TID 0000.0001) %MON forcing_qnet_mean            =  -1.2219192603503E+01
(PID.TID 0000.0001) %MON forcing_qnet_sd              =   1.1452259813662E+02
(PID.TID 0000.0001) %MON forcing_qnet_del2            =   4.2405268227766E-01
(PID.TID 0000.0001) %MON forcing_qsw_max              =   0.0000000000000E+00
(PID.TID 0000.0001) %MON forcing_qsw_min              =   0.0000000000000E+00
(PID.TID 0000.0001) %MON forcing_qsw_mean             =   0.0000000000000E+00
(PID.TID 0000.0001) %MON forcing_qsw_sd               =   0.0000000000000E+00
(PID.TID 0000.0001) %MON forcing_qsw_del2             =   0.0000000000000E+00
(PID.TID 0000.0001) %MON forcing_empmr_max            =   7.6494447208479E-05
(PID.TID 0000.0001) %MON forcing_empmr_min            =  -1.5362614137596E-04
(PID.TID 0000.0001) %MON forcing_empmr_mean           =  -2.7256318706594E-21
(PID.TID 0000.0001) %MON forcing_empmr_sd             =   2.4051723601802E-05
(PID.TID 0000.0001) %MON forcing_empmr_del2           =   1.2276157049243E-07
(PID.TID 0000.0001) %MON forcing_fu_max               =   2.4731784009269E-01
(PID.TID 0000.0001) %MON forcing_fu_min               =  -2.2180668969530E-01
(PID.TID 0000.0001) %MON forcing_fu_mean              =  -4.2870070504621E-03
(PID.TID 0000.0001) %MON forcing_fu_sd                =   6.4197640910106E-02
(PID.TID 0000.0001) %MON forcing_fu_del2              =   2.0958789804308E-04
(PID.TID 0000.0001) %MON forcing_fv_max               =   2.6891042987167E-01
(PID.TID 0000.0001) %MON forcing_fv_min               =  -3.3164734762358E-01
(PID.TID 0000.0001) %MON forcing_fv_mean              =  -1.3708054794422E-02
(PID.TID 0000.0001) %MON forcing_fv_sd                =   7.5544817904543E-02
(PID.TID 0000.0001) %MON forcing_fv_del2              =   2.3785256950118E-04
(PID.TID 0000.0001) %MON advcfl_uvel_max              =   8.1075783583253E-02
(PID.TID 0000.0001) %MON advcfl_vvel_max              =   7.6161350277372E-02
(PID.TID 0000.0001) %MON advcfl_wvel_max              =   6.6925107946999E-02
(PID.TID 0000.0001) %MON advcfl_W_hf_max              =   7.3924144040541E-02
(PID.TID 0000.0001) %MON pe_b_mean                    =   4.7739699773776E-04
(PID.TID 0000.0001) %MON ke_max                       =   3.9917847786497E-02
(PID.TID 0000.0001) %MON ke_mean                      =   1.4074772391630E-04
(PID.TID 0000.0001) %MON ke_vol                       =   1.3398024453628E+18
(PID.TID 0000.0001) %MON vort_r_min                   =  -1.2157915287198E-06
(PID.TID 0000.0001) %MON vort_r_max                   =   1.2256063894320E-06
(PID.TID 0000.0001) %MON vort_a_mean                  =  -2.0549865324846E-05
(PID.TID 0000.0001) %MON vort_a_sd                    =   7.5259516089402E-05
(PID.TID 0000.0001) %MON vort_p_mean                  =  -2.4783469174846E-05
(PID.TID 0000.0001) %MON vort_p_sd                    =   1.2812071941427E-04
(PID.TID 0000.0001) %MON surfExpan_theta_mean         =   4.7138629159837E-08
(PID.TID 0000.0001) %MON surfExpan_salt_mean          =   1.4171398071647E-08
(PID.TID 0000.0001) // =======================================================
(PID.TID 0000.0001) // End MONITOR dynamic field statistics
(PID.TID 0000.0001) // =======================================================
 EXTERNAL_FIELDS_LOAD,     72007 : iP,iLd,i0,i1=   12    1   12    1 ; Wght=  0.2666666667  0.7333333333
 cg2d: Sum(rhs),rhsMax =  -9.77706804405898E-12  4.26840801286649E+00
(PID.TID 0000.0001)                    cg2d_init_res =    1.50786841247484E-01
(PID.TID 0000.0001)                       cg2d_iters =    62
(PID.TID 0000.0001)                         cg2d_res =    5.04630369714968E-07
(PID.TID 0000.0001) // =======================================================
(PID.TID 0000.0001) // Begin MONITOR dynamic field statistics
(PID.TID 0000.0001) // =======================================================
(PID.TID 0000.0001) %MON time_tsnumber                =                 72008
(PID.TID 0000.0001) %MON time_secondsf                =   6.2214912000000E+09
(PID.TID 0000.0001) %MON dynstat_eta_max              =   9.1006172233353E-01
(PID.TID 0000.0001) %MON dynstat_eta_min              =  -1.6152749214423E+00
(PID.TID 0000.0001) %MON dynstat_eta_mean             =   1.4400085136058E-14
(PID.TID 0000.0001) %MON dynstat_eta_sd               =   5.9852228838204E-01
(PID.TID 0000.0001) %MON dynstat_eta_del2             =   7.8986542282136E-04
(PID.TID 0000.0001) %MON dynstat_uvel_max             =   1.8768937329725E-01
(PID.TID 0000.0001) %MON dynstat_uvel_min             =  -2.8549399089719E-01
(PID.TID 0000.0001) %MON dynstat_uvel_mean            =  -4.8662309308464E-04
(PID.TID 0000.0001) %MON dynstat_uvel_sd              =   1.2010222977673E-02
(PID.TID 0000.0001) %MON dynstat_uvel_del2            =   5.1052289903140E-05
(PID.TID 0000.0001) %MON dynstat_vvel_max             =   1.7477529341016E-01
(PID.TID 0000.0001) %MON dynstat_vvel_min             =  -2.2485712658697E-01
(PID.TID 0000.0001) %MON dynstat_vvel_mean            =  -4.0246622369010E-04
(PID.TID 0000.0001) %MON dynstat_vvel_sd              =   1.2653880561908E-02
(PID.TID 0000.0001) %MON dynstat_vvel_del2            =   5.0399551123821E-05
(PID.TID 0000.0001) %MON dynstat_wvel_max             =   1.0527266390833E-04
(PID.TID 0000.0001) %MON dynstat_wvel_min             =  -2.0523238385103E-04
(PID.TID 0000.0001) %MON dynstat_wvel_mean            =   1.0286282954313E-10
(PID.TID 0000.0001) %MON dynstat_wvel_sd              =   3.8201214925328E-06
(PID.TID 0000.0001) %MON dynstat_wvel_del2            =   2.6451251722232E-08
(PID.TID 0000.0001) %MON dynstat_theta_max            =   3.1034811389319E+01
(PID.TID 0000.0001) %MON dynstat_theta_min            =  -3.3963507768577E+00
(PID.TID 0000.0001) %MON dynstat_theta_mean           =   3.9095950391871E+00
(PID.TID 0000.0001) %MON dynstat_theta_sd             =   4.5715065447746E+00
(PID.TID 0000.0001) %MON dynstat_theta_del2           =   2.6926314385910E-03
(PID.TID 0000.0001) %MON dynstat_salt_max             =   4.1391018391571E+01
(PID.TID 0000.0001) %MON dynstat_salt_min             =   1.8386084372362E+01
(PID.TID 0000.0001) %MON dynstat_salt_mean            =   3.4772072028286E+01
(PID.TID 0000.0001) %MON dynstat_salt_sd              =   5.3147960431025E-01
(PID.TID 0000.0001) %MON dynstat_salt_del2            =   8.1937863974570E-04
(PID.TID 0000.0001) %MON forcing_qnet_max             =   4.5278704135979E+02
(PID.TID 0000.0001) %MON forcing_qnet_min             =  -2.0821926461131E+02
(PID.TID 0000.0001) %MON forcing_qnet_mean            =  -1.2231420972146E+01
(PID.TID 0000.0001) %MON forcing_qnet_sd              =   1.1435735176461E+02
(PID.TID 0000.0001) %MON forcing_qnet_del2            =   4.2574043278125E-01
(PID.TID 0000.0001) %MON forcing_qsw_max              =   0.0000000000000E+00
(PID.TID 0000.0001) %MON forcing_qsw_min              =   0.0000000000000E+00
(PID.TID 0000.0001) %MON forcing_qsw_mean             =   0.0000000000000E+00
(PID.TID 0000.0001) %MON forcing_qsw_sd               =   0.0000000000000E+00
(PID.TID 0000.0001) %MON forcing_qsw_del2             =   0.0000000000000E+00
(PID.TID 0000.0001) %MON forcing_empmr_max            =   7.6494447208479E-05
(PID.TID 0000.0001) %MON forcing_empmr_min            =  -1.5362614137596E-04
(PID.TID 0000.0001) %MON forcing_empmr_mean           =  -2.3063038905579E-21
(PID.TID 0000.0001) %MON forcing_empmr_sd             =   2.4051723601802E-05
(PID.TID 0000.0001) %MON forcing_empmr_del2           =   1.2276157049243E-07
(PID.TID 0000.0001) %MON forcing_fu_max               =   2.4726979082249E-01
(PID.TID 0000.0001) %MON forcing_fu_min               =  -2.2495248635365E-01
(PID.TID 0000.0001) %MON forcing_fu_mean              =  -4.2435281147287E-03
(PID.TID 0000.0001) %MON forcing_fu_sd                =   6.4287840534767E-02
(PID.TID 0000.0001) %MON forcing_fu_del2              =   2.1115214806548E-04
(PID.TID 0000.0001) %MON forcing_fv_max               =   2.7159367144430E-01
(PID.TID 0000.0001) %MON forcing_fv_min               =  -3.3243525155752E-01
(PID.TID 0000.0001) %MON forcing_fv_mean              =  -1.3711980340349E-02
(PID.TID 0000.0001) %MON forcing_fv_sd                =   7.5645935346452E-02
(PID.TID 0000.0001) %MON forcing_fv_del2              =   2.3922805906111E-04
(PID.TID 0000.0001) %MON advcfl_uvel_max              =   8.0971511264458E-02
(PID.TID 0000.0001) %MON advcfl_vvel_max              =   7.6182088125719E-02
(PID.TID 0000.0001) %MON advcfl_wvel_max              =   6.6913501753695E-02
(PID.TID 0000.0001) %MON advcfl_W_hf_max              =   7.3911334646824E-02
(PID.TID 0000.0001) %MON pe_b_mean                    =   4.7722713365299E-04
(PID.TID 0000.0001) %MON ke_max                       =   3.9792951921972E-02
(PID.TID 0000.0001) %MON ke_mean                      =   1.4073584362261E-04
(PID.TID 0000.0001) %MON ke_vol                       =   1.3398024453628E+18
(PID.TID 0000.0001) %MON vort_r_min                   =  -1.2210979789551E-06
(PID.TID 0000.0001) %MON vort_r_max                   =   1.2277787017689E-06
(PID.TID 0000.0001) %MON vort_a_mean                  =  -2.0549865324846E-05
(PID.TID 0000.0001) %MON vort_a_sd                    =   7.5259516006939E-05
(PID.TID 0000.0001) %MON vort_p_mean                  =  -2.4783469159794E-05
(PID.TID 0000.0001) %MON vort_p_sd                    =   1.2812071597497E-04
(PID.TID 0000.0001) %MON surfExpan_theta_mean         =   4.7355516696328E-08
(PID.TID 0000.0001) %MON surfExpan_salt_mean          =   1.4197674876749E-08
(PID.TID 0000.0001) // =======================================================
(PID.TID 0000.0001) // End MONITOR dynamic field statistics
(PID.TID 0000.0001) // =======================================================
 EXTERNAL_FIELDS_LOAD,     72008 : iP,iLd,i0,i1=   12    1   12    1 ; Wght=  0.2333333333  0.7666666667
 cg2d: Sum(rhs),rhsMax =  -9.54969436861575E-12  4.26728355263269E+00
(PID.TID 0000.0001)                    cg2d_init_res =    1.49594980404033E-01
(PID.TID 0000.0001)                       cg2d_iters =    62
(PID.TID 0000.0001)                         cg2d_res =    4.96586188180102E-07
(PID.TID 0000.0001) // =======================================================
(PID.TID 0000.0001) // Begin MONITOR dynamic field statistics
(PID.TID 0000.0001) // =======================================================
(PID.TID 0000.0001) %MON time_tsnumber                =                 72009
(PID.TID 0000.0001) %MON time_secondsf                =   6.2215776000000E+09
(PID.TID 0000.0001) %MON dynstat_eta_max              =   9.0865749533974E-01
(PID.TID 0000.0001) %MON dynstat_eta_min              =  -1.6147994614833E+00
(PID.TID 0000.0001) %MON dynstat_eta_mean             =   1.4331382439798E-14
(PID.TID 0000.0001) %MON dynstat_eta_sd               =   5.9842004312958E-01
(PID.TID 0000.0001) %MON dynstat_eta_del2             =   7.9044322326110E-04
(PID.TID 0000.0001) %MON dynstat_uvel_max             =   1.8753040743284E-01
(PID.TID 0000.0001) %MON dynstat_uvel_min             =  -2.8511195671597E-01
(PID.TID 0000.0001) %MON dynstat_uvel_mean            =  -4.8614916763317E-04
(PID.TID 0000.0001) %MON dynstat_uvel_sd              =   1.2008480309830E-02
(PID.TID 0000.0001) %MON dynstat_uvel_del2            =   5.1032371326208E-05
(PID.TID 0000.0001) %MON dynstat_vvel_max             =   1.7478821145505E-01
(PID.TID 0000.0001) %MON dynstat_vvel_min             =  -2.2478268459631E-01
(PID.TID 0000.0001) %MON dynstat_vvel_mean            =  -4.0201078273153E-04
(PID.TID 0000.0001) %MON dynstat_vvel_sd              =   1.2654143795568E-02
(PID.TID 0000.0001) %MON dynstat_vvel_del2            =   5.0375430440949E-05
(PID.TID 0000.0001) %MON dynstat_wvel_max             =   1.0573948707790E-04
(PID.TID 0000.0001) %MON dynstat_wvel_min             =  -2.0514628952565E-04
(PID.TID 0000.0001) %MON dynstat_wvel_mean            =   9.7396759743662E-11
(PID.TID 0000.0001) %MON dynstat_wvel_sd              =   3.8177266342206E-06
(PID.TID 0000.0001) %MON dynstat_wvel_del2            =   2.6450561937471E-08
(PID.TID 0000.0001) %MON dynstat_theta_max            =   3.1046365846646E+01
(PID.TID 0000.0001) %MON dynstat_theta_min            =  -3.4421733217755E+00
(PID.TID 0000.0001) %MON dynstat_theta_mean           =   3.9096535423027E+00
(PID.TID 0000.0001) %MON dynstat_theta_sd             =   4.5715800047528E+00
(PID.TID 0000.0001) %MON dynstat_theta_del2           =   2.6982526236961E-03
(PID.TID 0000.0001) %MON dynstat_salt_max             =   4.1391590241797E+01
(PID.TID 0000.0001) %MON dynstat_salt_min             =   1.8386448299407E+01
(PID.TID 0000.0001) %MON dynstat_salt_mean            =   3.4772072533179E+01
(PID.TID 0000.0001) %MON dynstat_salt_sd              =   5.3148192949153E-01
(PID.TID 0000.0001) %MON dynstat_salt_del2            =   8.2073605657058E-04
(PID.TID 0000.0001) %MON forcing_qnet_max             =   4.5269258039189E+02
(PID.TID 0000.0001) %MON forcing_qnet_min             =  -2.0724691062470E+02
(PID.TID 0000.0001) %MON forcing_qnet_mean            =  -1.2243649340789E+01
(PID.TID 0000.0001) %MON forcing_qnet_sd              =   1.1419883834096E+02
(PID.TID 0000.0001) %MON forcing_qnet_del2            =   4.2754265772092E-01
(PID.TID 0000.0001) %MON forcing_qsw_max              =   0.0000000000000E+00
(PID.TID 0000.0001) %MON forcing_qsw_min              =   0.0000000000000E+00
(PID.TID 0000.0001) %MON forcing_qsw_mean             =   0.0000000000000E+00
(PID.TID 0000.0001) %MON forcing_qsw_sd               =   0.0000000000000E+00
(PID.TID 0000.0001) %MON forcing_qsw_del2             =   0.0000000000000E+00
(PID.TID 0000.0001) %MON forcing_empmr_max            =   7.6494447208479E-05
(PID.TID 0000.0001) %MON forcing_empmr_min            =  -1.5362614137596E-04
(PID.TID 0000.0001) %MON forcing_empmr_mean           =  -2.7256318706594E-21
(PID.TID 0000.0001) %MON forcing_empmr_sd             =   2.4051723601802E-05
(PID.TID 0000.0001) %MON forcing_empmr_del2           =   1.2276157049243E-07
(PID.TID 0000.0001) %MON forcing_fu_max               =   2.4722174155228E-01
(PID.TID 0000.0001) %MON forcing_fu_min               =  -2.2809828301201E-01
(PID.TID 0000.0001) %MON forcing_fu_mean              =  -4.2000491789953E-03
(PID.TID 0000.0001) %MON forcing_fu_sd                =   6.4391296774987E-02
(PID.TID 0000.0001) %MON forcing_fu_del2              =   2.1293834199113E-04
(PID.TID 0000.0001) %MON forcing_fv_max               =   2.7427691301694E-01
(PID.TID 0000.0001) %MON forcing_fv_min               =  -3.3322315549145E-01
(PID.TID 0000.0001) %MON forcing_fv_mean              =  -1.3715905886277E-02
(PID.TID 0000.0001) %MON forcing_fv_sd                =   7.5757214244312E-02
(PID.TID 0000.0001) %MON forcing_fv_del2              =   2.4079325037298E-04
(PID.TID 0000.0001) %MON advcfl_uvel_max              =   8.0863159123977E-02
(PID.TID 0000.0001) %MON advcfl_vvel_max              =   7.6187718919497E-02
(PID.TID 0000.0001) %MON advcfl_wvel_max              =   6.6885431754778E-02
(PID.TID 0000.0001) %MON advcfl_W_hf_max              =   7.3880340166140E-02
(PID.TID 0000.0001) %MON pe_b_mean                    =   4.7706409865174E-04
(PID.TID 0000.0001) %MON ke_max                       =   3.9664979018952E-02
(PID.TID 0000.0001) %MON ke_mean                      =   1.4071933425856E-04
(PID.TID 0000.0001) %MON ke_vol                       =   1.3398024453628E+18
(PID.TID 0000.0001) %MON vort_r_min                   =  -1.2265193212873E-06
(PID.TID 0000.0001) %MON vort_r_max                   =   1.2300196022004E-06
(PID.TID 0000.0001) %MON vort_a_mean                  =  -2.0549865324846E-05
(PID.TID 0000.0001) %MON vort_a_sd                    =   7.5259515928781E-05
(PID.TID 0000.0001) %MON vort_p_mean                  =  -2.4783469143849E-05
(PID.TID 0000.0001) %MON vort_p_sd                    =   1.2812071302927E-04
(PID.TID 0000.0001) %MON surfExpan_theta_mean         =   4.7550118917546E-08
(PID.TID 0000.0001) %MON surfExpan_salt_mean          =   1.4233093355719E-08
(PID.TID 0000.0001) // =======================================================
(PID.TID 0000.0001) // End MONITOR dynamic field statistics
(PID.TID 0000.0001) // =======================================================
 EXTERNAL_FIELDS_LOAD,     72009 : iP,iLd,i0,i1=   12    1   12    1 ; Wght=  0.2000000000  0.8000000000
 cg2d: Sum(rhs),rhsMax =  -9.57811607804615E-12  4.26632353564989E+00
(PID.TID 0000.0001)                    cg2d_init_res =    1.49152678150963E-01
(PID.TID 0000.0001)                       cg2d_iters =    62
(PID.TID 0000.0001)                         cg2d_res =    4.87647624355717E-07
(PID.TID 0000.0001) // =======================================================
(PID.TID 0000.0001) // Begin MONITOR dynamic field statistics
(PID.TID 0000.0001) // =======================================================
(PID.TID 0000.0001) %MON time_tsnumber                =                 72010
(PID.TID 0000.0001) %MON time_secondsf                =   6.2216640000000E+09
(PID.TID 0000.0001) %MON dynstat_eta_max              =   9.0726992893464E-01
(PID.TID 0000.0001) %MON dynstat_eta_min              =  -1.6143339244499E+00
(PID.TID 0000.0001) %MON dynstat_eta_mean             =   1.4427566214562E-14
(PID.TID 0000.0001) %MON dynstat_eta_sd               =   5.9832174311474E-01
(PID.TID 0000.0001) %MON dynstat_eta_del2             =   7.9103352668877E-04
(PID.TID 0000.0001) %MON dynstat_uvel_max             =   1.8730507790234E-01
(PID.TID 0000.0001) %MON dynstat_uvel_min             =  -2.8471541674480E-01
(PID.TID 0000.0001) %MON dynstat_uvel_mean            =  -4.8565190102025E-04
(PID.TID 0000.0001) %MON dynstat_uvel_sd              =   1.2006881579286E-02
(PID.TID 0000.0001) %MON dynstat_uvel_del2            =   5.1014135504784E-05
(PID.TID 0000.0001) %MON dynstat_vvel_max             =   1.7476618346928E-01
(PID.TID 0000.0001) %MON dynstat_vvel_min             =  -2.2470230387132E-01
(PID.TID 0000.0001) %MON dynstat_vvel_mean            =  -4.0154029193083E-04
(PID.TID 0000.0001) %MON dynstat_vvel_sd              =   1.2653911963123E-02
(PID.TID 0000.0001) %MON dynstat_vvel_del2            =   5.0352890615446E-05
(PID.TID 0000.0001) %MON dynstat_wvel_max             =   1.0622601287152E-04
(PID.TID 0000.0001) %MON dynstat_wvel_min             =  -2.0501158771944E-04
(PID.TID 0000.0001) %MON dynstat_wvel_mean            =   9.0117427610596E-11
(PID.TID 0000.0001) %MON dynstat_wvel_sd              =   3.8153944912301E-06
(PID.TID 0000.0001) %MON dynstat_wvel_del2            =   2.6450541430931E-08
(PID.TID 0000.0001) %MON dynstat_theta_max            =   3.1057514583386E+01
(PID.TID 0000.0001) %MON dynstat_theta_min            =  -3.4880759694144E+00
(PID.TID 0000.0001) %MON dynstat_theta_mean           =   3.9097122137075E+00
(PID.TID 0000.0001) %MON dynstat_theta_sd             =   4.5716603016365E+00
(PID.TID 0000.0001) %MON dynstat_theta_del2           =   2.7028984881705E-03
(PID.TID 0000.0001) %MON dynstat_salt_max             =   4.1392160719582E+01
(PID.TID 0000.0001) %MON dynstat_salt_min             =   1.8386818811571E+01
(PID.TID 0000.0001) %MON dynstat_salt_mean            =   3.4772073058008E+01
(PID.TID 0000.0001) %MON dynstat_salt_sd              =   5.3148430299867E-01
(PID.TID 0000.0001) %MON dynstat_salt_del2            =   8.2194905209377E-04
(PID.TID 0000.0001) %MON forcing_qnet_max             =   4.5259811942399E+02
(PID.TID 0000.0001) %MON forcing_qnet_min             =  -2.0627455663810E+02
(PID.TID 0000.0001) %MON forcing_qnet_mean            =  -1.2255877709432E+01
(PID.TID 0000.0001) %MON forcing_qnet_sd              =   1.1404708593992E+02
(PID.TID 0000.0001) %MON forcing_qnet_del2            =   4.2945791591934E-01
(PID.TID 0000.0001) %MON forcing_qsw_max              =   0.0000000000000E+00
(PID.TID 0000.0001) %MON forcing_qsw_min              =   0.0000000000000E+00
(PID.TID 0000.0001) %MON forcing_qsw_mean             =   0.0000000000000E+00
(PID.TID 0000.0001) %MON forcing_qsw_sd               =   0.0000000000000E+00
(PID.TID 0000.0001) %MON forcing_qsw_del2             =   0.0000000000000E+00
(PID.TID 0000.0001) %MON forcing_empmr_max            =   7.6494447208479E-05
(PID.TID 0000.0001) %MON forcing_empmr_min            =  -1.5362614137596E-04
(PID.TID 0000.0001) %MON forcing_empmr_mean           =  -1.8869759104565E-21
(PID.TID 0000.0001) %MON forcing_empmr_sd             =   2.4051723601802E-05
(PID.TID 0000.0001) %MON forcing_empmr_del2           =   1.2276157049243E-07
(PID.TID 0000.0001) %MON forcing_fu_max               =   2.4734156444157E-01
(PID.TID 0000.0001) %MON forcing_fu_min               =  -2.3124407967036E-01
(PID.TID 0000.0001) %MON forcing_fu_mean              =  -4.1565702432618E-03
(PID.TID 0000.0001) %MON forcing_fu_sd                =   6.4507945848906E-02
(PID.TID 0000.0001) %MON forcing_fu_del2              =   2.1494094672237E-04
(PID.TID 0000.0001) %MON forcing_fv_max               =   2.7696015458957E-01
(PID.TID 0000.0001) %MON forcing_fv_min               =  -3.3401105942538E-01
(PID.TID 0000.0001) %MON forcing_fv_mean              =  -1.3719831432204E-02
(PID.TID 0000.0001) %MON forcing_fv_sd                =   7.5878609891640E-02
(PID.TID 0000.0001) %MON forcing_fv_del2              =   2.4254447090673E-04
(PID.TID 0000.0001) %MON advcfl_uvel_max              =   8.0750692866311E-02
(PID.TID 0000.0001) %MON advcfl_vvel_max              =   7.6178117230835E-02
(PID.TID 0000.0001) %MON advcfl_wvel_max              =   6.6841513882866E-02
(PID.TID 0000.0001) %MON advcfl_W_hf_max              =   7.3831841336033E-02
(PID.TID 0000.0001) %MON pe_b_mean                    =   4.7690738078490E-04
(PID.TID 0000.0001) %MON ke_max                       =   3.9533956763386E-02
(PID.TID 0000.0001) %MON ke_mean                      =   1.4069858864008E-04
(PID.TID 0000.0001) %MON ke_vol                       =   1.3398024453628E+18
(PID.TID 0000.0001) %MON vort_r_min                   =  -1.2320253136274E-06
(PID.TID 0000.0001) %MON vort_r_max                   =   1.2322926340348E-06
(PID.TID 0000.0001) %MON vort_a_mean                  =  -2.0549865324846E-05
(PID.TID 0000.0001) %MON vort_a_sd                    =   7.5259515850421E-05
(PID.TID 0000.0001) %MON vort_p_mean                  =  -2.4783469127277E-05
(PID.TID 0000.0001) %MON vort_p_sd                    =   1.2812071057428E-04
(PID.TID 0000.0001) %MON surfExpan_theta_mean         =   4.7668712209414E-08
(PID.TID 0000.0001) %MON surfExpan_salt_mean          =   1.4278973696579E-08
(PID.TID 0000.0001) // =======================================================
(PID.TID 0000.0001) // End MONITOR dynamic field statistics
(PID.TID 0000.0001) // =======================================================
 Computing Diagnostic #     78  DRHODR       Counter:      10   Parms: SM      LR      
 Computing Diagnostic #     64  RHOAnoma     Counter:      10   Parms: SMR     MR      
 Computing Diagnostic #     79  CONVADJ      Counter:      10   Parms: SMR     LR      
 Computing Diagnostic #    200  GM_Kwx       Counter:      10   Parms: UM      LR      
           Vector  Mate for  GM_Kwx       Diagnostic #    201  GM_Kwy   exists 
 Computing Diagnostic #    201  GM_Kwy       Counter:      10   Parms: VM      LR      
           Vector  Mate for  GM_Kwy       Diagnostic #    200  GM_Kwx   exists 
 Computing Diagnostic #    202  GM_Kwz       Counter:      10   Parms: WM P    LR      
 Computing Diagnostic #    203  GM_PsiX      Counter:      10   Parms: UU      LR      
           Vector  Mate for  GM_PsiX      Diagnostic #    204  GM_PsiY  exists 
 Computing Diagnostic #    204  GM_PsiY      Counter:      10   Parms: VV      LR      
           Vector  Mate for  GM_PsiY      Diagnostic #    203  GM_PsiX  exists 
 EXTERNAL_FIELDS_LOAD,     72010 : iP,iLd,i0,i1=   12    1   12    1 ; Wght=  0.1666666667  0.8333333333
 cg2d: Sum(rhs),rhsMax =  -9.54969436861575E-12  4.26549706551249E+00
(PID.TID 0000.0001)                    cg2d_init_res =    1.49176778442668E-01
(PID.TID 0000.0001)                       cg2d_iters =    62
(PID.TID 0000.0001)                         cg2d_res =    4.82834344309235E-07
(PID.TID 0000.0001) // =======================================================
(PID.TID 0000.0001) // Begin MONITOR dynamic field statistics
(PID.TID 0000.0001) // =======================================================
(PID.TID 0000.0001) %MON time_tsnumber                =                 72011
(PID.TID 0000.0001) %MON time_secondsf                =   6.2217504000000E+09
(PID.TID 0000.0001) %MON dynstat_eta_max              =   9.0590624084751E-01
(PID.TID 0000.0001) %MON dynstat_eta_min              =  -1.6138730042265E+00
(PID.TID 0000.0001) %MON dynstat_eta_mean             =   1.4345122979050E-14
(PID.TID 0000.0001) %MON dynstat_eta_sd               =   5.9822662133007E-01
(PID.TID 0000.0001) %MON dynstat_eta_del2             =   7.9163453955959E-04
(PID.TID 0000.0001) %MON dynstat_uvel_max             =   1.8701731631840E-01
(PID.TID 0000.0001) %MON dynstat_uvel_min             =  -2.8430423130200E-01
(PID.TID 0000.0001) %MON dynstat_uvel_mean            =  -4.8511866326510E-04
(PID.TID 0000.0001) %MON dynstat_uvel_sd              =   1.2005465796190E-02
(PID.TID 0000.0001) %MON dynstat_uvel_del2            =   5.0997927057472E-05
(PID.TID 0000.0001) %MON dynstat_vvel_max             =   1.7470908344616E-01
(PID.TID 0000.0001) %MON dynstat_vvel_min             =  -2.2461638292083E-01
(PID.TID 0000.0001) %MON dynstat_vvel_mean            =  -4.0107897479371E-04
(PID.TID 0000.0001) %MON dynstat_vvel_sd              =   1.2653185089976E-02
(PID.TID 0000.0001) %MON dynstat_vvel_del2            =   5.0331938483396E-05
(PID.TID 0000.0001) %MON dynstat_wvel_max             =   1.0672329070858E-04
(PID.TID 0000.0001) %MON dynstat_wvel_min             =  -2.0483039426847E-04
(PID.TID 0000.0001) %MON dynstat_wvel_mean            =   8.1242263183169E-11
(PID.TID 0000.0001) %MON dynstat_wvel_sd              =   3.8131320610881E-06
(PID.TID 0000.0001) %MON dynstat_wvel_del2            =   2.6451156503540E-08
(PID.TID 0000.0001) %MON dynstat_theta_max            =   3.1068270115274E+01
(PID.TID 0000.0001) %MON dynstat_theta_min            =  -3.5340455848723E+00
(PID.TID 0000.0001) %MON dynstat_theta_mean           =   3.9097709950012E+00
(PID.TID 0000.0001) %MON dynstat_theta_sd             =   4.5717461741427E+00
(PID.TID 0000.0001) %MON dynstat_theta_del2           =   2.7079359984200E-03
(PID.TID 0000.0001) %MON dynstat_salt_max             =   4.1392727970060E+01
(PID.TID 0000.0001) %MON dynstat_salt_min             =   1.8387195865855E+01
(PID.TID 0000.0001) %MON dynstat_salt_mean            =   3.4772073601630E+01
(PID.TID 0000.0001) %MON dynstat_salt_sd              =   5.3148635948433E-01
(PID.TID 0000.0001) %MON dynstat_salt_del2            =   8.2341252078381E-04
(PID.TID 0000.0001) %MON forcing_qnet_max             =   4.5250365845610E+02
(PID.TID 0000.0001) %MON forcing_qnet_min             =  -2.0572520854632E+02
(PID.TID 0000.0001) %MON forcing_qnet_mean            =  -1.2268106078075E+01
(PID.TID 0000.0001) %MON forcing_qnet_sd              =   1.1390212158476E+02
(PID.TID 0000.0001) %MON forcing_qnet_del2            =   4.3148470219571E-01
(PID.TID 0000.0001) %MON forcing_qsw_max              =   0.0000000000000E+00
(PID.TID 0000.0001) %MON forcing_qsw_min              =   0.0000000000000E+00
(PID.TID 0000.0001) %MON forcing_qsw_mean             =   0.0000000000000E+00
(PID.TID 0000.0001) %MON forcing_qsw_sd               =   0.0000000000000E+00
(PID.TID 0000.0001) %MON forcing_qsw_del2             =   0.0000000000000E+00
(PID.TID 0000.0001) %MON forcing_empmr_max            =   7.6494447208479E-05
(PID.TID 0000.0001) %MON forcing_empmr_min            =  -1.5362614137596E-04
(PID.TID 0000.0001) %MON forcing_empmr_mean           =  -2.7256318706594E-21
(PID.TID 0000.0001) %MON forcing_empmr_sd             =   2.4051723601802E-05
(PID.TID 0000.0001) %MON forcing_empmr_del2           =   1.2276157049243E-07
(PID.TID 0000.0001) %MON forcing_fu_max               =   2.4760593894036E-01
(PID.TID 0000.0001) %MON forcing_fu_min               =  -2.3438987632871E-01
(PID.TID 0000.0001) %MON forcing_fu_mean              =  -4.1130913075284E-03
(PID.TID 0000.0001) %MON forcing_fu_sd                =   6.4637716330841E-02
(PID.TID 0000.0001) %MON forcing_fu_del2              =   2.1715397508819E-04
(PID.TID 0000.0001) %MON forcing_fv_max               =   2.7964339616220E-01
(PID.TID 0000.0001) %MON forcing_fv_min               =  -3.3479896335931E-01
(PID.TID 0000.0001) %MON forcing_fv_mean              =  -1.3723756978131E-02
(PID.TID 0000.0001) %MON forcing_fv_sd                =   7.6010073816084E-02
(PID.TID 0000.0001) %MON forcing_fv_del2              =   2.4447772305236E-04
(PID.TID 0000.0001) %MON advcfl_uvel_max              =   8.0634072875086E-02
(PID.TID 0000.0001) %MON advcfl_vvel_max              =   7.6153228135193E-02
(PID.TID 0000.0001) %MON advcfl_wvel_max              =   6.6782437980361E-02
(PID.TID 0000.0001) %MON advcfl_W_hf_max              =   7.3766600125659E-02
(PID.TID 0000.0001) %MON pe_b_mean                    =   4.7675575442107E-04
(PID.TID 0000.0001) %MON ke_max                       =   3.9399902513654E-02
(PID.TID 0000.0001) %MON ke_mean                      =   1.4067404031951E-04
(PID.TID 0000.0001) %MON ke_vol                       =   1.3398024453628E+18
(PID.TID 0000.0001) %MON vort_r_min                   =  -1.2375865349904E-06
(PID.TID 0000.0001) %MON vort_r_max                   =   1.2345619943147E-06
(PID.TID 0000.0001) %MON vort_a_mean                  =  -2.0549865324846E-05
(PID.TID 0000.0001) %MON vort_a_sd                    =   7.5259515769111E-05
(PID.TID 0000.0001) %MON vort_p_mean                  =  -2.4783469109679E-05
(PID.TID 0000.0001) %MON vort_p_sd                    =   1.2812070854049E-04
(PID.TID 0000.0001) %MON surfExpan_theta_mean         =   4.7701320599815E-08
(PID.TID 0000.0001) %MON surfExpan_salt_mean          =   1.4333911434878E-08
(PID.TID 0000.0001) // =======================================================
(PID.TID 0000.0001) // End MONITOR dynamic field statistics
(PID.TID 0000.0001) // =======================================================
 EXTERNAL_FIELDS_LOAD,     72011 : iP,iLd,i0,i1=   12    1   12    1 ; Wght=  0.1333333333  0.8666666667
 cg2d: Sum(rhs),rhsMax =  -9.69180291576777E-12  4.26477155217343E+00
(PID.TID 0000.0001)                    cg2d_init_res =    1.50583828110071E-01
(PID.TID 0000.0001)                       cg2d_iters =    62
(PID.TID 0000.0001)                         cg2d_res =    4.81829345989025E-07
(PID.TID 0000.0001) // =======================================================
(PID.TID 0000.0001) // Begin MONITOR dynamic field statistics
(PID.TID 0000.0001) // =======================================================
(PID.TID 0000.0001) %MON time_tsnumber                =                 72012
(PID.TID 0000.0001) %MON time_secondsf                =   6.2218368000000E+09
(PID.TID 0000.0001) %MON dynstat_eta_max              =   9.0457211367245E-01
(PID.TID 0000.0001) %MON dynstat_eta_min              =  -1.6134082051222E+00
(PID.TID 0000.0001) %MON dynstat_eta_mean             =   1.4345122979050E-14
(PID.TID 0000.0001) %MON dynstat_eta_sd               =   5.9813400671340E-01
(PID.TID 0000.0001) %MON dynstat_eta_del2             =   7.9225075406773E-04
(PID.TID 0000.0001) %MON dynstat_uvel_max             =   1.8667185023165E-01
(PID.TID 0000.0001) %MON dynstat_uvel_min             =  -2.8387826319223E-01
(PID.TID 0000.0001) %MON dynstat_uvel_mean            =  -4.8454067747402E-04
(PID.TID 0000.0001) %MON dynstat_uvel_sd              =   1.2004258661550E-02
(PID.TID 0000.0001) %MON dynstat_uvel_del2            =   5.0984145202491E-05
(PID.TID 0000.0001) %MON dynstat_vvel_max             =   1.7461702314393E-01
(PID.TID 0000.0001) %MON dynstat_vvel_min             =  -2.2452528910167E-01
(PID.TID 0000.0001) %MON dynstat_vvel_mean            =  -4.0063864193376E-04
(PID.TID 0000.0001) %MON dynstat_vvel_sd              =   1.2651978575364E-02
(PID.TID 0000.0001) %MON dynstat_vvel_del2            =   5.0312557111317E-05
(PID.TID 0000.0001) %MON dynstat_wvel_max             =   1.0722527661534E-04
(PID.TID 0000.0001) %MON dynstat_wvel_min             =  -2.0460577904962E-04
(PID.TID 0000.0001) %MON dynstat_wvel_mean            =   7.1203150491889E-11
(PID.TID 0000.0001) %MON dynstat_wvel_sd              =   3.8109316031892E-06
(PID.TID 0000.0001) %MON dynstat_wvel_del2            =   2.6451909599385E-08
(PID.TID 0000.0001) %MON dynstat_theta_max            =   3.1078643923190E+01
(PID.TID 0000.0001) %MON dynstat_theta_min            =  -3.5800651861525E+00
(PID.TID 0000.0001) %MON dynstat_theta_mean           =   3.9098298633283E+00
(PID.TID 0000.0001) %MON dynstat_theta_sd             =   4.5718379881304E+00
(PID.TID 0000.0001) %MON dynstat_theta_del2           =   2.7122542422250E-03
(PID.TID 0000.0001) %MON dynstat_salt_max             =   4.1393289712081E+01
(PID.TID 0000.0001) %MON dynstat_salt_min             =   1.8387579452962E+01
(PID.TID 0000.0001) %MON dynstat_salt_mean            =   3.4772074164023E+01
(PID.TID 0000.0001) %MON dynstat_salt_sd              =   5.3148802692643E-01
(PID.TID 0000.0001) %MON dynstat_salt_del2            =   8.2468318904612E-04
(PID.TID 0000.0001) %MON forcing_qnet_max             =   4.5240919748820E+02
(PID.TID 0000.0001) %MON forcing_qnet_min             =  -2.0540092066247E+02
(PID.TID 0000.0001) %MON forcing_qnet_mean            =  -1.2280334446718E+01
(PID.TID 0000.0001) %MON forcing_qnet_sd              =   1.1376397122458E+02
(PID.TID 0000.0001) %MON forcing_qnet_del2            =   4.3362145267556E-01
(PID.TID 0000.0001) %MON forcing_qsw_max              =   0.0000000000000E+00
(PID.TID 0000.0001) %MON forcing_qsw_min              =   0.0000000000000E+00
(PID.TID 0000.0001) %MON forcing_qsw_mean             =   0.0000000000000E+00
(PID.TID 0000.0001) %MON forcing_qsw_sd               =   0.0000000000000E+00
(PID.TID 0000.0001) %MON forcing_qsw_del2             =   0.0000000000000E+00
(PID.TID 0000.0001) %MON forcing_empmr_max            =   7.6494447208479E-05
(PID.TID 0000.0001) %MON forcing_empmr_min            =  -1.5362614137596E-04
(PID.TID 0000.0001) %MON forcing_empmr_mean           =  -2.7256318706594E-21
(PID.TID 0000.0001) %MON forcing_empmr_sd             =   2.4051723601802E-05
(PID.TID 0000.0001) %MON forcing_empmr_del2           =   1.2276157049243E-07
(PID.TID 0000.0001) %MON forcing_fu_max               =   2.4787031343914E-01
(PID.TID 0000.0001) %MON forcing_fu_min               =  -2.3765894517478E-01
(PID.TID 0000.0001) %MON forcing_fu_mean              =  -4.0696123717950E-03
(PID.TID 0000.0001) %MON forcing_fu_sd                =   6.4780529365136E-02
(PID.TID 0000.0001) %MON forcing_fu_del2              =   2.1957106468296E-04
(PID.TID 0000.0001) %MON forcing_fv_max               =   2.8232663773484E-01
(PID.TID 0000.0001) %MON forcing_fv_min               =  -3.3558686729325E-01
(PID.TID 0000.0001) %MON forcing_fv_mean              =  -1.3727682524059E-02
(PID.TID 0000.0001) %MON forcing_fv_sd                =   7.6151553873676E-02
(PID.TID 0000.0001) %MON forcing_fv_del2              =   2.4658872547121E-04
(PID.TID 0000.0001) %MON advcfl_uvel_max              =   8.0513260239100E-02
(PID.TID 0000.0001) %MON advcfl_vvel_max              =   7.6113100346416E-02
(PID.TID 0000.0001) %MON advcfl_wvel_max              =   6.6709204942972E-02
(PID.TID 0000.0001) %MON advcfl_W_hf_max              =   7.3685721887742E-02
(PID.TID 0000.0001) %MON pe_b_mean                    =   4.7660814770494E-04
(PID.TID 0000.0001) %MON ke_max                       =   3.9262830231662E-02
(PID.TID 0000.0001) %MON ke_mean                      =   1.4064615414383E-04
(PID.TID 0000.0001) %MON ke_vol                       =   1.3398024453628E+18
(PID.TID 0000.0001) %MON vort_r_min                   =  -1.2431746081932E-06
(PID.TID 0000.0001) %MON vort_r_max                   =   1.2367919927440E-06
(PID.TID 0000.0001) %MON vort_a_mean                  =  -2.0549865324846E-05
(PID.TID 0000.0001) %MON vort_a_sd                    =   7.5259515683663E-05
(PID.TID 0000.0001) %MON vort_p_mean                  =  -2.4783469090702E-05
(PID.TID 0000.0001) %MON vort_p_sd                    =   1.2812070681516E-04
(PID.TID 0000.0001) %MON surfExpan_theta_mean         =   4.7665236916846E-08
(PID.TID 0000.0001) %MON surfExpan_salt_mean          =   1.4392470613729E-08
(PID.TID 0000.0001) // =======================================================
(PID.TID 0000.0001) // End MONITOR dynamic field statistics
(PID.TID 0000.0001) // =======================================================
 EXTERNAL_FIELDS_LOAD,     72012 : iP,iLd,i0,i1=   12    1   12    1 ; Wght=  0.1000000000  0.9000000000
 cg2d: Sum(rhs),rhsMax =  -9.52127265918534E-12  4.26411312088203E+00
(PID.TID 0000.0001)                    cg2d_init_res =    1.49743871157889E-01
(PID.TID 0000.0001)                       cg2d_iters =    62
(PID.TID 0000.0001)                         cg2d_res =    4.76500952892786E-07
(PID.TID 0000.0001) // =======================================================
(PID.TID 0000.0001) // Begin MONITOR dynamic field statistics
(PID.TID 0000.0001) // =======================================================
(PID.TID 0000.0001) %MON time_tsnumber                =                 72013
(PID.TID 0000.0001) %MON time_secondsf                =   6.2219232000000E+09
(PID.TID 0000.0001) %MON dynstat_eta_max              =   9.0328610941822E-01
(PID.TID 0000.0001) %MON dynstat_eta_min              =  -1.6129302534529E+00
(PID.TID 0000.0001) %MON dynstat_eta_mean             =   1.4345122979050E-14
(PID.TID 0000.0001) %MON dynstat_eta_sd               =   5.9804344621983E-01
(PID.TID 0000.0001) %MON dynstat_eta_del2             =   7.9286547230829E-04
(PID.TID 0000.0001) %MON dynstat_uvel_max             =   1.8627414308486E-01
(PID.TID 0000.0001) %MON dynstat_uvel_min             =  -2.8343739302622E-01
(PID.TID 0000.0001) %MON dynstat_uvel_mean            =  -4.8391697795700E-04
(PID.TID 0000.0001) %MON dynstat_uvel_sd              =   1.2003272110735E-02
(PID.TID 0000.0001) %MON dynstat_uvel_del2            =   5.0973245592469E-05
(PID.TID 0000.0001) %MON dynstat_vvel_max             =   1.7449045133586E-01
(PID.TID 0000.0001) %MON dynstat_vvel_min             =  -2.2442936145387E-01
(PID.TID 0000.0001) %MON dynstat_vvel_mean            =  -4.0022095976320E-04
(PID.TID 0000.0001) %MON dynstat_vvel_sd              =   1.2650323436880E-02
(PID.TID 0000.0001) %MON dynstat_vvel_del2            =   5.0294723246948E-05
(PID.TID 0000.0001) %MON dynstat_wvel_max             =   1.0772290543539E-04
(PID.TID 0000.0001) %MON dynstat_wvel_min             =  -2.0433970888358E-04
(PID.TID 0000.0001) %MON dynstat_wvel_mean            =   6.0745126654745E-11
(PID.TID 0000.0001) %MON dynstat_wvel_sd              =   3.8087885470850E-06
(PID.TID 0000.0001) %MON dynstat_wvel_del2            =   2.6453268021840E-08
(PID.TID 0000.0001) %MON dynstat_theta_max            =   3.1088646444260E+01
(PID.TID 0000.0001) %MON dynstat_theta_min            =  -3.6261218758274E+00
(PID.TID 0000.0001) %MON dynstat_theta_mean           =   3.9098889226554E+00
(PID.TID 0000.0001) %MON dynstat_theta_sd             =   4.5719340309537E+00
(PID.TID 0000.0001) %MON dynstat_theta_del2           =   2.7178598908166E-03
(PID.TID 0000.0001) %MON dynstat_salt_max             =   4.1393844614838E+01
(PID.TID 0000.0001) %MON dynstat_salt_min             =   1.8387969599633E+01
(PID.TID 0000.0001) %MON dynstat_salt_mean            =   3.4772074745709E+01
(PID.TID 0000.0001) %MON dynstat_salt_sd              =   5.3148831469400E-01
(PID.TID 0000.0001) %MON dynstat_salt_del2            =   8.2618319834841E-04
(PID.TID 0000.0001) %MON forcing_qnet_max             =   4.5231473652030E+02
(PID.TID 0000.0001) %MON forcing_qnet_min             =  -2.0507663277863E+02
(PID.TID 0000.0001) %MON forcing_qnet_mean            =  -1.2292562815361E+01
(PID.TID 0000.0001) %MON forcing_qnet_sd              =   1.1363265971198E+02
(PID.TID 0000.0001) %MON forcing_qnet_del2            =   4.3586655012794E-01
(PID.TID 0000.0001) %MON forcing_qsw_max              =   0.0000000000000E+00
(PID.TID 0000.0001) %MON forcing_qsw_min              =   0.0000000000000E+00
(PID.TID 0000.0001) %MON forcing_qsw_mean             =   0.0000000000000E+00
(PID.TID 0000.0001) %MON forcing_qsw_sd               =   0.0000000000000E+00
(PID.TID 0000.0001) %MON forcing_qsw_del2             =   0.0000000000000E+00
(PID.TID 0000.0001) %MON forcing_empmr_max            =   7.6494447208479E-05
(PID.TID 0000.0001) %MON forcing_empmr_min            =  -1.5362614137596E-04
(PID.TID 0000.0001) %MON forcing_empmr_mean           =  -2.7256318706594E-21
(PID.TID 0000.0001) %MON forcing_empmr_sd             =   2.4051723601802E-05
(PID.TID 0000.0001) %MON forcing_empmr_del2           =   1.2276157049243E-07
(PID.TID 0000.0001) %MON forcing_fu_max               =   2.4813468793793E-01
(PID.TID 0000.0001) %MON forcing_fu_min               =  -2.4114197747619E-01
(PID.TID 0000.0001) %MON forcing_fu_mean              =  -4.0261334360615E-03
(PID.TID 0000.0001) %MON forcing_fu_sd                =   6.4936298899217E-02
(PID.TID 0000.0001) %MON forcing_fu_del2              =   2.2218555584494E-04
(PID.TID 0000.0001) %MON forcing_fv_max               =   2.8500987930747E-01
(PID.TID 0000.0001) %MON forcing_fv_min               =  -3.3637477122718E-01
(PID.TID 0000.0001) %MON forcing_fv_mean              =  -1.3731608069986E-02
(PID.TID 0000.0001) %MON forcing_fv_sd                =   7.6302994349070E-02
(PID.TID 0000.0001) %MON forcing_fv_del2              =   2.4887295503804E-04
(PID.TID 0000.0001) %MON advcfl_uvel_max              =   8.0388221097291E-02
(PID.TID 0000.0001) %MON advcfl_vvel_max              =   7.6057929478450E-02
(PID.TID 0000.0001) %MON advcfl_wvel_max              =   6.6622456028458E-02
(PID.TID 0000.0001) %MON advcfl_W_hf_max              =   7.3589914839616E-02
(PID.TID 0000.0001) %MON pe_b_mean                    =   4.7646383689447E-04
(PID.TID 0000.0001) %MON ke_max                       =   3.9122755316193E-02
(PID.TID 0000.0001) %MON ke_mean                      =   1.4061542672076E-04
(PID.TID 0000.0001) %MON ke_vol                       =   1.3398024453628E+18
(PID.TID 0000.0001) %MON vort_r_min                   =  -1.2487621425166E-06
(PID.TID 0000.0001) %MON vort_r_max                   =   1.2389476599663E-06
(PID.TID 0000.0001) %MON vort_a_mean                  =  -2.0549865324846E-05
(PID.TID 0000.0001) %MON vort_a_sd                    =   7.5259515594251E-05
(PID.TID 0000.0001) %MON vort_p_mean                  =  -2.4783469069920E-05
(PID.TID 0000.0001) %MON vort_p_sd                    =   1.2812070530150E-04
(PID.TID 0000.0001) %MON surfExpan_theta_mean         =   4.7574275334028E-08
(PID.TID 0000.0001) %MON surfExpan_salt_mean          =   1.4444625774784E-08
(PID.TID 0000.0001) // =======================================================
(PID.TID 0000.0001) // End MONITOR dynamic field statistics
(PID.TID 0000.0001) // =======================================================
 EXTERNAL_FIELDS_LOAD,     72013 : iP,iLd,i0,i1=   12    1   12    1 ; Wght=  0.0666666667  0.9333333333
 cg2d: Sum(rhs),rhsMax =  -9.60653778747655E-12  4.26348702814995E+00
(PID.TID 0000.0001)                    cg2d_init_res =    1.52360323983942E-01
(PID.TID 0000.0001)                       cg2d_iters =    62
(PID.TID 0000.0001)                         cg2d_res =    4.81099041701348E-07
(PID.TID 0000.0001) // =======================================================
(PID.TID 0000.0001) // Begin MONITOR dynamic field statistics
(PID.TID 0000.0001) // =======================================================
(PID.TID 0000.0001) %MON time_tsnumber                =                 72014
(PID.TID 0000.0001) %MON time_secondsf                =   6.2220096000000E+09
(PID.TID 0000.0001) %MON dynstat_eta_max              =   9.0204170246720E-01
(PID.TID 0000.0001) %MON dynstat_eta_min              =  -1.6124333862505E+00
(PID.TID 0000.0001) %MON dynstat_eta_mean             =   1.4317641900547E-14
(PID.TID 0000.0001) %MON dynstat_eta_sd               =   5.9795505156087E-01
(PID.TID 0000.0001) %MON dynstat_eta_del2             =   7.9349331088898E-04
(PID.TID 0000.0001) %MON dynstat_uvel_max             =   1.8583029869595E-01
(PID.TID 0000.0001) %MON dynstat_uvel_min             =  -2.8298152604746E-01
(PID.TID 0000.0001) %MON dynstat_uvel_mean            =  -4.8325283345920E-04
(PID.TID 0000.0001) %MON dynstat_uvel_sd              =   1.2002505071840E-02
(PID.TID 0000.0001) %MON dynstat_uvel_del2            =   5.0965513208729E-05
(PID.TID 0000.0001) %MON dynstat_vvel_max             =   1.7433015674173E-01
(PID.TID 0000.0001) %MON dynstat_vvel_min             =  -2.2432891885961E-01
(PID.TID 0000.0001) %MON dynstat_vvel_mean            =  -3.9981860289738E-04
(PID.TID 0000.0001) %MON dynstat_vvel_sd              =   1.2648263656489E-02
(PID.TID 0000.0001) %MON dynstat_vvel_del2            =   5.0278426450762E-05
(PID.TID 0000.0001) %MON dynstat_wvel_max             =   1.0820765087030E-04
(PID.TID 0000.0001) %MON dynstat_wvel_min             =  -2.0403633240195E-04
(PID.TID 0000.0001) %MON dynstat_wvel_mean            =   5.1191247815839E-11
(PID.TID 0000.0001) %MON dynstat_wvel_sd              =   3.8066662937853E-06
(PID.TID 0000.0001) %MON dynstat_wvel_del2            =   2.6454202018074E-08
(PID.TID 0000.0001) %MON dynstat_theta_max            =   3.1098287070816E+01
(PID.TID 0000.0001) %MON dynstat_theta_min            =  -3.6721959135838E+00
(PID.TID 0000.0001) %MON dynstat_theta_mean           =   3.9099483040444E+00
(PID.TID 0000.0001) %MON dynstat_theta_sd             =   4.5720360490570E+00
(PID.TID 0000.0001) %MON dynstat_theta_del2           =   2.7219688613379E-03
(PID.TID 0000.0001) %MON dynstat_salt_max             =   4.1394391786273E+01
(PID.TID 0000.0001) %MON dynstat_salt_min             =   1.8388366371529E+01
(PID.TID 0000.0001) %MON dynstat_salt_mean            =   3.4772075349266E+01
(PID.TID 0000.0001) %MON dynstat_salt_sd              =   5.3148869258399E-01
(PID.TID 0000.0001) %MON dynstat_salt_del2            =   8.2753919811408E-04
(PID.TID 0000.0001) %MON forcing_qnet_max             =   4.5222027555240E+02
(PID.TID 0000.0001) %MON forcing_qnet_min             =  -2.0475234489479E+02
(PID.TID 0000.0001) %MON forcing_qnet_mean            =  -1.2304791184004E+01
(PID.TID 0000.0001) %MON forcing_qnet_sd              =   1.1350821078146E+02
(PID.TID 0000.0001) %MON forcing_qnet_del2            =   4.3821832929352E-01
(PID.TID 0000.0001) %MON forcing_qsw_max              =   0.0000000000000E+00
(PID.TID 0000.0001) %MON forcing_qsw_min              =   0.0000000000000E+00
(PID.TID 0000.0001) %MON forcing_qsw_mean             =   0.0000000000000E+00
(PID.TID 0000.0001) %MON forcing_qsw_sd               =   0.0000000000000E+00
(PID.TID 0000.0001) %MON forcing_qsw_del2             =   0.0000000000000E+00
(PID.TID 0000.0001) %MON forcing_empmr_max            =   7.6494447208479E-05
(PID.TID 0000.0001) %MON forcing_empmr_min            =  -1.5362614137596E-04
(PID.TID 0000.0001) %MON forcing_empmr_mean           =  -2.7256318706594E-21
(PID.TID 0000.0001) %MON forcing_empmr_sd             =   2.4051723601802E-05
(PID.TID 0000.0001) %MON forcing_empmr_del2           =   1.2276157049243E-07
(PID.TID 0000.0001) %MON forcing_fu_max               =   2.4839906243671E-01
(PID.TID 0000.0001) %MON forcing_fu_min               =  -2.4462500977759E-01
(PID.TID 0000.0001) %MON forcing_fu_mean              =  -3.9826545003281E-03
(PID.TID 0000.0001) %MON forcing_fu_sd                =   6.5104931934298E-02
(PID.TID 0000.0001) %MON forcing_fu_del2              =   2.2499056699550E-04
(PID.TID 0000.0001) %MON forcing_fv_max               =   2.8769312088010E-01
(PID.TID 0000.0001) %MON forcing_fv_min               =  -3.3716267516111E-01
(PID.TID 0000.0001) %MON forcing_fv_mean              =  -1.3735533615913E-02
(PID.TID 0000.0001) %MON forcing_fv_sd                =   7.6464336061349E-02
(PID.TID 0000.0001) %MON forcing_fv_del2              =   2.5132568855654E-04
(PID.TID 0000.0001) %MON advcfl_uvel_max              =   8.0258928574916E-02
(PID.TID 0000.0001) %MON advcfl_vvel_max              =   7.5988059323133E-02
(PID.TID 0000.0001) %MON advcfl_wvel_max              =   6.6523543847278E-02
(PID.TID 0000.0001) %MON advcfl_W_hf_max              =   7.3480673092327E-02
(PID.TID 0000.0001) %MON pe_b_mean                    =   4.7632299847860E-04
(PID.TID 0000.0001) %MON ke_max                       =   3.8979696619397E-02
(PID.TID 0000.0001) %MON ke_mean                      =   1.4058236329958E-04
(PID.TID 0000.0001) %MON ke_vol                       =   1.3398024453628E+18
(PID.TID 0000.0001) %MON vort_r_min                   =  -1.2543229800107E-06
(PID.TID 0000.0001) %MON vort_r_max                   =   1.2409936518351E-06
(PID.TID 0000.0001) %MON vort_a_mean                  =  -2.0549865324846E-05
(PID.TID 0000.0001) %MON vort_a_sd                    =   7.5259515501874E-05
(PID.TID 0000.0001) %MON vort_p_mean                  =  -2.4783469046937E-05
(PID.TID 0000.0001) %MON vort_p_sd                    =   1.2812070388906E-04
(PID.TID 0000.0001) %MON surfExpan_theta_mean         =   4.7498778955716E-08
(PID.TID 0000.0001) %MON surfExpan_salt_mean          =   1.4491035829935E-08
(PID.TID 0000.0001) // =======================================================
(PID.TID 0000.0001) // End MONITOR dynamic field statistics
(PID.TID 0000.0001) // =======================================================
 EXTERNAL_FIELDS_LOAD,     72014 : iP,iLd,i0,i1=   12    1   12    1 ; Wght=  0.0333333333  0.9666666667
 cg2d: Sum(rhs),rhsMax =  -9.37916411203332E-12  4.26285807908764E+00
(PID.TID 0000.0001)                    cg2d_init_res =    1.54857941883899E-01
(PID.TID 0000.0001)                       cg2d_iters =    62
(PID.TID 0000.0001)                         cg2d_res =    4.86858524642365E-07
(PID.TID 0000.0001) // =======================================================
(PID.TID 0000.0001) // Begin MONITOR dynamic field statistics
(PID.TID 0000.0001) // =======================================================
(PID.TID 0000.0001) %MON time_tsnumber                =                 72015
(PID.TID 0000.0001) %MON time_secondsf                =   6.2220960000000E+09
(PID.TID 0000.0001) %MON dynstat_eta_max              =   9.0083860274509E-01
(PID.TID 0000.0001) %MON dynstat_eta_min              =  -1.6119155721947E+00
(PID.TID 0000.0001) %MON dynstat_eta_mean             =   1.4510009450074E-14
(PID.TID 0000.0001) %MON dynstat_eta_sd               =   5.9786927606404E-01
(PID.TID 0000.0001) %MON dynstat_eta_del2             =   7.9413919492589E-04
(PID.TID 0000.0001) %MON dynstat_uvel_max             =   1.8534697004532E-01
(PID.TID 0000.0001) %MON dynstat_uvel_min             =  -2.8251059858547E-01
(PID.TID 0000.0001) %MON dynstat_uvel_mean            =  -4.8255828231037E-04
(PID.TID 0000.0001) %MON dynstat_uvel_sd              =   1.2001944909873E-02
(PID.TID 0000.0001) %MON dynstat_uvel_del2            =   5.0961274788646E-05
(PID.TID 0000.0001) %MON dynstat_vvel_max             =   1.7413729283537E-01
(PID.TID 0000.0001) %MON dynstat_vvel_min             =  -2.2422426532679E-01
(PID.TID 0000.0001) %MON dynstat_vvel_mean            =  -3.9941925063760E-04
(PID.TID 0000.0001) %MON dynstat_vvel_sd              =   1.2645855132643E-02
(PID.TID 0000.0001) %MON dynstat_vvel_del2            =   5.0263649079646E-05
(PID.TID 0000.0001) %MON dynstat_wvel_max             =   1.0867103630056E-04
(PID.TID 0000.0001) %MON dynstat_wvel_min             =  -2.0369993368971E-04
(PID.TID 0000.0001) %MON dynstat_wvel_mean            =   4.2557212061023E-11
(PID.TID 0000.0001) %MON dynstat_wvel_sd              =   3.8045370543103E-06
(PID.TID 0000.0001) %MON dynstat_wvel_del2            =   2.6454679328514E-08
(PID.TID 0000.0001) %MON dynstat_theta_max            =   3.1107574157708E+01
(PID.TID 0000.0001) %MON dynstat_theta_min            =  -3.7182774277352E+00
(PID.TID 0000.0001) %MON dynstat_theta_mean           =   3.9100077736691E+00
(PID.TID 0000.0001) %MON dynstat_theta_sd             =   4.5721439424268E+00
(PID.TID 0000.0001) %MON dynstat_theta_del2           =   2.7264625164725E-03
(PID.TID 0000.0001) %MON dynstat_salt_max             =   4.1394930967260E+01
(PID.TID 0000.0001) %MON dynstat_salt_min             =   1.8388769876879E+01
(PID.TID 0000.0001) %MON dynstat_salt_mean            =   3.4772075973357E+01
(PID.TID 0000.0001) %MON dynstat_salt_sd              =   5.3148898986613E-01
(PID.TID 0000.0001) %MON dynstat_salt_del2            =   8.2893774056152E-04
(PID.TID 0000.0001) %MON forcing_qnet_max             =   4.5655909646370E+02
(PID.TID 0000.0001) %MON forcing_qnet_min             =  -2.0442805701094E+02
(PID.TID 0000.0001) %MON forcing_qnet_mean            =  -1.2317019552647E+01
(PID.TID 0000.0001) %MON forcing_qnet_sd              =   1.1339064702855E+02
(PID.TID 0000.0001) %MON forcing_qnet_del2            =   4.4067508217007E-01
(PID.TID 0000.0001) %MON forcing_qsw_max              =   0.0000000000000E+00
(PID.TID 0000.0001) %MON forcing_qsw_min              =   0.0000000000000E+00
(PID.TID 0000.0001) %MON forcing_qsw_mean             =   0.0000000000000E+00
(PID.TID 0000.0001) %MON forcing_qsw_sd               =   0.0000000000000E+00
(PID.TID 0000.0001) %MON forcing_qsw_del2             =   0.0000000000000E+00
(PID.TID 0000.0001) %MON forcing_empmr_max            =   7.6494447208479E-05
(PID.TID 0000.0001) %MON forcing_empmr_min            =  -1.5362614137596E-04
(PID.TID 0000.0001) %MON forcing_empmr_mean           =  -2.7256318706594E-21
(PID.TID 0000.0001) %MON forcing_empmr_sd             =   2.4051723601802E-05
(PID.TID 0000.0001) %MON forcing_empmr_del2           =   1.2276157049243E-07
(PID.TID 0000.0001) %MON forcing_fu_max               =   2.4866343693550E-01
(PID.TID 0000.0001) %MON forcing_fu_min               =  -2.4810804207900E-01
(PID.TID 0000.0001) %MON forcing_fu_mean              =  -3.9391755645947E-03
(PID.TID 0000.0001) %MON forcing_fu_sd                =   6.5286328792105E-02
(PID.TID 0000.0001) %MON forcing_fu_del2              =   2.2797906587778E-04
(PID.TID 0000.0001) %MON forcing_fv_max               =   2.9037636245273E-01
(PID.TID 0000.0001) %MON forcing_fv_min               =  -3.3795057909504E-01
(PID.TID 0000.0001) %MON forcing_fv_mean              =  -1.3739459161841E-02
(PID.TID 0000.0001) %MON forcing_fv_sd                =   7.6635516474945E-02
(PID.TID 0000.0001) %MON forcing_fv_del2              =   2.5394204351914E-04
(PID.TID 0000.0001) %MON advcfl_uvel_max              =   8.0125364613821E-02
(PID.TID 0000.0001) %MON advcfl_vvel_max              =   7.5903992663460E-02
(PID.TID 0000.0001) %MON advcfl_wvel_max              =   6.6413865172797E-02
(PID.TID 0000.0001) %MON advcfl_W_hf_max              =   7.3359539453400E-02
(PID.TID 0000.0001) %MON pe_b_mean                    =   4.7618635305242E-04
(PID.TID 0000.0001) %MON ke_max                       =   3.8833678172940E-02
(PID.TID 0000.0001) %MON ke_mean                      =   1.4054748205571E-04
(PID.TID 0000.0001) %MON ke_vol                       =   1.3398024453628E+18
(PID.TID 0000.0001) %MON vort_r_min                   =  -1.2598322782809E-06
(PID.TID 0000.0001) %MON vort_r_max                   =   1.2428951146912E-06
(PID.TID 0000.0001) %MON vort_a_mean                  =  -2.0549865324846E-05
(PID.TID 0000.0001) %MON vort_a_sd                    =   7.5259515408236E-05
(PID.TID 0000.0001) %MON vort_p_mean                  =  -2.4783469022056E-05
(PID.TID 0000.0001) %MON vort_p_sd                    =   1.2812070250025E-04
(PID.TID 0000.0001) %MON surfExpan_theta_mean         =   4.7450463117897E-08
(PID.TID 0000.0001) %MON surfExpan_salt_mean          =   1.4524084550765E-08
(PID.TID 0000.0001) // =======================================================
(PID.TID 0000.0001) // End MONITOR dynamic field statistics
(PID.TID 0000.0001) // =======================================================
 EXTERNAL_FIELDS_LOAD,     72015 : iP,iLd,i0,i1=   12    1    1    2 ; Wght=  1.0000000000  0.0000000000
 EXTERNAL_FIELDS_LOAD, it=     72015 : Reading new data, i0,i1=    1    2 (prev=   12    1 )
(PID.TID 0000.0001)  MDS_READ_FIELD: opening global file: trenberth_taux.bin
(PID.TID 0000.0001)  MDS_READ_FIELD: opening global file: trenberth_taux.bin
(PID.TID 0000.0001)  MDS_READ_FIELD: opening global file: trenberth_tauy.bin
(PID.TID 0000.0001)  MDS_READ_FIELD: opening global file: trenberth_tauy.bin
(PID.TID 0000.0001)  MDS_READ_FIELD: opening global file: shiQnet_cs32.bin
(PID.TID 0000.0001)  MDS_READ_FIELD: opening global file: shiQnet_cs32.bin
(PID.TID 0000.0001)  MDS_READ_FIELD: opening global file: shiEmPR_cs32.bin
(PID.TID 0000.0001)  MDS_READ_FIELD: opening global file: shiEmPR_cs32.bin
(PID.TID 0000.0001)  MDS_READ_FIELD: opening global file: lev_surfT_cs_12m.bin
(PID.TID 0000.0001)  MDS_READ_FIELD: opening global file: lev_surfT_cs_12m.bin
(PID.TID 0000.0001)  MDS_READ_FIELD: opening global file: lev_surfS_cs_12m.bin
(PID.TID 0000.0001)  MDS_READ_FIELD: opening global file: lev_surfS_cs_12m.bin
 cg2d: Sum(rhs),rhsMax =  -9.86233317235019E-12  4.26219106181134E+00
(PID.TID 0000.0001)                    cg2d_init_res =    1.52360363743088E-01
(PID.TID 0000.0001)                       cg2d_iters =    62
(PID.TID 0000.0001)                         cg2d_res =    4.83491464458515E-07
(PID.TID 0000.0001) // =======================================================
(PID.TID 0000.0001) // Begin MONITOR dynamic field statistics
(PID.TID 0000.0001) // =======================================================
(PID.TID 0000.0001) %MON time_tsnumber                =                 72016
(PID.TID 0000.0001) %MON time_secondsf                =   6.2221824000000E+09
(PID.TID 0000.0001) %MON dynstat_eta_max              =   8.9967887920854E-01
(PID.TID 0000.0001) %MON dynstat_eta_min              =  -1.6113770290055E+00
(PID.TID 0000.0001) %MON dynstat_eta_mean             =   1.4358863518302E-14
(PID.TID 0000.0001) %MON dynstat_eta_sd               =   5.9778659034868E-01
(PID.TID 0000.0001) %MON dynstat_eta_del2             =   7.9479131845955E-04
(PID.TID 0000.0001) %MON dynstat_uvel_max             =   1.8489216324726E-01
(PID.TID 0000.0001) %MON dynstat_uvel_min             =  -2.8202457721026E-01
(PID.TID 0000.0001) %MON dynstat_uvel_mean            =  -4.8184560693738E-04
(PID.TID 0000.0001) %MON dynstat_uvel_sd              =   1.2001568789058E-02
(PID.TID 0000.0001) %MON dynstat_uvel_del2            =   5.0960876883619E-05
(PID.TID 0000.0001) %MON dynstat_vvel_max             =   1.7391338406755E-01
(PID.TID 0000.0001) %MON dynstat_vvel_min             =  -2.2411569432903E-01
(PID.TID 0000.0001) %MON dynstat_vvel_mean            =  -3.9900980266369E-04
(PID.TID 0000.0001) %MON dynstat_vvel_sd              =   1.2643164223785E-02
(PID.TID 0000.0001) %MON dynstat_vvel_del2            =   5.0250395314822E-05
(PID.TID 0000.0001) %MON dynstat_wvel_max             =   1.0910515436140E-04
(PID.TID 0000.0001) %MON dynstat_wvel_min             =  -2.0333530044269E-04
(PID.TID 0000.0001) %MON dynstat_wvel_mean            =   3.5662878624670E-11
(PID.TID 0000.0001) %MON dynstat_wvel_sd              =   3.8023853248210E-06
(PID.TID 0000.0001) %MON dynstat_wvel_del2            =   2.6455522529641E-08
(PID.TID 0000.0001) %MON dynstat_theta_max            =   3.1116515037641E+01
(PID.TID 0000.0001) %MON dynstat_theta_min            =  -3.7643427468438E+00
(PID.TID 0000.0001) %MON dynstat_theta_mean           =   3.9100673273334E+00
(PID.TID 0000.0001) %MON dynstat_theta_sd             =   4.5722563508867E+00
(PID.TID 0000.0001) %MON dynstat_theta_del2           =   2.7290852727348E-03
(PID.TID 0000.0001) %MON dynstat_salt_max             =   4.1395462509729E+01
(PID.TID 0000.0001) %MON dynstat_salt_min             =   1.8389180271220E+01
(PID.TID 0000.0001) %MON dynstat_salt_mean            =   3.4772076618584E+01
(PID.TID 0000.0001) %MON dynstat_salt_sd              =   5.3148836870478E-01
(PID.TID 0000.0001) %MON dynstat_salt_del2            =   8.2980002567686E-04
(PID.TID 0000.0001) %MON forcing_qnet_max             =   4.6211611868841E+02
(PID.TID 0000.0001) %MON forcing_qnet_min             =  -2.0410376912710E+02
(PID.TID 0000.0001) %MON forcing_qnet_mean            =  -1.2329247921290E+01
(PID.TID 0000.0001) %MON forcing_qnet_sd              =   1.1327998988989E+02
(PID.TID 0000.0001) %MON forcing_qnet_del2            =   4.4323506322358E-01
(PID.TID 0000.0001) %MON forcing_qsw_max              =   0.0000000000000E+00
(PID.TID 0000.0001) %MON forcing_qsw_min              =   0.0000000000000E+00
(PID.TID 0000.0001) %MON forcing_qsw_mean             =   0.0000000000000E+00
(PID.TID 0000.0001) %MON forcing_qsw_sd               =   0.0000000000000E+00
(PID.TID 0000.0001) %MON forcing_qsw_del2             =   0.0000000000000E+00
(PID.TID 0000.0001) %MON forcing_empmr_max            =   7.6494447208479E-05
(PID.TID 0000.0001) %MON forcing_empmr_min            =  -1.5362614137596E-04
(PID.TID 0000.0001) %MON forcing_empmr_mean           =  -2.7256318706594E-21
(PID.TID 0000.0001) %MON forcing_empmr_sd             =   2.4051723601802E-05
(PID.TID 0000.0001) %MON forcing_empmr_del2           =   1.2276157049243E-07
(PID.TID 0000.0001) %MON forcing_fu_max               =   2.4892781143428E-01
(PID.TID 0000.0001) %MON forcing_fu_min               =  -2.5159107438040E-01
(PID.TID 0000.0001) %MON forcing_fu_mean              =  -3.8956966288612E-03
(PID.TID 0000.0001) %MON forcing_fu_sd                =   6.5480383395885E-02
(PID.TID 0000.0001) %MON forcing_fu_del2              =   2.3114393556995E-04
(PID.TID 0000.0001) %MON forcing_fv_max               =   2.9305960402537E-01
(PID.TID 0000.0001) %MON forcing_fv_min               =  -3.3950131228473E-01
(PID.TID 0000.0001) %MON forcing_fv_mean              =  -1.3743384707768E-02
(PID.TID 0000.0001) %MON forcing_fv_sd                =   7.6816469815204E-02
(PID.TID 0000.0001) %MON forcing_fv_del2              =   2.5671701728584E-04
(PID.TID 0000.0001) %MON advcfl_uvel_max              =   7.9987519732625E-02
(PID.TID 0000.0001) %MON advcfl_vvel_max              =   7.5806393986039E-02
(PID.TID 0000.0001) %MON advcfl_wvel_max              =   6.6294980974523E-02
(PID.TID 0000.0001) %MON advcfl_W_hf_max              =   7.3228238336448E-02
(PID.TID 0000.0001) %MON pe_b_mean                    =   4.7605464838682E-04
(PID.TID 0000.0001) %MON ke_max                       =   3.8684728263241E-02
(PID.TID 0000.0001) %MON ke_mean                      =   1.4051131206210E-04
(PID.TID 0000.0001) %MON ke_vol                       =   1.3398024453628E+18
(PID.TID 0000.0001) %MON vort_r_min                   =  -1.2652667342755E-06
(PID.TID 0000.0001) %MON vort_r_max                   =   1.2446160313628E-06
(PID.TID 0000.0001) %MON vort_a_mean                  =  -2.0549865324846E-05
(PID.TID 0000.0001) %MON vort_a_sd                    =   7.5259515314756E-05
(PID.TID 0000.0001) %MON vort_p_mean                  =  -2.4783468995528E-05
(PID.TID 0000.0001) %MON vort_p_sd                    =   1.2812070109185E-04
(PID.TID 0000.0001) %MON surfExpan_theta_mean         =   4.7445192827023E-08
(PID.TID 0000.0001) %MON surfExpan_salt_mean          =   1.4541479667619E-08
(PID.TID 0000.0001) // =======================================================
(PID.TID 0000.0001) // End MONITOR dynamic field statistics
(PID.TID 0000.0001) // =======================================================
 Compute Stats, Diag. #     23  ETAN      vol(   0 ): 3.639E+14  Parms: SM      M1      
 Compute Stats, Diag. #     30  UVEL      vol(   0 ): 1.231E+18  Parms: UUR     MR      
 Compute Stats, Diag. #     31  VVEL      vol(   0 ): 1.243E+18  Parms: VVR     MR      
 Compute Stats, Diag. #     32  WVEL      vol(   0 ): 1.315E+18  Parms: WM      LR      
 Compute Stats, Diag. #     26  THETA     vol(   0 ): 1.340E+18  Parms: SMR     MR      
 EXTERNAL_FIELDS_LOAD,     72016 : iP,iLd,i0,i1=    1    2    1    2 ; Wght=  0.9666666667  0.0333333333
 cg2d: Sum(rhs),rhsMax =  -9.54969436861575E-12  4.26135656916969E+00
(PID.TID 0000.0001)                    cg2d_init_res =    1.54057461143844E-01
(PID.TID 0000.0001)                       cg2d_iters =    62
(PID.TID 0000.0001)                         cg2d_res =    4.76903288871983E-07
(PID.TID 0000.0001) // =======================================================
(PID.TID 0000.0001) // Begin MONITOR dynamic field statistics
(PID.TID 0000.0001) // =======================================================
(PID.TID 0000.0001) %MON time_tsnumber                =                 72017
(PID.TID 0000.0001) %MON time_secondsf                =   6.2222688000000E+09
(PID.TID 0000.0001) %MON dynstat_eta_max              =   8.9858377534602E-01
(PID.TID 0000.0001) %MON dynstat_eta_min              =  -1.6107644896487E+00
(PID.TID 0000.0001) %MON dynstat_eta_mean             =   1.4372604057554E-14
(PID.TID 0000.0001) %MON dynstat_eta_sd               =   5.9770419868606E-01
(PID.TID 0000.0001) %MON dynstat_eta_del2             =   7.9545969652675E-04
(PID.TID 0000.0001) %MON dynstat_uvel_max             =   1.8491502188185E-01
(PID.TID 0000.0001) %MON dynstat_uvel_min             =  -2.8152783776600E-01
(PID.TID 0000.0001) %MON dynstat_uvel_mean            =  -4.8115919854482E-04
(PID.TID 0000.0001) %MON dynstat_uvel_sd              =   1.2001380231025E-02
(PID.TID 0000.0001) %MON dynstat_uvel_del2            =   5.0963100167818E-05
(PID.TID 0000.0001) %MON dynstat_vvel_max             =   1.7365999936782E-01
(PID.TID 0000.0001) %MON dynstat_vvel_min             =  -2.2399632840808E-01
(PID.TID 0000.0001) %MON dynstat_vvel_mean            =  -3.9859699510840E-04
(PID.TID 0000.0001) %MON dynstat_vvel_sd              =   1.2639794682994E-02
(PID.TID 0000.0001) %MON dynstat_vvel_del2            =   5.0238489355217E-05
(PID.TID 0000.0001) %MON dynstat_wvel_max             =   1.0951280172258E-04
(PID.TID 0000.0001) %MON dynstat_wvel_min             =  -2.0294323647684E-04
(PID.TID 0000.0001) %MON dynstat_wvel_mean            =   1.8022162701501E-11
(PID.TID 0000.0001) %MON dynstat_wvel_sd              =   3.8001578659495E-06
(PID.TID 0000.0001) %MON dynstat_wvel_del2            =   2.6455955135831E-08
(PID.TID 0000.0001) %MON dynstat_theta_max            =   3.1124920590768E+01
(PID.TID 0000.0001) %MON dynstat_theta_min            =  -3.8104592276894E+00
(PID.TID 0000.0001) %MON dynstat_theta_mean           =   3.9101274146309E+00
(PID.TID 0000.0001) %MON dynstat_theta_sd             =   4.5723774915986E+00
(PID.TID 0000.0001) %MON dynstat_theta_del2           =   2.7318392872506E-03
(PID.TID 0000.0001) %MON dynstat_salt_max             =   4.1395997560259E+01
(PID.TID 0000.0001) %MON dynstat_salt_min             =   1.8389593889087E+01
(PID.TID 0000.0001) %MON dynstat_salt_mean            =   3.4772077283480E+01
(PID.TID 0000.0001) %MON dynstat_salt_sd              =   5.3148679559168E-01
(PID.TID 0000.0001) %MON dynstat_salt_del2            =   8.3134599603909E-04
(PID.TID 0000.0001) %MON forcing_qnet_max             =   4.5753071201305E+02
(PID.TID 0000.0001) %MON forcing_qnet_min             =  -2.0101909770688E+02
(PID.TID 0000.0001) %MON forcing_qnet_mean            =  -1.2374912456645E+01
(PID.TID 0000.0001) %MON forcing_qnet_sd              =   1.1223184124370E+02
(PID.TID 0000.0001) %MON forcing_qnet_del2            =   4.4119059898150E-01
(PID.TID 0000.0001) %MON forcing_qsw_max              =   0.0000000000000E+00
(PID.TID 0000.0001) %MON forcing_qsw_min              =   0.0000000000000E+00
(PID.TID 0000.0001) %MON forcing_qsw_mean             =   0.0000000000000E+00
(PID.TID 0000.0001) %MON forcing_qsw_sd               =   0.0000000000000E+00
(PID.TID 0000.0001) %MON forcing_qsw_del2             =   0.0000000000000E+00
(PID.TID 0000.0001) %MON forcing_empmr_max            =   7.6494447208479E-05
(PID.TID 0000.0001) %MON forcing_empmr_min            =  -1.5362614137596E-04
(PID.TID 0000.0001) %MON forcing_empmr_mean           =  -2.7256318706594E-21
(PID.TID 0000.0001) %MON forcing_empmr_sd             =   2.4051723601802E-05
(PID.TID 0000.0001) %MON forcing_empmr_del2           =   1.2276157049243E-07
(PID.TID 0000.0001) %MON forcing_fu_max               =   2.4586080052368E-01
(PID.TID 0000.0001) %MON forcing_fu_min               =  -2.4690104382675E-01
(PID.TID 0000.0001) %MON forcing_fu_mean              =  -3.9278253198990E-03
(PID.TID 0000.0001) %MON forcing_fu_sd                =   6.5282090105345E-02
(PID.TID 0000.0001) %MON forcing_fu_del2              =   2.2765741152947E-04
(PID.TID 0000.0001) %MON forcing_fv_max               =   2.9225622243089E-01
(PID.TID 0000.0001) %MON forcing_fv_min               =  -3.3606226010595E-01
(PID.TID 0000.0001) %MON forcing_fv_mean              =  -1.3741594714266E-02
(PID.TID 0000.0001) %MON forcing_fv_sd                =   7.6550053729987E-02
(PID.TID 0000.0001) %MON forcing_fv_del2              =   2.5418174123344E-04
(PID.TID 0000.0001) %MON advcfl_uvel_max              =   7.9846635003739E-02
(PID.TID 0000.0001) %MON advcfl_vvel_max              =   7.5695947165166E-02
(PID.TID 0000.0001) %MON advcfl_wvel_max              =   6.6167153326788E-02
(PID.TID 0000.0001) %MON advcfl_W_hf_max              =   7.3087059551210E-02
(PID.TID 0000.0001) %MON pe_b_mean                    =   4.7592343021765E-04
(PID.TID 0000.0001) %MON ke_max                       =   3.8535464727252E-02
(PID.TID 0000.0001) %MON ke_mean                      =   1.4046926852467E-04
(PID.TID 0000.0001) %MON ke_vol                       =   1.3398024453628E+18
(PID.TID 0000.0001) %MON vort_r_min                   =  -1.2704321918242E-06
(PID.TID 0000.0001) %MON vort_r_max                   =   1.2459583563020E-06
(PID.TID 0000.0001) %MON vort_a_mean                  =  -2.0549865324846E-05
(PID.TID 0000.0001) %MON vort_a_sd                    =   7.5259515223125E-05
(PID.TID 0000.0001) %MON vort_p_mean                  =  -2.4783468967756E-05
(PID.TID 0000.0001) %MON vort_p_sd                    =   1.2812069966895E-04
(PID.TID 0000.0001) %MON surfExpan_theta_mean         =   4.7411146525259E-08
(PID.TID 0000.0001) %MON surfExpan_salt_mean          =   1.4565991178833E-08
(PID.TID 0000.0001) // =======================================================
(PID.TID 0000.0001) // End MONITOR dynamic field statistics
(PID.TID 0000.0001) // =======================================================
 EXTERNAL_FIELDS_LOAD,     72017 : iP,iLd,i0,i1=    1    2    1    2 ; Wght=  0.9333333333  0.0666666667
 cg2d: Sum(rhs),rhsMax =  -9.66338120633736E-12  4.26051978430792E+00
(PID.TID 0000.0001)                    cg2d_init_res =    1.64159557675629E-01
(PID.TID 0000.0001)                       cg2d_iters =    62
(PID.TID 0000.0001)                         cg2d_res =    5.01119605800073E-07
(PID.TID 0000.0001) // =======================================================
(PID.TID 0000.0001) // Begin MONITOR dynamic field statistics
(PID.TID 0000.0001) // =======================================================
(PID.TID 0000.0001) %MON time_tsnumber                =                 72018
(PID.TID 0000.0001) %MON time_secondsf                =   6.2223552000000E+09
(PID.TID 0000.0001) %MON dynstat_eta_max              =   8.9753631448526E-01
(PID.TID 0000.0001) %MON dynstat_eta_min              =  -1.6101437282703E+00
(PID.TID 0000.0001) %MON dynstat_eta_mean             =   1.4221458125783E-14
(PID.TID 0000.0001) %MON dynstat_eta_sd               =   5.9762565843392E-01
(PID.TID 0000.0001) %MON dynstat_eta_del2             =   7.9620721421915E-04
(PID.TID 0000.0001) %MON dynstat_uvel_max             =   1.8487310918016E-01
(PID.TID 0000.0001) %MON dynstat_uvel_min             =  -2.8101884047338E-01
(PID.TID 0000.0001) %MON dynstat_uvel_mean            =  -4.8050466507970E-04
(PID.TID 0000.0001) %MON dynstat_uvel_sd              =   1.2001310964250E-02
(PID.TID 0000.0001) %MON dynstat_uvel_del2            =   5.0968639461031E-05
(PID.TID 0000.0001) %MON dynstat_vvel_max             =   1.7337921591762E-01
(PID.TID 0000.0001) %MON dynstat_vvel_min             =  -2.2386928371955E-01
(PID.TID 0000.0001) %MON dynstat_vvel_mean            =  -3.9816846404653E-04
(PID.TID 0000.0001) %MON dynstat_vvel_sd              =   1.2635961670256E-02
(PID.TID 0000.0001) %MON dynstat_vvel_del2            =   5.0227517787731E-05
(PID.TID 0000.0001) %MON dynstat_wvel_max             =   1.0988317364340E-04
(PID.TID 0000.0001) %MON dynstat_wvel_min             =  -2.0253340316993E-04
(PID.TID 0000.0001) %MON dynstat_wvel_mean            =   4.9035386554889E-12
(PID.TID 0000.0001) %MON dynstat_wvel_sd              =   3.7977933669630E-06
(PID.TID 0000.0001) %MON dynstat_wvel_del2            =   2.6456168967151E-08
(PID.TID 0000.0001) %MON dynstat_theta_max            =   3.1136191596714E+01
(PID.TID 0000.0001) %MON dynstat_theta_min            =  -3.8566086058616E+00
(PID.TID 0000.0001) %MON dynstat_theta_mean           =   3.9101883777600E+00
(PID.TID 0000.0001) %MON dynstat_theta_sd             =   4.5725099136923E+00
(PID.TID 0000.0001) %MON dynstat_theta_del2           =   2.7364992922963E-03
(PID.TID 0000.0001) %MON dynstat_salt_max             =   4.1396540318906E+01
(PID.TID 0000.0001) %MON dynstat_salt_min             =   1.8390010783141E+01
(PID.TID 0000.0001) %MON dynstat_salt_mean            =   3.4772077964796E+01
(PID.TID 0000.0001) %MON dynstat_salt_sd              =   5.3148671791805E-01
(PID.TID 0000.0001) %MON dynstat_salt_del2            =   8.3324994824821E-04
(PID.TID 0000.0001) %MON forcing_qnet_max             =   4.5294530533769E+02
(PID.TID 0000.0001) %MON forcing_qnet_min             =  -1.9793442628666E+02
(PID.TID 0000.0001) %MON forcing_qnet_mean            =  -1.2420576992001E+01
(PID.TID 0000.0001) %MON forcing_qnet_sd              =   1.1119236898197E+02
(PID.TID 0000.0001) %MON forcing_qnet_del2            =   4.3924090499131E-01
(PID.TID 0000.0001) %MON forcing_qsw_max              =   0.0000000000000E+00
(PID.TID 0000.0001) %MON forcing_qsw_min              =   0.0000000000000E+00
(PID.TID 0000.0001) %MON forcing_qsw_mean             =   0.0000000000000E+00
(PID.TID 0000.0001) %MON forcing_qsw_sd               =   0.0000000000000E+00
(PID.TID 0000.0001) %MON forcing_qsw_del2             =   0.0000000000000E+00
(PID.TID 0000.0001) %MON forcing_empmr_max            =   7.6494447208479E-05
(PID.TID 0000.0001) %MON forcing_empmr_min            =  -1.5362614137596E-04
(PID.TID 0000.0001) %MON forcing_empmr_mean           =  -2.7256318706594E-21
(PID.TID 0000.0001) %MON forcing_empmr_sd             =   2.4051723601802E-05
(PID.TID 0000.0001) %MON forcing_empmr_del2           =   1.2276157049243E-07
(PID.TID 0000.0001) %MON forcing_fu_max               =   2.4279378961307E-01
(PID.TID 0000.0001) %MON forcing_fu_min               =  -2.4221101327311E-01
(PID.TID 0000.0001) %MON forcing_fu_mean              =  -3.9599540109368E-03
(PID.TID 0000.0001) %MON forcing_fu_sd                =   6.5097565012911E-02
(PID.TID 0000.0001) %MON forcing_fu_del2              =   2.2436904772888E-04
(PID.TID 0000.0001) %MON forcing_fv_max               =   2.9145284083641E-01
(PID.TID 0000.0001) %MON forcing_fv_min               =  -3.3262320792717E-01
(PID.TID 0000.0001) %MON forcing_fv_mean              =  -1.3739804720763E-02
(PID.TID 0000.0001) %MON forcing_fv_sd                =   7.6299912613877E-02
(PID.TID 0000.0001) %MON forcing_fv_del2              =   2.5181803534899E-04
(PID.TID 0000.0001) %MON advcfl_uvel_max              =   7.9702273716541E-02
(PID.TID 0000.0001) %MON advcfl_vvel_max              =   7.5573557614959E-02
(PID.TID 0000.0001) %MON advcfl_wvel_max              =   6.6033532203329E-02
(PID.TID 0000.0001) %MON advcfl_W_hf_max              =   7.2939484118211E-02
(PID.TID 0000.0001) %MON pe_b_mean                    =   4.7579836269957E-04
(PID.TID 0000.0001) %MON ke_max                       =   3.8384929898312E-02
(PID.TID 0000.0001) %MON ke_mean                      =   1.4042312556437E-04
(PID.TID 0000.0001) %MON ke_vol                       =   1.3398024453628E+18
(PID.TID 0000.0001) %MON vort_r_min                   =  -1.2753800077637E-06
(PID.TID 0000.0001) %MON vort_r_max                   =   1.2469857696868E-06
(PID.TID 0000.0001) %MON vort_a_mean                  =  -2.0549865324846E-05
(PID.TID 0000.0001) %MON vort_a_sd                    =   7.5259515139710E-05
(PID.TID 0000.0001) %MON vort_p_mean                  =  -2.4783468938417E-05
(PID.TID 0000.0001) %MON vort_p_sd                    =   1.2812069825346E-04
(PID.TID 0000.0001) %MON surfExpan_theta_mean         =   4.7400462256960E-08
(PID.TID 0000.0001) %MON surfExpan_salt_mean          =   1.4612314896967E-08
(PID.TID 0000.0001) // =======================================================
(PID.TID 0000.0001) // End MONITOR dynamic field statistics
(PID.TID 0000.0001) // =======================================================
 EXTERNAL_FIELDS_LOAD,     72018 : iP,iLd,i0,i1=    1    2    1    2 ; Wght=  0.9000000000  0.1000000000
 cg2d: Sum(rhs),rhsMax =  -9.49285094975494E-12  4.25956637548722E+00
(PID.TID 0000.0001)                    cg2d_init_res =    1.65231757728699E-01
(PID.TID 0000.0001)                       cg2d_iters =    62
(PID.TID 0000.0001)                         cg2d_res =    5.03510400023786E-07
(PID.TID 0000.0001) // =======================================================
(PID.TID 0000.0001) // Begin MONITOR dynamic field statistics
(PID.TID 0000.0001) // =======================================================
(PID.TID 0000.0001) %MON time_tsnumber                =                 72019
(PID.TID 0000.0001) %MON time_secondsf                =   6.2224416000000E+09
(PID.TID 0000.0001) %MON dynstat_eta_max              =   8.9651985996125E-01
(PID.TID 0000.0001) %MON dynstat_eta_min              =  -1.6095328440465E+00
(PID.TID 0000.0001) %MON dynstat_eta_mean             =   1.4358863518302E-14
(PID.TID 0000.0001) %MON dynstat_eta_sd               =   5.9755239466485E-01
(PID.TID 0000.0001) %MON dynstat_eta_del2             =   7.9700347650654E-04
(PID.TID 0000.0001) %MON dynstat_uvel_max             =   1.8476879480521E-01
(PID.TID 0000.0001) %MON dynstat_uvel_min             =  -2.8049757459797E-01
(PID.TID 0000.0001) %MON dynstat_uvel_mean            =  -4.7989431598178E-04
(PID.TID 0000.0001) %MON dynstat_uvel_sd              =   1.2001320324326E-02
(PID.TID 0000.0001) %MON dynstat_uvel_del2            =   5.0977658990184E-05
(PID.TID 0000.0001) %MON dynstat_vvel_max             =   1.7307346097524E-01
(PID.TID 0000.0001) %MON dynstat_vvel_min             =  -2.2373495966505E-01
(PID.TID 0000.0001) %MON dynstat_vvel_mean            =  -3.9770610918205E-04
(PID.TID 0000.0001) %MON dynstat_vvel_sd              =   1.2631757885090E-02
(PID.TID 0000.0001) %MON dynstat_vvel_del2            =   5.0217438535882E-05
(PID.TID 0000.0001) %MON dynstat_wvel_max             =   1.1020951427635E-04
(PID.TID 0000.0001) %MON dynstat_wvel_min             =  -2.0211115980097E-04
(PID.TID 0000.0001) %MON dynstat_wvel_mean            =  -4.2612912745853E-12
(PID.TID 0000.0001) %MON dynstat_wvel_sd              =   3.7952669169066E-06
(PID.TID 0000.0001) %MON dynstat_wvel_del2            =   2.6456547672969E-08
(PID.TID 0000.0001) %MON dynstat_theta_max            =   3.1148264021627E+01
(PID.TID 0000.0001) %MON dynstat_theta_min            =  -3.9028145479759E+00
(PID.TID 0000.0001) %MON dynstat_theta_mean           =   3.9102500312413E+00
(PID.TID 0000.0001) %MON dynstat_theta_sd             =   4.5726524088959E+00
(PID.TID 0000.0001) %MON dynstat_theta_del2           =   2.7448576807103E-03
(PID.TID 0000.0001) %MON dynstat_salt_max             =   4.1397091915002E+01
(PID.TID 0000.0001) %MON dynstat_salt_min             =   1.8390431032234E+01
(PID.TID 0000.0001) %MON dynstat_salt_mean            =   3.4772078660146E+01
(PID.TID 0000.0001) %MON dynstat_salt_sd              =   5.3148665262273E-01
(PID.TID 0000.0001) %MON dynstat_salt_del2            =   8.3542621520561E-04
(PID.TID 0000.0001) %MON forcing_qnet_max             =   4.4835989866233E+02
(PID.TID 0000.0001) %MON forcing_qnet_min             =  -1.9586302274640E+02
(PID.TID 0000.0001) %MON forcing_qnet_mean            =  -1.2466241527356E+01
(PID.TID 0000.0001) %MON forcing_qnet_sd              =   1.1016181871259E+02
(PID.TID 0000.0001) %MON forcing_qnet_del2            =   4.3738724859626E-01
(PID.TID 0000.0001) %MON forcing_qsw_max              =   0.0000000000000E+00
(PID.TID 0000.0001) %MON forcing_qsw_min              =   0.0000000000000E+00
(PID.TID 0000.0001) %MON forcing_qsw_mean             =   0.0000000000000E+00
(PID.TID 0000.0001) %MON forcing_qsw_sd               =   0.0000000000000E+00
(PID.TID 0000.0001) %MON forcing_qsw_del2             =   0.0000000000000E+00
(PID.TID 0000.0001) %MON forcing_empmr_max            =   7.6494447208479E-05
(PID.TID 0000.0001) %MON forcing_empmr_min            =  -1.5362614137596E-04
(PID.TID 0000.0001) %MON forcing_empmr_mean           =  -2.7256318706594E-21
(PID.TID 0000.0001) %MON forcing_empmr_sd             =   2.4051723601802E-05
(PID.TID 0000.0001) %MON forcing_empmr_del2           =   1.2276157049243E-07
(PID.TID 0000.0001) %MON forcing_fu_max               =   2.3972677870247E-01
(PID.TID 0000.0001) %MON forcing_fu_min               =  -2.3770170012775E-01
(PID.TID 0000.0001) %MON forcing_fu_mean              =  -3.9920827019745E-03
(PID.TID 0000.0001) %MON forcing_fu_sd                =   6.4926925508109E-02
(PID.TID 0000.0001) %MON forcing_fu_del2              =   2.2128767840564E-04
(PID.TID 0000.0001) %MON forcing_fv_max               =   2.9064945924193E-01
(PID.TID 0000.0001) %MON forcing_fv_min               =  -3.2918415574839E-01
(PID.TID 0000.0001) %MON forcing_fv_mean              =  -1.3738014727260E-02
(PID.TID 0000.0001) %MON forcing_fv_sd                =   7.6066207026079E-02
(PID.TID 0000.0001) %MON forcing_fv_del2              =   2.4963077337507E-04
(PID.TID 0000.0001) %MON advcfl_uvel_max              =   7.9554432826546E-02
(PID.TID 0000.0001) %MON advcfl_vvel_max              =   7.5440283343119E-02
(PID.TID 0000.0001) %MON advcfl_wvel_max              =   6.5895864931336E-02
(PID.TID 0000.0001) %MON advcfl_W_hf_max              =   7.2787440280641E-02
(PID.TID 0000.0001) %MON pe_b_mean                    =   4.7568171227071E-04
(PID.TID 0000.0001) %MON ke_max                       =   3.8233119593191E-02
(PID.TID 0000.0001) %MON ke_mean                      =   1.4037352481501E-04
(PID.TID 0000.0001) %MON ke_vol                       =   1.3398024453628E+18
(PID.TID 0000.0001) %MON vort_r_min                   =  -1.2800956342176E-06
(PID.TID 0000.0001) %MON vort_r_max                   =   1.2476811705584E-06
(PID.TID 0000.0001) %MON vort_a_mean                  =  -2.0549865324846E-05
(PID.TID 0000.0001) %MON vort_a_sd                    =   7.5259515067445E-05
(PID.TID 0000.0001) %MON vort_p_mean                  =  -2.4783468903904E-05
(PID.TID 0000.0001) %MON vort_p_sd                    =   1.2812069680870E-04
(PID.TID 0000.0001) %MON surfExpan_theta_mean         =   4.7453233004589E-08
(PID.TID 0000.0001) %MON surfExpan_salt_mean          =   1.4697337207455E-08
(PID.TID 0000.0001) // =======================================================
(PID.TID 0000.0001) // End MONITOR dynamic field statistics
(PID.TID 0000.0001) // =======================================================
 EXTERNAL_FIELDS_LOAD,     72019 : iP,iLd,i0,i1=    1    2    1    2 ; Wght=  0.8666666667  0.1333333333
 cg2d: Sum(rhs),rhsMax =  -9.91917659121100E-12  4.25845824223888E+00
(PID.TID 0000.0001)                    cg2d_init_res =    1.53747872352597E-01
(PID.TID 0000.0001)                       cg2d_iters =    62
(PID.TID 0000.0001)                         cg2d_res =    4.73197085052391E-07
(PID.TID 0000.0001) // =======================================================
(PID.TID 0000.0001) // Begin MONITOR dynamic field statistics
(PID.TID 0000.0001) // =======================================================
(PID.TID 0000.0001) %MON time_tsnumber                =                 72020
(PID.TID 0000.0001) %MON time_secondsf                =   6.2225280000000E+09
(PID.TID 0000.0001) %MON dynstat_eta_max              =   8.9552741655207E-01
(PID.TID 0000.0001) %MON dynstat_eta_min              =  -1.6089337928413E+00
(PID.TID 0000.0001) %MON dynstat_eta_mean             =   1.4386344596806E-14
(PID.TID 0000.0001) %MON dynstat_eta_sd               =   5.9748415501837E-01
(PID.TID 0000.0001) %MON dynstat_eta_del2             =   7.9776468501917E-04
(PID.TID 0000.0001) %MON dynstat_uvel_max             =   1.8460384194662E-01
(PID.TID 0000.0001) %MON dynstat_uvel_min             =  -2.7996410588248E-01
(PID.TID 0000.0001) %MON dynstat_uvel_mean            =  -4.7932458007108E-04
(PID.TID 0000.0001) %MON dynstat_uvel_sd              =   1.2001367652077E-02
(PID.TID 0000.0001) %MON dynstat_uvel_del2            =   5.0989925636955E-05
(PID.TID 0000.0001) %MON dynstat_vvel_max             =   1.7274534928475E-01
(PID.TID 0000.0001) %MON dynstat_vvel_min             =  -2.2359373437046E-01
(PID.TID 0000.0001) %MON dynstat_vvel_mean            =  -3.9720859167676E-04
(PID.TID 0000.0001) %MON dynstat_vvel_sd              =   1.2627273572791E-02
(PID.TID 0000.0001) %MON dynstat_vvel_del2            =   5.0208150508065E-05
(PID.TID 0000.0001) %MON dynstat_wvel_max             =   1.1048674729861E-04
(PID.TID 0000.0001) %MON dynstat_wvel_min             =  -2.0168408715960E-04
(PID.TID 0000.0001) %MON dynstat_wvel_mean            =  -1.3965597169837E-11
(PID.TID 0000.0001) %MON dynstat_wvel_sd              =   3.7925612186411E-06
(PID.TID 0000.0001) %MON dynstat_wvel_del2            =   2.6457667141035E-08
(PID.TID 0000.0001) %MON dynstat_theta_max            =   3.1159638183202E+01
(PID.TID 0000.0001) %MON dynstat_theta_min            =  -3.9490629046543E+00
(PID.TID 0000.0001) %MON dynstat_theta_mean           =   3.9103119738137E+00
(PID.TID 0000.0001) %MON dynstat_theta_sd             =   4.5728052220017E+00
(PID.TID 0000.0001) %MON dynstat_theta_del2           =   2.7500095003019E-03
(PID.TID 0000.0001) %MON dynstat_salt_max             =   4.1397653035859E+01
(PID.TID 0000.0001) %MON dynstat_salt_min             =   1.8390854755179E+01
(PID.TID 0000.0001) %MON dynstat_salt_mean            =   3.4772079368897E+01
(PID.TID 0000.0001) %MON dynstat_salt_sd              =   5.3148634808787E-01
(PID.TID 0000.0001) %MON dynstat_salt_del2            =   8.3709760343983E-04
(PID.TID 0000.0001) %MON forcing_qnet_max             =   4.4486238709081E+02
(PID.TID 0000.0001) %MON forcing_qnet_min             =  -1.9564239975390E+02
(PID.TID 0000.0001) %MON forcing_qnet_mean            =  -1.2511906062711E+01
(PID.TID 0000.0001) %MON forcing_qnet_sd              =   1.0914044317154E+02
(PID.TID 0000.0001) %MON forcing_qnet_del2            =   4.3563085574914E-01
(PID.TID 0000.0001) %MON forcing_qsw_max              =   0.0000000000000E+00
(PID.TID 0000.0001) %MON forcing_qsw_min              =   0.0000000000000E+00
(PID.TID 0000.0001) %MON forcing_qsw_mean             =   0.0000000000000E+00
(PID.TID 0000.0001) %MON forcing_qsw_sd               =   0.0000000000000E+00
(PID.TID 0000.0001) %MON forcing_qsw_del2             =   0.0000000000000E+00
(PID.TID 0000.0001) %MON forcing_empmr_max            =   7.6494447208479E-05
(PID.TID 0000.0001) %MON forcing_empmr_min            =  -1.5362614137596E-04
(PID.TID 0000.0001) %MON forcing_empmr_mean           =  -1.8869759104565E-21
(PID.TID 0000.0001) %MON forcing_empmr_sd             =   2.4051723601802E-05
(PID.TID 0000.0001) %MON forcing_empmr_del2           =   1.2276157049243E-07
(PID.TID 0000.0001) %MON forcing_fu_max               =   2.3665976779186E-01
(PID.TID 0000.0001) %MON forcing_fu_min               =  -2.3356264696351E-01
(PID.TID 0000.0001) %MON forcing_fu_mean              =  -4.0242113930123E-03
(PID.TID 0000.0001) %MON forcing_fu_sd                =   6.4770281337189E-02
(PID.TID 0000.0001) %MON forcing_fu_del2              =   2.1842206420252E-04
(PID.TID 0000.0001) %MON forcing_fv_max               =   2.8984607764745E-01
(PID.TID 0000.0001) %MON forcing_fv_min               =  -3.2574510356961E-01
(PID.TID 0000.0001) %MON forcing_fv_mean              =  -1.3736224733758E-02
(PID.TID 0000.0001) %MON forcing_fv_sd                =   7.5849088889787E-02
(PID.TID 0000.0001) %MON forcing_fv_del2              =   2.4762463092934E-04
(PID.TID 0000.0001) %MON advcfl_uvel_max              =   7.9403130979630E-02
(PID.TID 0000.0001) %MON advcfl_vvel_max              =   7.5297264079741E-02
(PID.TID 0000.0001) %MON advcfl_wvel_max              =   6.5756623134301E-02
(PID.TID 0000.0001) %MON advcfl_W_hf_max              =   7.2633659031461E-02
(PID.TID 0000.0001) %MON pe_b_mean                    =   4.7557307410373E-04
(PID.TID 0000.0001) %MON ke_max                       =   3.8080042766698E-02
(PID.TID 0000.0001) %MON ke_mean                      =   1.4032107748436E-04
(PID.TID 0000.0001) %MON ke_vol                       =   1.3398024453628E+18
(PID.TID 0000.0001) %MON vort_r_min                   =  -1.2845674612724E-06
(PID.TID 0000.0001) %MON vort_r_max                   =   1.2480343312469E-06
(PID.TID 0000.0001) %MON vort_a_mean                  =  -2.0549865324846E-05
(PID.TID 0000.0001) %MON vort_a_sd                    =   7.5259515006611E-05
(PID.TID 0000.0001) %MON vort_p_mean                  =  -2.4783468863674E-05
(PID.TID 0000.0001) %MON vort_p_sd                    =   1.2812069526650E-04
(PID.TID 0000.0001) %MON surfExpan_theta_mean         =   4.7544836715526E-08
(PID.TID 0000.0001) %MON surfExpan_salt_mean          =   1.4818867005731E-08
(PID.TID 0000.0001) // =======================================================
(PID.TID 0000.0001) // End MONITOR dynamic field statistics
(PID.TID 0000.0001) // =======================================================
 Computing Diagnostic #     78  DRHODR       Counter:      10   Parms: SM      LR      
 Computing Diagnostic #     64  RHOAnoma     Counter:      10   Parms: SMR     MR      
 Computing Diagnostic #     79  CONVADJ      Counter:      10   Parms: SMR     LR      
 Computing Diagnostic #    200  GM_Kwx       Counter:      10   Parms: UM      LR      
           Vector  Mate for  GM_Kwx       Diagnostic #    201  GM_Kwy   exists 
 Computing Diagnostic #    201  GM_Kwy       Counter:      10   Parms: VM      LR      
           Vector  Mate for  GM_Kwy       Diagnostic #    200  GM_Kwx   exists 
 Computing Diagnostic #    202  GM_Kwz       Counter:      10   Parms: WM P    LR      
 Computing Diagnostic #    203  GM_PsiX      Counter:      10   Parms: UU      LR      
           Vector  Mate for  GM_PsiX      Diagnostic #    204  GM_PsiY  exists 
 Computing Diagnostic #    204  GM_PsiY      Counter:      10   Parms: VV      LR      
           Vector  Mate for  GM_PsiY      Diagnostic #    203  GM_PsiX  exists 
(PID.TID 0000.0001) %CHECKPOINT     72020 0000072020
(PID.TID 0000.0001)   Seconds in section "ALL                    [THE_MODEL_MAIN]":
(PID.TID 0000.0001)           User time:   47.899999999999999
(PID.TID 0000.0001)         System time:  0.35999999999999999
(PID.TID 0000.0001)     Wall clock time:   92.645153999328613
(PID.TID 0000.0001)          No. starts:           1
(PID.TID 0000.0001)           No. stops:           1
(PID.TID 0000.0001)   Seconds in section "INITIALISE_FIXED       [THE_MODEL_MAIN]":
(PID.TID 0000.0001)           User time:  0.98999999999999999
(PID.TID 0000.0001)         System time:  0.11000000000000000
(PID.TID 0000.0001)     Wall clock time:   18.645411014556885
(PID.TID 0000.0001)          No. starts:           1
(PID.TID 0000.0001)           No. stops:           1
(PID.TID 0000.0001)   Seconds in section "THE_MAIN_LOOP          [THE_MODEL_MAIN]":
(PID.TID 0000.0001)           User time:   46.890000000000001
(PID.TID 0000.0001)         System time:  0.25000000000000000
(PID.TID 0000.0001)     Wall clock time:   73.985651016235352
(PID.TID 0000.0001)          No. starts:           1
(PID.TID 0000.0001)           No. stops:           1
(PID.TID 0000.0001)   Seconds in section "INITIALISE_VARIA    [THE_MAIN_LOOP]":
(PID.TID 0000.0001)           User time:  0.93999999999999995
(PID.TID 0000.0001)         System time:  9.99999999999999917E-002
(PID.TID 0000.0001)     Wall clock time:   5.2988641262054443
(PID.TID 0000.0001)          No. starts:           1
(PID.TID 0000.0001)           No. stops:           1
(PID.TID 0000.0001)   Seconds in section "MAIN LOOP           [THE_MAIN_LOOP]":
(PID.TID 0000.0001)           User time:   45.950000000000003
(PID.TID 0000.0001)         System time:  0.14999999999999999
(PID.TID 0000.0001)     Wall clock time:   68.686748981475830
(PID.TID 0000.0001)          No. starts:           1
(PID.TID 0000.0001)           No. stops:           1
(PID.TID 0000.0001)   Seconds in section "FORWARD_STEP        [THE_MAIN_LOOP]":
(PID.TID 0000.0001)           User time:   45.950000000000024
(PID.TID 0000.0001)         System time:  0.15000000000000002
(PID.TID 0000.0001)     Wall clock time:   68.686530828475952
(PID.TID 0000.0001)          No. starts:          20
(PID.TID 0000.0001)           No. stops:          20
(PID.TID 0000.0001)   Seconds in section "UPDATE_R_STAR       [FORWARD_STEP]":
(PID.TID 0000.0001)           User time:   1.2099999999999866
(PID.TID 0000.0001)         System time:   0.0000000000000000
(PID.TID 0000.0001)     Wall clock time:   1.2265362739562988
(PID.TID 0000.0001)          No. starts:          40
(PID.TID 0000.0001)           No. stops:          40
(PID.TID 0000.0001)   Seconds in section "DO_STATEVARS_DIAGS  [FORWARD_STEP]":
(PID.TID 0000.0001)           User time:  2.99999999999940314E-002
(PID.TID 0000.0001)         System time:   0.0000000000000000
(PID.TID 0000.0001)     Wall clock time:  2.38935947418212891E-002
(PID.TID 0000.0001)          No. starts:          60
(PID.TID 0000.0001)           No. stops:          60
(PID.TID 0000.0001)   Seconds in section "LOAD_FIELDS_DRIVER  [FORWARD_STEP]":
(PID.TID 0000.0001)           User time:  9.99999999999943157E-002
(PID.TID 0000.0001)         System time:  9.99999999999995337E-003
(PID.TID 0000.0001)     Wall clock time:  0.10410499572753906
(PID.TID 0000.0001)          No. starts:          20
(PID.TID 0000.0001)           No. stops:          20
(PID.TID 0000.0001)   Seconds in section "EXTERNAL_FLDS_LOAD [LOAD_FLDS_DRIVER]":
(PID.TID 0000.0001)           User time:  9.99999999999943157E-002
(PID.TID 0000.0001)         System time:  9.99999999999995337E-003
(PID.TID 0000.0001)     Wall clock time:  0.10370874404907227
(PID.TID 0000.0001)          No. starts:          20
(PID.TID 0000.0001)           No. stops:          20
(PID.TID 0000.0001)   Seconds in section "DO_ATMOSPHERIC_PHYS [FORWARD_STEP]":
(PID.TID 0000.0001)           User time:   0.0000000000000000
(PID.TID 0000.0001)         System time:   0.0000000000000000
(PID.TID 0000.0001)     Wall clock time:  1.89065933227539063E-004
(PID.TID 0000.0001)          No. starts:          20
(PID.TID 0000.0001)           No. stops:          20
(PID.TID 0000.0001)   Seconds in section "DO_OCEANIC_PHYS     [FORWARD_STEP]":
(PID.TID 0000.0001)           User time:   6.8700000000000045
(PID.TID 0000.0001)         System time:  1.00000000000000089E-002
(PID.TID 0000.0001)     Wall clock time:   6.9126374721527100
(PID.TID 0000.0001)          No. starts:          20
(PID.TID 0000.0001)           No. stops:          20
(PID.TID 0000.0001)   Seconds in section "DYNAMICS            [FORWARD_STEP]":
(PID.TID 0000.0001)           User time:   11.379999999999988
(PID.TID 0000.0001)         System time:   0.0000000000000000
(PID.TID 0000.0001)     Wall clock time:   11.416392564773560
(PID.TID 0000.0001)          No. starts:          20
(PID.TID 0000.0001)           No. stops:          20
(PID.TID 0000.0001)   Seconds in section "UPDATE_CG2D         [FORWARD_STEP]":
(PID.TID 0000.0001)           User time:  0.26000000000001222
(PID.TID 0000.0001)         System time:   0.0000000000000000
(PID.TID 0000.0001)     Wall clock time:  0.24728155136108398
(PID.TID 0000.0001)          No. starts:          20
(PID.TID 0000.0001)           No. stops:          20
(PID.TID 0000.0001)   Seconds in section "SOLVE_FOR_PRESSURE  [FORWARD_STEP]":
(PID.TID 0000.0001)           User time:   3.5100000000000051
(PID.TID 0000.0001)         System time:  1.00000000000000089E-002
(PID.TID 0000.0001)     Wall clock time:   3.5327208042144775
(PID.TID 0000.0001)          No. starts:          20
(PID.TID 0000.0001)           No. stops:          20
(PID.TID 0000.0001)   Seconds in section "MOM_CORRECTION_STEP [FORWARD_STEP]":
(PID.TID 0000.0001)           User time:  0.57000000000000028
(PID.TID 0000.0001)         System time:   0.0000000000000000
(PID.TID 0000.0001)     Wall clock time:  0.57818913459777832
(PID.TID 0000.0001)          No. starts:          20
(PID.TID 0000.0001)           No. stops:          20
(PID.TID 0000.0001)   Seconds in section "INTEGR_CONTINUITY   [FORWARD_STEP]":
(PID.TID 0000.0001)           User time:  0.71000000000000085
(PID.TID 0000.0001)         System time:   0.0000000000000000
(PID.TID 0000.0001)     Wall clock time:  0.70680761337280273
(PID.TID 0000.0001)          No. starts:          20
(PID.TID 0000.0001)           No. stops:          20
(PID.TID 0000.0001)   Seconds in section "CALC_R_STAR         [FORWARD_STEP]":
(PID.TID 0000.0001)           User time:  0.12000000000000455
(PID.TID 0000.0001)         System time:   0.0000000000000000
(PID.TID 0000.0001)     Wall clock time:  0.13119268417358398
(PID.TID 0000.0001)          No. starts:          20
(PID.TID 0000.0001)           No. stops:          20
(PID.TID 0000.0001)   Seconds in section "BLOCKING_EXCHANGES  [FORWARD_STEP]":
(PID.TID 0000.0001)           User time:  0.84999999999999432
(PID.TID 0000.0001)         System time:   0.0000000000000000
(PID.TID 0000.0001)     Wall clock time:  0.86565542221069336
(PID.TID 0000.0001)          No. starts:          40
(PID.TID 0000.0001)           No. stops:          40
(PID.TID 0000.0001)   Seconds in section "THERMODYNAMICS      [FORWARD_STEP]":
(PID.TID 0000.0001)           User time:   13.489999999999988
(PID.TID 0000.0001)         System time:   0.0000000000000000
(PID.TID 0000.0001)     Wall clock time:   13.531547784805298
(PID.TID 0000.0001)          No. starts:          20
(PID.TID 0000.0001)           No. stops:          20
(PID.TID 0000.0001)   Seconds in section "TRC_CORRECTION_STEP [FORWARD_STEP]":
(PID.TID 0000.0001)           User time:  0.17000000000000881
(PID.TID 0000.0001)         System time:   0.0000000000000000
(PID.TID 0000.0001)     Wall clock time:  0.16231751441955566
(PID.TID 0000.0001)          No. starts:          20
(PID.TID 0000.0001)           No. stops:          20
(PID.TID 0000.0001)   Seconds in section "DO_STATEVARS_TAVE   [FORWARD_STEP]":
(PID.TID 0000.0001)           User time:   1.9399999999999977
(PID.TID 0000.0001)         System time:   0.0000000000000000
(PID.TID 0000.0001)     Wall clock time:   1.9198915958404541
(PID.TID 0000.0001)          No. starts:          20
(PID.TID 0000.0001)           No. stops:          20
(PID.TID 0000.0001)   Seconds in section "MONITOR             [FORWARD_STEP]":
(PID.TID 0000.0001)           User time:   3.1600000000000037
(PID.TID 0000.0001)         System time:   0.0000000000000000
(PID.TID 0000.0001)     Wall clock time:   3.1812782287597656
(PID.TID 0000.0001)          No. starts:          20
(PID.TID 0000.0001)           No. stops:          20
(PID.TID 0000.0001)   Seconds in section "DO_THE_MODEL_IO     [FORWARD_STEP]":
(PID.TID 0000.0001)           User time:   1.4999999999999929
(PID.TID 0000.0001)         System time:  0.12000000000000005
(PID.TID 0000.0001)     Wall clock time:   24.070381879806519
(PID.TID 0000.0001)          No. starts:          20
(PID.TID 0000.0001)           No. stops:          20
(PID.TID 0000.0001)   Seconds in section "DO_WRITE_PICKUP     [FORWARD_STEP]":
(PID.TID 0000.0001)           User time:  6.00000000000022737E-002
(PID.TID 0000.0001)         System time:   0.0000000000000000
(PID.TID 0000.0001)     Wall clock time:  7.05471038818359375E-002
(PID.TID 0000.0001)          No. starts:          20
(PID.TID 0000.0001)           No. stops:          20
(PID.TID 0000.0001) // ======================================================
(PID.TID 0000.0001) // Tile <-> Tile communication statistics
(PID.TID 0000.0001) // ======================================================
(PID.TID 0000.0001) // o Tile number: 000001
(PID.TID 0000.0001) //         No. X exchanges =              0
(PID.TID 0000.0001) //            Max. X spins =              0
(PID.TID 0000.0001) //            Min. X spins =     1000000000
(PID.TID 0000.0001) //          Total. X spins =              0
(PID.TID 0000.0001) //            Avg. X spins =       0.00E+00
(PID.TID 0000.0001) //         No. Y exchanges =              0
(PID.TID 0000.0001) //            Max. Y spins =              0
(PID.TID 0000.0001) //            Min. Y spins =     1000000000
(PID.TID 0000.0001) //          Total. Y spins =              0
(PID.TID 0000.0001) //            Avg. Y spins =       0.00E+00
(PID.TID 0000.0001) // o Tile number: 000002
(PID.TID 0000.0001) //         No. X exchanges =              0
(PID.TID 0000.0001) //            Max. X spins =              0
(PID.TID 0000.0001) //            Min. X spins =     1000000000
(PID.TID 0000.0001) //          Total. X spins =              0
(PID.TID 0000.0001) //            Avg. X spins =       0.00E+00
(PID.TID 0000.0001) //         No. Y exchanges =              0
(PID.TID 0000.0001) //            Max. Y spins =              0
(PID.TID 0000.0001) //            Min. Y spins =     1000000000
(PID.TID 0000.0001) //          Total. Y spins =              0
(PID.TID 0000.0001) //            Avg. Y spins =       0.00E+00
(PID.TID 0000.0001) // o Tile number: 000003
(PID.TID 0000.0001) //         No. X exchanges =              0
(PID.TID 0000.0001) //            Max. X spins =              0
(PID.TID 0000.0001) //            Min. X spins =     1000000000
(PID.TID 0000.0001) //          Total. X spins =              0
(PID.TID 0000.0001) //            Avg. X spins =       0.00E+00
(PID.TID 0000.0001) //         No. Y exchanges =              0
(PID.TID 0000.0001) //            Max. Y spins =              0
(PID.TID 0000.0001) //            Min. Y spins =     1000000000
(PID.TID 0000.0001) //          Total. Y spins =              0
(PID.TID 0000.0001) //            Avg. Y spins =       0.00E+00
(PID.TID 0000.0001) // o Tile number: 000004
(PID.TID 0000.0001) //         No. X exchanges =              0
(PID.TID 0000.0001) //            Max. X spins =              0
(PID.TID 0000.0001) //            Min. X spins =     1000000000
(PID.TID 0000.0001) //          Total. X spins =              0
(PID.TID 0000.0001) //            Avg. X spins =       0.00E+00
(PID.TID 0000.0001) //         No. Y exchanges =              0
(PID.TID 0000.0001) //            Max. Y spins =              0
(PID.TID 0000.0001) //            Min. Y spins =     1000000000
(PID.TID 0000.0001) //          Total. Y spins =              0
(PID.TID 0000.0001) //            Avg. Y spins =       0.00E+00
(PID.TID 0000.0001) // o Tile number: 000005
(PID.TID 0000.0001) //         No. X exchanges =              0
(PID.TID 0000.0001) //            Max. X spins =              0
(PID.TID 0000.0001) //            Min. X spins =     1000000000
(PID.TID 0000.0001) //          Total. X spins =              0
(PID.TID 0000.0001) //            Avg. X spins =       0.00E+00
(PID.TID 0000.0001) //         No. Y exchanges =              0
(PID.TID 0000.0001) //            Max. Y spins =              0
(PID.TID 0000.0001) //            Min. Y spins =     1000000000
(PID.TID 0000.0001) //          Total. Y spins =              0
(PID.TID 0000.0001) //            Avg. Y spins =       0.00E+00
(PID.TID 0000.0001) // o Tile number: 000006
(PID.TID 0000.0001) //         No. X exchanges =              0
(PID.TID 0000.0001) //            Max. X spins =              0
(PID.TID 0000.0001) //            Min. X spins =     1000000000
(PID.TID 0000.0001) //          Total. X spins =              0
(PID.TID 0000.0001) //            Avg. X spins =       0.00E+00
(PID.TID 0000.0001) //         No. Y exchanges =              0
(PID.TID 0000.0001) //            Max. Y spins =              0
(PID.TID 0000.0001) //            Min. Y spins =     1000000000
(PID.TID 0000.0001) //          Total. Y spins =              0
(PID.TID 0000.0001) //            Avg. Y spins =       0.00E+00
(PID.TID 0000.0001) // o Tile number: 000007
(PID.TID 0000.0001) //         No. X exchanges =              0
(PID.TID 0000.0001) //            Max. X spins =              0
(PID.TID 0000.0001) //            Min. X spins =     1000000000
(PID.TID 0000.0001) //          Total. X spins =              0
(PID.TID 0000.0001) //            Avg. X spins =       0.00E+00
(PID.TID 0000.0001) //         No. Y exchanges =              0
(PID.TID 0000.0001) //            Max. Y spins =              0
(PID.TID 0000.0001) //            Min. Y spins =     1000000000
(PID.TID 0000.0001) //          Total. Y spins =              0
(PID.TID 0000.0001) //            Avg. Y spins =       0.00E+00
(PID.TID 0000.0001) // o Tile number: 000008
(PID.TID 0000.0001) //         No. X exchanges =              0
(PID.TID 0000.0001) //            Max. X spins =              0
(PID.TID 0000.0001) //            Min. X spins =     1000000000
(PID.TID 0000.0001) //          Total. X spins =              0
(PID.TID 0000.0001) //            Avg. X spins =       0.00E+00
(PID.TID 0000.0001) //         No. Y exchanges =              0
(PID.TID 0000.0001) //            Max. Y spins =              0
(PID.TID 0000.0001) //            Min. Y spins =     1000000000
(PID.TID 0000.0001) //          Total. Y spins =              0
(PID.TID 0000.0001) //            Avg. Y spins =       0.00E+00
(PID.TID 0000.0001) // o Tile number: 000009
(PID.TID 0000.0001) //         No. X exchanges =              0
(PID.TID 0000.0001) //            Max. X spins =              0
(PID.TID 0000.0001) //            Min. X spins =     1000000000
(PID.TID 0000.0001) //          Total. X spins =              0
(PID.TID 0000.0001) //            Avg. X spins =       0.00E+00
(PID.TID 0000.0001) //         No. Y exchanges =              0
(PID.TID 0000.0001) //            Max. Y spins =              0
(PID.TID 0000.0001) //            Min. Y spins =     1000000000
(PID.TID 0000.0001) //          Total. Y spins =              0
(PID.TID 0000.0001) //            Avg. Y spins =       0.00E+00
(PID.TID 0000.0001) // o Tile number: 000010
(PID.TID 0000.0001) //         No. X exchanges =              0
(PID.TID 0000.0001) //            Max. X spins =              0
(PID.TID 0000.0001) //            Min. X spins =     1000000000
(PID.TID 0000.0001) //          Total. X spins =              0
(PID.TID 0000.0001) //            Avg. X spins =       0.00E+00
(PID.TID 0000.0001) //         No. Y exchanges =              0
(PID.TID 0000.0001) //            Max. Y spins =              0
(PID.TID 0000.0001) //            Min. Y spins =     1000000000
(PID.TID 0000.0001) //          Total. Y spins =              0
(PID.TID 0000.0001) //            Avg. Y spins =       0.00E+00
(PID.TID 0000.0001) // o Tile number: 000011
(PID.TID 0000.0001) //         No. X exchanges =              0
(PID.TID 0000.0001) //            Max. X spins =              0
(PID.TID 0000.0001) //            Min. X spins =     1000000000
(PID.TID 0000.0001) //          Total. X spins =              0
(PID.TID 0000.0001) //            Avg. X spins =       0.00E+00
(PID.TID 0000.0001) //         No. Y exchanges =              0
(PID.TID 0000.0001) //            Max. Y spins =              0
(PID.TID 0000.0001) //            Min. Y spins =     1000000000
(PID.TID 0000.0001) //          Total. Y spins =              0
(PID.TID 0000.0001) //            Avg. Y spins =       0.00E+00
(PID.TID 0000.0001) // o Tile number: 000012
(PID.TID 0000.0001) //         No. X exchanges =              0
(PID.TID 0000.0001) //            Max. X spins =              0
(PID.TID 0000.0001) //            Min. X spins =     1000000000
(PID.TID 0000.0001) //          Total. X spins =              0
(PID.TID 0000.0001) //            Avg. X spins =       0.00E+00
(PID.TID 0000.0001) //         No. Y exchanges =              0
(PID.TID 0000.0001) //            Max. Y spins =              0
(PID.TID 0000.0001) //            Min. Y spins =     1000000000
(PID.TID 0000.0001) //          Total. Y spins =              0
(PID.TID 0000.0001) //            Avg. Y spins =       0.00E+00
(PID.TID 0000.0001) // o Thread number: 000001
(PID.TID 0000.0001) //            No. barriers =          19632
(PID.TID 0000.0001) //      Max. barrier spins =              1
(PID.TID 0000.0001) //      Min. barrier spins =              1
(PID.TID 0000.0001) //     Total barrier spins =          19632
(PID.TID 0000.0001) //      Avg. barrier spins =       1.00E+00
PROGRAM MAIN: Execution ended Normally
